MODEL 1
REMARK VINA RESULT:      -6.6      0.000      0.000
REMARK  Name = 
REMARK  9 active torsions:
REMARK  status: ('A' for Active; 'I' for Inactive)
REMARK    1  A    between atoms: C_1  and  O_2
REMARK    2  A    between atoms: O_2  and  C_3
REMARK    3  A    between atoms: C_3  and  C_5
REMARK    4  A    between atoms: C_5  and  C_6
REMARK    5  A    between atoms: C_6  and  C_7
REMARK    6  A    between atoms: C_7  and  N_8
REMARK    7  A    between atoms: C_12  and  C_13
REMARK    8  A    between atoms: C_13  and  C_14
REMARK    9  A    between atoms: C_13  and  C_15
REMARK                            x       y       z     vdW  Elec       q    Type
REMARK                         _______ _______ _______ _____ _____    ______ ____
ROOT
ATOM      1  N   UNL     1       2.443   6.164  19.622  0.00  0.00    +0.000 N 
ATOM      2  C   UNL     1       2.134   7.500  19.646  0.00  0.00    +0.000 A 
ATOM      3  C   UNL     1       2.525   7.987  18.427  0.00  0.00    +0.000 A 
ATOM      4  N   UNL     1       3.108   7.002  17.686  0.00  0.00    +0.000 NA
ATOM      5  C   UNL     1       3.065   5.899  18.417  0.00  0.00    +0.000 A 
ENDROOT
BRANCH   5   6
ATOM      6  C   UNL     1       3.568   4.547  17.955  0.00  0.00    +0.000 C 
ATOM      7  C   UNL     1       2.494   3.849  17.103  0.00  0.00    +0.000 C 
BRANCH   6   8
ATOM      8  C   UNL     1       4.878   4.614  17.177  0.00  0.00    +0.000 A 
ATOM      9  C   UNL     1       6.103   4.700  17.859  0.00  0.00    +0.000 A 
ATOM     10  C   UNL     1       7.315   4.685  17.160  0.00  0.00    +0.000 A 
ATOM     11  C   UNL     1       7.319   4.580  15.771  0.00  0.00    +0.000 A 
ATOM     12  C   UNL     1       6.114   4.494  15.079  0.00  0.00    +0.000 A 
ATOM     13  C   UNL     1       4.903   4.512  15.776  0.00  0.00    +0.000 A 
ENDBRANCH   6   8
ENDBRANCH   5   6
BRANCH   1  14
ATOM     14  C   UNL     1       2.100   5.243  20.693  0.00  0.00    +0.000 C 
BRANCH  14  15
ATOM     15  C   UNL     1       0.828   4.436  20.416  0.00  0.00    +0.000 C 
BRANCH  15  16
ATOM     16  C   UNL     1       1.066   2.925  20.365  0.00  0.00    +0.000 C 
BRANCH  16  17
ATOM     17  C   UNL     1       2.394   2.553  20.980  0.00  0.00    +0.000 C 
ATOM     18  O   UNL     1       2.660   2.603  22.172  0.00  0.00    +0.000 OA
BRANCH  17  20
ATOM     19  C   UNL     1       4.607   2.007  20.441  0.00  0.00    +0.000 C 
ATOM     20  O   UNL     1       3.254   2.152  20.001  0.00  0.00    +0.000 OA
ENDBRANCH  17  20
ENDBRANCH  16  17
ENDBRANCH  15  16
ENDBRANCH  14  15
ENDBRANCH   1  14
TORSDOF 7
ENDMDL
MODEL 2
REMARK VINA RESULT:      -6.5      3.677      6.505
REMARK  Name = 
REMARK  9 active torsions:
REMARK  status: ('A' for Active; 'I' for Inactive)
REMARK    1  A    between atoms: C_1  and  O_2
REMARK    2  A    between atoms: O_2  and  C_3
REMARK    3  A    between atoms: C_3  and  C_5
REMARK    4  A    between atoms: C_5  and  C_6
REMARK    5  A    between atoms: C_6  and  C_7
REMARK    6  A    between atoms: C_7  and  N_8
REMARK    7  A    between atoms: C_12  and  C_13
REMARK    8  A    between atoms: C_13  and  C_14
REMARK    9  A    between atoms: C_13  and  C_15
REMARK                            x       y       z     vdW  Elec       q    Type
REMARK                         _______ _______ _______ _____ _____    ______ ____
ROOT
ATOM      1  N   UNL     1       6.123   4.780  17.038  0.00  0.00    +0.000 N 
ATOM      2  C   UNL     1       7.473   4.549  17.098  0.00  0.00    +0.000 A 
ATOM      3  C   UNL     1       7.837   4.833  18.387  0.00  0.00    +0.000 A 
ATOM      4  N   UNL     1       6.761   5.280  19.097  0.00  0.00    +0.000 NA
ATOM      5  C   UNL     1       5.724   5.254  18.273  0.00  0.00    +0.000 A 
ENDROOT
BRANCH   5   6
ATOM      6  C   UNL     1       4.311   5.631  18.666  0.00  0.00    +0.000 C 
ATOM      7  C   UNL     1       3.778   6.730  17.730  0.00  0.00    +0.000 C 
BRANCH   6   8
ATOM      8  C   UNL     1       3.343   4.452  18.676  0.00  0.00    +0.000 A 
ATOM      9  C   UNL     1       2.023   4.617  18.222  0.00  0.00    +0.000 A 
ATOM     10  C   UNL     1       1.148   3.527  18.153  0.00  0.00    +0.000 A 
ATOM     11  C   UNL     1       1.580   2.258  18.533  0.00  0.00    +0.000 A 
ATOM     12  C   UNL     1       2.885   2.078  18.986  0.00  0.00    +0.000 A 
ATOM     13  C   UNL     1       3.759   3.165  19.058  0.00  0.00    +0.000 A 
ENDBRANCH   6   8
ENDBRANCH   5   6
BRANCH   1  14
ATOM     14  C   UNL     1       5.314   4.505  15.863  0.00  0.00    +0.000 C 
BRANCH  14  15
ATOM     15  C   UNL     1       6.124   3.950  14.686  0.00  0.00    +0.000 C 
BRANCH  15  16
ATOM     16  C   UNL     1       5.323   3.862  13.385  0.00  0.00    +0.000 C 
BRANCH  16  17
ATOM     17  C   UNL     1       6.180   3.376  12.240  0.00  0.00    +0.000 C 
ATOM     18  O   UNL     1       7.175   3.943  11.813  0.00  0.00    +0.000 OA
BRANCH  17  20
ATOM     19  C   UNL     1       6.623   1.421  11.029  0.00  0.00    +0.000 C 
ATOM     20  O   UNL     1       5.674   2.207  11.756  0.00  0.00    +0.000 OA
ENDBRANCH  17  20
ENDBRANCH  16  17
ENDBRANCH  15  16
ENDBRANCH  14  15
ENDBRANCH   1  14
TORSDOF 7
ENDMDL
MODEL 3
REMARK VINA RESULT:      -6.5      0.261      1.109
REMARK  Name = 
REMARK  9 active torsions:
REMARK  status: ('A' for Active; 'I' for Inactive)
REMARK    1  A    between atoms: C_1  and  O_2
REMARK    2  A    between atoms: O_2  and  C_3
REMARK    3  A    between atoms: C_3  and  C_5
REMARK    4  A    between atoms: C_5  and  C_6
REMARK    5  A    between atoms: C_6  and  C_7
REMARK    6  A    between atoms: C_7  and  N_8
REMARK    7  A    between atoms: C_12  and  C_13
REMARK    8  A    between atoms: C_13  and  C_14
REMARK    9  A    between atoms: C_13  and  C_15
REMARK                            x       y       z     vdW  Elec       q    Type
REMARK                         _______ _______ _______ _____ _____    ______ ____
ROOT
ATOM      1  N   UNL     1       2.568   6.204  19.470  0.00  0.00    +0.000 N 
ATOM      2  C   UNL     1       2.274   7.543  19.429  0.00  0.00    +0.000 A 
ATOM      3  C   UNL     1       2.634   7.959  18.174  0.00  0.00    +0.000 A 
ATOM      4  N   UNL     1       3.186   6.928  17.472  0.00  0.00    +0.000 NA
ATOM      5  C   UNL     1       3.153   5.867  18.264  0.00  0.00    +0.000 A 
ENDROOT
BRANCH   5   6
ATOM      6  C   UNL     1       3.629   4.487  17.863  0.00  0.00    +0.000 C 
ATOM      7  C   UNL     1       2.545   3.776  17.033  0.00  0.00    +0.000 C 
BRANCH   6   8
ATOM      8  C   UNL     1       4.944   4.492  17.091  0.00  0.00    +0.000 A 
ATOM      9  C   UNL     1       4.942   4.401  15.689  0.00  0.00    +0.000 A 
ATOM     10  C   UNL     1       6.136   4.482  14.964  0.00  0.00    +0.000 A 
ATOM     11  C   UNL     1       7.347   4.660  15.629  0.00  0.00    +0.000 A 
ATOM     12  C   UNL     1       7.367   4.753  17.019  0.00  0.00    +0.000 A 
ATOM     13  C   UNL     1       6.176   4.669  17.744  0.00  0.00    +0.000 A 
ENDBRANCH   6   8
ENDBRANCH   5   6
BRANCH   1  14
ATOM     14  C   UNL     1       2.247   5.348  20.599  0.00  0.00    +0.000 C 
BRANCH  14  15
ATOM     15  C   UNL     1       0.877   4.674  20.479  0.00  0.00    +0.000 C 
BRANCH  15  16
ATOM     16  C   UNL     1       0.960   3.184  20.136  0.00  0.00    +0.000 C 
BRANCH  16  17
ATOM     17  C   UNL     1       2.057   2.499  20.915  0.00  0.00    +0.000 C 
ATOM     18  O   UNL     1       2.116   2.420  22.134  0.00  0.00    +0.000 OA
BRANCH  17  20
ATOM     19  C   UNL     1       4.331   2.234  20.421  0.00  0.00    +0.000 C 
ATOM     20  O   UNL     1       2.974   1.979  20.051  0.00  0.00    +0.000 OA
ENDBRANCH  17  20
ENDBRANCH  16  17
ENDBRANCH  15  16
ENDBRANCH  14  15
ENDBRANCH   1  14
TORSDOF 7
ENDMDL
MODEL 4
REMARK VINA RESULT:      -6.4      3.510      6.743
REMARK  Name = 
REMARK  9 active torsions:
REMARK  status: ('A' for Active; 'I' for Inactive)
REMARK    1  A    between atoms: C_1  and  O_2
REMARK    2  A    between atoms: O_2  and  C_3
REMARK    3  A    between atoms: C_3  and  C_5
REMARK    4  A    between atoms: C_5  and  C_6
REMARK    5  A    between atoms: C_6  and  C_7
REMARK    6  A    between atoms: C_7  and  N_8
REMARK    7  A    between atoms: C_12  and  C_13
REMARK    8  A    between atoms: C_13  and  C_14
REMARK    9  A    between atoms: C_13  and  C_15
REMARK                            x       y       z     vdW  Elec       q    Type
REMARK                         _______ _______ _______ _____ _____    ______ ____
ROOT
ATOM      1  N   UNL     1       5.990   4.175  16.162  0.00  0.00    +0.000 N 
ATOM      2  C   UNL     1       7.302   4.486  16.413  0.00  0.00    +0.000 A 
ATOM      3  C   UNL     1       7.390   4.631  17.772  0.00  0.00    +0.000 A 
ATOM      4  N   UNL     1       6.164   4.470  18.348  0.00  0.00    +0.000 NA
ATOM      5  C   UNL     1       5.315   4.202  17.368  0.00  0.00    +0.000 A 
ENDROOT
BRANCH   5   6
ATOM      6  C   UNL     1       3.844   3.907  17.568  0.00  0.00    +0.000 C 
ATOM      7  C   UNL     1       3.646   2.420  17.913  0.00  0.00    +0.000 C 
BRANCH   6   8
ATOM      8  C   UNL     1       3.186   4.773  18.638  0.00  0.00    +0.000 A 
ATOM      9  C   UNL     1       3.041   6.156  18.438  0.00  0.00    +0.000 A 
ATOM     10  C   UNL     1       2.371   6.950  19.376  0.00  0.00    +0.000 A 
ATOM     11  C   UNL     1       1.834   6.372  20.524  0.00  0.00    +0.000 A 
ATOM     12  C   UNL     1       1.969   5.002  20.738  0.00  0.00    +0.000 A 
ATOM     13  C   UNL     1       2.640   4.209  19.803  0.00  0.00    +0.000 A 
ENDBRANCH   6   8
ENDBRANCH   5   6
BRANCH   1  14
ATOM     14  C   UNL     1       5.485   3.840  14.842  0.00  0.00    +0.000 C 
BRANCH  14  15
ATOM     15  C   UNL     1       6.260   4.517  13.706  0.00  0.00    +0.000 C 
BRANCH  15  16
ATOM     16  C   UNL     1       6.625   3.564  12.566  0.00  0.00    +0.000 C 
BRANCH  16  17
ATOM     17  C   UNL     1       5.393   3.011  11.891  0.00  0.00    +0.000 C 
ATOM     18  O   UNL     1       4.337   3.611  11.746  0.00  0.00    +0.000 OA
BRANCH  17  20
ATOM     19  C   UNL     1       6.988   1.512  11.060  0.00  0.00    +0.000 C 
ATOM     20  O   UNL     1       5.636   1.739  11.466  0.00  0.00    +0.000 OA
ENDBRANCH  17  20
ENDBRANCH  16  17
ENDBRANCH  15  16
ENDBRANCH  14  15
ENDBRANCH   1  14
TORSDOF 7
ENDMDL
MODEL 5
REMARK VINA RESULT:      -6.4      3.487      6.746
REMARK  Name = 
REMARK  9 active torsions:
REMARK  status: ('A' for Active; 'I' for Inactive)
REMARK    1  A    between atoms: C_1  and  O_2
REMARK    2  A    between atoms: O_2  and  C_3
REMARK    3  A    between atoms: C_3  and  C_5
REMARK    4  A    between atoms: C_5  and  C_6
REMARK    5  A    between atoms: C_6  and  C_7
REMARK    6  A    between atoms: C_7  and  N_8
REMARK    7  A    between atoms: C_12  and  C_13
REMARK    8  A    between atoms: C_13  and  C_14
REMARK    9  A    between atoms: C_13  and  C_15
REMARK                            x       y       z     vdW  Elec       q    Type
REMARK                         _______ _______ _______ _____ _____    ______ ____
ROOT
ATOM      1  N   UNL     1       6.047   4.068  16.290  0.00  0.00    +0.000 N 
ATOM      2  C   UNL     1       7.336   4.457  16.555  0.00  0.00    +0.000 A 
ATOM      3  C   UNL     1       7.373   4.706  17.901  0.00  0.00    +0.000 A 
ATOM      4  N   UNL     1       6.137   4.533  18.451  0.00  0.00    +0.000 NA
ATOM      5  C   UNL     1       5.333   4.154  17.469  0.00  0.00    +0.000 A 
ENDROOT
BRANCH   5   6
ATOM      6  C   UNL     1       3.869   3.809  17.649  0.00  0.00    +0.000 C 
ATOM      7  C   UNL     1       3.717   2.315  17.982  0.00  0.00    +0.000 C 
BRANCH   6   8
ATOM      8  C   UNL     1       3.169   4.646  18.714  0.00  0.00    +0.000 A 
ATOM      9  C   UNL     1       3.089   6.042  18.578  0.00  0.00    +0.000 A 
ATOM     10  C   UNL     1       2.384   6.814  19.508  0.00  0.00    +0.000 A 
ATOM     11  C   UNL     1       1.745   6.201  20.584  0.00  0.00    +0.000 A 
ATOM     12  C   UNL     1       1.813   4.818  20.733  0.00  0.00    +0.000 A 
ATOM     13  C   UNL     1       2.520   4.046  19.807  0.00  0.00    +0.000 A 
ENDBRANCH   6   8
ENDBRANCH   5   6
BRANCH   1  14
ATOM     14  C   UNL     1       5.601   3.613  14.984  0.00  0.00    +0.000 C 
BRANCH  14  15
ATOM     15  C   UNL     1       6.066   4.514  13.836  0.00  0.00    +0.000 C 
BRANCH  15  16
ATOM     16  C   UNL     1       6.653   3.739  12.654  0.00  0.00    +0.000 C 
BRANCH  16  17
ATOM     17  C   UNL     1       5.599   2.912  11.957  0.00  0.00    +0.000 C 
ATOM     18  O   UNL     1       5.751   1.769  11.550  0.00  0.00    +0.000 OA
BRANCH  17  20
ATOM     19  C   UNL     1       3.595   3.215  10.783  0.00  0.00    +0.000 C 
ATOM     20  O   UNL     1       4.449   3.636  11.850  0.00  0.00    +0.000 OA
ENDBRANCH  17  20
ENDBRANCH  16  17
ENDBRANCH  15  16
ENDBRANCH  14  15
ENDBRANCH   1  14
TORSDOF 7
ENDMDL
MODEL 6
REMARK VINA RESULT:      -6.4      3.505      6.632
REMARK  Name = 
REMARK  9 active torsions:
REMARK  status: ('A' for Active; 'I' for Inactive)
REMARK    1  A    between atoms: C_1  and  O_2
REMARK    2  A    between atoms: O_2  and  C_3
REMARK    3  A    between atoms: C_3  and  C_5
REMARK    4  A    between atoms: C_5  and  C_6
REMARK    5  A    between atoms: C_6  and  C_7
REMARK    6  A    between atoms: C_7  and  N_8
REMARK    7  A    between atoms: C_12  and  C_13
REMARK    8  A    between atoms: C_13  and  C_14
REMARK    9  A    between atoms: C_13  and  C_15
REMARK                            x       y       z     vdW  Elec       q    Type
REMARK                         _______ _______ _______ _____ _____    ______ ____
ROOT
ATOM      1  N   UNL     1       6.067   4.117  16.391  0.00  0.00    +0.000 N 
ATOM      2  C   UNL     1       7.371   4.491  16.597  0.00  0.00    +0.000 A 
ATOM      3  C   UNL     1       7.465   4.768  17.935  0.00  0.00    +0.000 A 
ATOM      4  N   UNL     1       6.249   4.625  18.537  0.00  0.00    +0.000 NA
ATOM      5  C   UNL     1       5.401   4.238  17.596  0.00  0.00    +0.000 A 
ENDROOT
BRANCH   5   6
ATOM      6  C   UNL     1       3.941   3.920  17.839  0.00  0.00    +0.000 C 
ATOM      7  C   UNL     1       3.814   2.602  18.625  0.00  0.00    +0.000 C 
BRANCH   6   8
ATOM      8  C   UNL     1       3.186   5.026  18.568  0.00  0.00    +0.000 A 
ATOM      9  C   UNL     1       2.583   4.771  19.811  0.00  0.00    +0.000 A 
ATOM     10  C   UNL     1       1.953   5.796  20.525  0.00  0.00    +0.000 A 
ATOM     11  C   UNL     1       1.921   7.090  20.009  0.00  0.00    +0.000 A 
ATOM     12  C   UNL     1       2.513   7.360  18.779  0.00  0.00    +0.000 A 
ATOM     13  C   UNL     1       3.140   6.337  18.063  0.00  0.00    +0.000 A 
ENDBRANCH   6   8
ENDBRANCH   5   6
BRANCH   1  14
ATOM     14  C   UNL     1       5.563   3.642  15.114  0.00  0.00    +0.000 C 
BRANCH  14  15
ATOM     15  C   UNL     1       6.049   4.474  13.923  0.00  0.00    +0.000 C 
BRANCH  15  16
ATOM     16  C   UNL     1       6.539   3.625  12.747  0.00  0.00    +0.000 C 
BRANCH  16  17
ATOM     17  C   UNL     1       5.385   3.037  11.971  0.00  0.00    +0.000 C 
ATOM     18  O   UNL     1       4.303   3.579  11.795  0.00  0.00    +0.000 OA
BRANCH  17  20
ATOM     19  C   UNL     1       7.108   1.703  11.112  0.00  0.00    +0.000 C 
ATOM     20  O   UNL     1       5.734   1.809  11.494  0.00  0.00    +0.000 OA
ENDBRANCH  17  20
ENDBRANCH  16  17
ENDBRANCH  15  16
ENDBRANCH  14  15
ENDBRANCH   1  14
TORSDOF 7
ENDMDL
MODEL 7
REMARK VINA RESULT:      -6.4      3.309      5.757
REMARK  Name = 
REMARK  9 active torsions:
REMARK  status: ('A' for Active; 'I' for Inactive)
REMARK    1  A    between atoms: C_1  and  O_2
REMARK    2  A    between atoms: O_2  and  C_3
REMARK    3  A    between atoms: C_3  and  C_5
REMARK    4  A    between atoms: C_5  and  C_6
REMARK    5  A    between atoms: C_6  and  C_7
REMARK    6  A    between atoms: C_7  and  N_8
REMARK    7  A    between atoms: C_12  and  C_13
REMARK    8  A    between atoms: C_13  and  C_14
REMARK    9  A    between atoms: C_13  and  C_15
REMARK                            x       y       z     vdW  Elec       q    Type
REMARK                         _______ _______ _______ _____ _____    ______ ____
ROOT
ATOM      1  N   UNL     1       6.000   6.013  17.882  0.00  0.00    +0.000 N 
ATOM      2  C   UNL     1       7.369   6.102  17.845  0.00  0.00    +0.000 A 
ATOM      3  C   UNL     1       7.798   5.655  19.066  0.00  0.00    +0.000 A 
ATOM      4  N   UNL     1       6.732   5.348  19.861  0.00  0.00    +0.000 NA
ATOM      5  C   UNL     1       5.643   5.575  19.142  0.00  0.00    +0.000 A 
ENDROOT
BRANCH   5   6
ATOM      6  C   UNL     1       4.231   5.321  19.628  0.00  0.00    +0.000 C 
ATOM      7  C   UNL     1       3.363   6.571  19.397  0.00  0.00    +0.000 C 
BRANCH   6   8
ATOM      8  C   UNL     1       3.568   4.110  18.980  0.00  0.00    +0.000 A 
ATOM      9  C   UNL     1       4.173   2.845  19.062  0.00  0.00    +0.000 A 
ATOM     10  C   UNL     1       3.539   1.712  18.539  0.00  0.00    +0.000 A 
ATOM     11  C   UNL     1       2.291   1.828  17.931  0.00  0.00    +0.000 A 
ATOM     12  C   UNL     1       1.677   3.075  17.842  0.00  0.00    +0.000 A 
ATOM     13  C   UNL     1       2.311   4.207  18.361  0.00  0.00    +0.000 A 
ENDBRANCH   6   8
ENDBRANCH   5   6
BRANCH   1  14
ATOM     14  C   UNL     1       5.148   6.301  16.740  0.00  0.00    +0.000 C 
BRANCH  14  15
ATOM     15  C   UNL     1       4.948   5.097  15.815  0.00  0.00    +0.000 C 
BRANCH  15  16
ATOM     16  C   UNL     1       5.412   5.350  14.378  0.00  0.00    +0.000 C 
BRANCH  16  17
ATOM     17  C   UNL     1       6.782   4.768  14.129  0.00  0.00    +0.000 C 
ATOM     18  O   UNL     1       7.842   5.343  14.332  0.00  0.00    +0.000 OA
BRANCH  17  20
ATOM     19  C   UNL     1       6.171   3.437  12.301  0.00  0.00    +0.000 C 
ATOM     20  O   UNL     1       6.659   3.500  13.644  0.00  0.00    +0.000 OA
ENDBRANCH  17  20
ENDBRANCH  16  17
ENDBRANCH  15  16
ENDBRANCH  14  15
ENDBRANCH   1  14
TORSDOF 7
ENDMDL
MODEL 8
REMARK VINA RESULT:      -6.4      2.900      4.645
REMARK  Name = 
REMARK  9 active torsions:
REMARK  status: ('A' for Active; 'I' for Inactive)
REMARK    1  A    between atoms: C_1  and  O_2
REMARK    2  A    between atoms: O_2  and  C_3
REMARK    3  A    between atoms: C_3  and  C_5
REMARK    4  A    between atoms: C_5  and  C_6
REMARK    5  A    between atoms: C_6  and  C_7
REMARK    6  A    between atoms: C_7  and  N_8
REMARK    7  A    between atoms: C_12  and  C_13
REMARK    8  A    between atoms: C_13  and  C_14
REMARK    9  A    between atoms: C_13  and  C_15
REMARK                            x       y       z     vdW  Elec       q    Type
REMARK                         _______ _______ _______ _____ _____    ______ ____
ROOT
ATOM      1  N   UNL     1       2.204   4.332  19.736  0.00  0.00    +0.000 N 
ATOM      2  C   UNL     1       1.592   4.375  20.963  0.00  0.00    +0.000 A 
ATOM      3  C   UNL     1       2.113   3.324  21.669  0.00  0.00    +0.000 A 
ATOM      4  N   UNL     1       2.981   2.613  20.893  0.00  0.00    +0.000 NA
ATOM      5  C   UNL     1       3.027   3.222  19.718  0.00  0.00    +0.000 A 
ENDROOT
BRANCH   5   6
ATOM      6  C   UNL     1       3.907   2.788  18.564  0.00  0.00    +0.000 C 
ATOM      7  C   UNL     1       3.042   2.202  17.434  0.00  0.00    +0.000 C 
BRANCH   6   8
ATOM      8  C   UNL     1       4.787   3.904  18.011  0.00  0.00    +0.000 A 
ATOM      9  C   UNL     1       4.657   4.310  16.672  0.00  0.00    +0.000 A 
ATOM     10  C   UNL     1       5.403   5.382  16.173  0.00  0.00    +0.000 A 
ATOM     11  C   UNL     1       6.287   6.066  17.005  0.00  0.00    +0.000 A 
ATOM     12  C   UNL     1       6.428   5.677  18.334  0.00  0.00    +0.000 A 
ATOM     13  C   UNL     1       5.685   4.604  18.834  0.00  0.00    +0.000 A 
ENDBRANCH   6   8
ENDBRANCH   5   6
BRANCH   1  14
ATOM     14  C   UNL     1       2.007   5.338  18.707  0.00  0.00    +0.000 C 
BRANCH  14  15
ATOM     15  C   UNL     1       2.614   6.698  19.064  0.00  0.00    +0.000 C 
BRANCH  15  16
ATOM     16  C   UNL     1       2.707   7.655  17.873  0.00  0.00    +0.000 C 
BRANCH  16  17
ATOM     17  C   UNL     1       2.026   8.970  18.166  0.00  0.00    +0.000 C 
ATOM     18  O   UNL     1       2.040   9.952  17.436  0.00  0.00    +0.000 OA
BRANCH  17  20
ATOM     19  C   UNL     1       0.705  10.097  19.737  0.00  0.00    +0.000 C 
ATOM     20  O   UNL     1       1.390   8.897  19.369  0.00  0.00    +0.000 OA
ENDBRANCH  17  20
ENDBRANCH  16  17
ENDBRANCH  15  16
ENDBRANCH  14  15
ENDBRANCH   1  14
TORSDOF 7
ENDMDL
MODEL 9
REMARK VINA RESULT:      -6.4      3.308      6.299
REMARK  Name = 
REMARK  9 active torsions:
REMARK  status: ('A' for Active; 'I' for Inactive)
REMARK    1  A    between atoms: C_1  and  O_2
REMARK    2  A    between atoms: O_2  and  C_3
REMARK    3  A    between atoms: C_3  and  C_5
REMARK    4  A    between atoms: C_5  and  C_6
REMARK    5  A    between atoms: C_6  and  C_7
REMARK    6  A    between atoms: C_7  and  N_8
REMARK    7  A    between atoms: C_12  and  C_13
REMARK    8  A    between atoms: C_13  and  C_14
REMARK    9  A    between atoms: C_13  and  C_15
REMARK                            x       y       z     vdW  Elec       q    Type
REMARK                         _______ _______ _______ _____ _____    ______ ____
ROOT
ATOM      1  N   UNL     1       5.784   6.023  17.701  0.00  0.00    +0.000 N 
ATOM      2  C   UNL     1       6.915   6.305  18.424  0.00  0.00    +0.000 A 
ATOM      3  C   UNL     1       6.966   5.354  19.408  0.00  0.00    +0.000 A 
ATOM      4  N   UNL     1       5.876   4.537  19.338  0.00  0.00    +0.000 NA
ATOM      5  C   UNL     1       5.156   4.952  18.306  0.00  0.00    +0.000 A 
ENDROOT
BRANCH   5   6
ATOM      6  C   UNL     1       3.875   4.293  17.838  0.00  0.00    +0.000 C 
ATOM      7  C   UNL     1       4.197   2.995  17.078  0.00  0.00    +0.000 C 
BRANCH   6   8
ATOM      8  C   UNL     1       2.891   3.997  18.965  0.00  0.00    +0.000 A 
ATOM      9  C   UNL     1       2.642   2.670  19.355  0.00  0.00    +0.000 A 
ATOM     10  C   UNL     1       1.801   2.388  20.438  0.00  0.00    +0.000 A 
ATOM     11  C   UNL     1       1.202   3.427  21.147  0.00  0.00    +0.000 A 
ATOM     12  C   UNL     1       1.440   4.747  20.774  0.00  0.00    +0.000 A 
ATOM     13  C   UNL     1       2.276   5.031  19.692  0.00  0.00    +0.000 A 
ENDBRANCH   6   8
ENDBRANCH   5   6
BRANCH   1  14
ATOM     14  C   UNL     1       5.407   6.740  16.495  0.00  0.00    +0.000 C 
BRANCH  14  15
ATOM     15  C   UNL     1       5.432   5.866  15.237  0.00  0.00    +0.000 C 
BRANCH  15  16
ATOM     16  C   UNL     1       6.712   5.038  15.098  0.00  0.00    +0.000 C 
BRANCH  16  17
ATOM     17  C   UNL     1       7.058   4.795  13.648  0.00  0.00    +0.000 C 
ATOM     18  O   UNL     1       7.894   5.416  13.007  0.00  0.00    +0.000 OA
BRANCH  17  20
ATOM     19  C   UNL     1       6.714   3.299  11.879  0.00  0.00    +0.000 C 
ATOM     20  O   UNL     1       6.297   3.775  13.161  0.00  0.00    +0.000 OA
ENDBRANCH  17  20
ENDBRANCH  16  17
ENDBRANCH  15  16
ENDBRANCH  14  15
ENDBRANCH   1  14
TORSDOF 7
ENDMDL
