MODEL 1
REMARK VINA RESULT:      -7.7      0.000      0.000
REMARK  Name = 
REMARK  8 active torsions:
REMARK  status: ('A' for Active; 'I' for Inactive)
REMARK    1  A    between atoms: C_1  and  C_2
REMARK    2  A    between atoms: C_2  and  C_3
REMARK    3  A    between atoms: C_2  and  C_4
REMARK    4  A    between atoms: C_4  and  S_5
REMARK    5  A    between atoms: S_5  and  C_8
REMARK    6  A    between atoms: C_11  and  S_12
REMARK    7  A    between atoms: S_12  and  N_15
REMARK    8  A    between atoms: C_19  and  C_20
REMARK                            x       y       z     vdW  Elec       q    Type
REMARK                         _______ _______ _______ _____ _____    ______ ____
ROOT
ATOM      1  S   UNL     1       0.652   8.481  21.401  0.00  0.00    +0.000 S 
ATOM      2  O   UNL     1      -0.706   8.023  21.607  0.00  0.00    +0.000 OA
ATOM      3  O   UNL     1       1.498   8.870  22.503  0.00  0.00    +0.000 OA
ENDROOT
BRANCH   1   7
ATOM      4  C   UNL     1       2.848   5.209  19.143  0.00  0.00    +0.000 A 
ATOM      5  C   UNL     1       2.099   4.888  20.279  0.00  0.00    +0.000 A 
ATOM      6  C   UNL     1       1.439   5.903  20.967  0.00  0.00    +0.000 A 
ATOM      7  C   UNL     1       1.541   7.224  20.517  0.00  0.00    +0.000 A 
ATOM      8  C   UNL     1       2.286   7.548  19.380  0.00  0.00    +0.000 A 
ATOM      9  C   UNL     1       2.953   6.533  18.692  0.00  0.00    +0.000 A 
BRANCH   4  10
ATOM     10  S   UNL     1       3.742   3.930  18.289  0.00  0.00    +0.000 S 
ATOM     11  O   UNL     1       2.901   3.467  17.199  0.00  0.00    +0.000 OA
ATOM     12  O   UNL     1       4.203   3.021  19.320  0.00  0.00    +0.000 OA
BRANCH  10  13
ATOM     13  C   UNL     1       5.146   4.777  17.581  0.00  0.00    +0.000 C 
BRANCH  13  15
ATOM     14  C   UNL     1       5.251   6.363  15.646  0.00  0.00    +0.000 C 
ATOM     15  C   UNL     1       5.090   4.895  16.051  0.00  0.00    +0.000 C 
ATOM     16  C   UNL     1       6.161   4.059  15.349  0.00  0.00    +0.000 C 
ENDBRANCH  13  15
ENDBRANCH  10  13
ENDBRANCH   4  10
ENDBRANCH   1   7
BRANCH   1  17
ATOM     17  N   UNL     1       0.608   9.772  20.250  0.00  0.00    +0.000 NA
ATOM     18  C   UNL     1      -0.748  10.016  19.676  0.00  0.00    +0.000 C 
ATOM     19  C   UNL     1      -0.704  11.134  18.636  0.00  0.00    +0.000 C 
ATOM     20  C   UNL     1      -0.111  12.415  19.220  0.00  0.00    +0.000 C 
ATOM     21  C   UNL     1       1.289  12.128  19.762  0.00  0.00    +0.000 C 
ATOM     22  C   UNL     1       1.231  11.011  20.809  0.00  0.00    +0.000 C 
BRANCH  21  23
ATOM     23  C   UNL     1       1.911  13.355  20.420  0.00  0.00    +0.000 C 
ATOM     24  O   UNL     1       1.516  13.729  21.526  0.00  0.00    +0.000 OA
ATOM     25  N   UNL     1       2.922  14.031  19.754  0.00  0.00    +0.000 N 
ATOM     26  C   UNL     1       3.751  14.969  20.515  0.00  0.00    +0.000 C 
ATOM     27  C   UNL     1       3.799  16.325  19.838  0.00  0.00    +0.000 C 
ATOM     28  C   UNL     1       4.225  16.156  18.395  0.00  0.00    +0.000 C 
ATOM     29  F   UNL     1       4.186  17.360  17.769  0.00  0.00    +0.000 F 
ATOM     30  F   UNL     1       5.520  15.746  18.351  0.00  0.00    +0.000 F 
ATOM     31  C   UNL     1       3.365  15.166  17.634  0.00  0.00    +0.000 C 
ATOM     32  C   UNL     1       3.329  13.830  18.364  0.00  0.00    +0.000 C 
ENDBRANCH  21  23
ENDBRANCH   1  17
TORSDOF 6
ENDMDL
MODEL 2
REMARK VINA RESULT:      -7.7      0.467      1.033
REMARK  Name = 
REMARK  8 active torsions:
REMARK  status: ('A' for Active; 'I' for Inactive)
REMARK    1  A    between atoms: C_1  and  C_2
REMARK    2  A    between atoms: C_2  and  C_3
REMARK    3  A    between atoms: C_2  and  C_4
REMARK    4  A    between atoms: C_4  and  S_5
REMARK    5  A    between atoms: S_5  and  C_8
REMARK    6  A    between atoms: C_11  and  S_12
REMARK    7  A    between atoms: S_12  and  N_15
REMARK    8  A    between atoms: C_19  and  C_20
REMARK                            x       y       z     vdW  Elec       q    Type
REMARK                         _______ _______ _______ _____ _____    ______ ____
ROOT
ATOM      1  S   UNL     1       0.677   8.523  21.406  0.00  0.00    +0.000 S 
ATOM      2  O   UNL     1      -0.669   8.068  21.681  0.00  0.00    +0.000 OA
ATOM      3  O   UNL     1       1.591   8.878  22.465  0.00  0.00    +0.000 OA
ENDROOT
BRANCH   1   7
ATOM      4  C   UNL     1       2.862   5.419  18.914  0.00  0.00    +0.000 A 
ATOM      5  C   UNL     1       2.823   6.750  18.489  0.00  0.00    +0.000 A 
ATOM      6  C   UNL     1       2.142   7.690  19.259  0.00  0.00    +0.000 A 
ATOM      7  C   UNL     1       1.502   7.286  20.436  0.00  0.00    +0.000 A 
ATOM      8  C   UNL     1       1.541   5.957  20.865  0.00  0.00    +0.000 A 
ATOM      9  C   UNL     1       2.220   5.014  20.093  0.00  0.00    +0.000 A 
BRANCH   4  10
ATOM     10  S   UNL     1       3.682   4.199  17.911  0.00  0.00    +0.000 S 
ATOM     11  O   UNL     1       2.675   3.592  17.059  0.00  0.00    +0.000 OA
ATOM     12  O   UNL     1       4.467   3.401  18.833  0.00  0.00    +0.000 OA
BRANCH  10  13
ATOM     13  C   UNL     1       4.781   5.152  16.875  0.00  0.00    +0.000 C 
BRANCH  13  15
ATOM     14  C   UNL     1       5.581   4.494  14.595  0.00  0.00    +0.000 C 
ATOM     15  C   UNL     1       5.794   4.298  16.099  0.00  0.00    +0.000 C 
ATOM     16  C   UNL     1       7.246   4.629  16.450  0.00  0.00    +0.000 C 
ENDBRANCH  13  15
ENDBRANCH  10  13
ENDBRANCH   4  10
ENDBRANCH   1   7
BRANCH   1  17
ATOM     17  N   UNL     1       0.573   9.845  20.295  0.00  0.00    +0.000 NA
ATOM     18  C   UNL     1      -0.815  10.119  19.818  0.00  0.00    +0.000 C 
ATOM     19  C   UNL     1      -0.826  11.265  18.808  0.00  0.00    +0.000 C 
ATOM     20  C   UNL     1      -0.180  12.524  19.384  0.00  0.00    +0.000 C 
ATOM     21  C   UNL     1       1.249  12.207  19.825  0.00  0.00    +0.000 C 
ATOM     22  C   UNL     1       1.247  11.062  20.844  0.00  0.00    +0.000 C 
BRANCH  21  23
ATOM     23  C   UNL     1       1.927  13.409  20.473  0.00  0.00    +0.000 C 
ATOM     24  O   UNL     1       1.557  13.804  21.580  0.00  0.00    +0.000 OA
ATOM     25  N   UNL     1       2.960  14.039  19.796  0.00  0.00    +0.000 N 
ATOM     26  C   UNL     1       3.835  14.944  20.546  0.00  0.00    +0.000 C 
ATOM     27  C   UNL     1       3.934  16.295  19.863  0.00  0.00    +0.000 C 
ATOM     28  C   UNL     1       4.341  16.102  18.417  0.00  0.00    +0.000 C 
ATOM     29  F   UNL     1       4.348  17.304  17.786  0.00  0.00    +0.000 F 
ATOM     30  F   UNL     1       5.617  15.637  18.365  0.00  0.00    +0.000 F 
ATOM     31  C   UNL     1       3.434  15.146  17.667  0.00  0.00    +0.000 C 
ATOM     32  C   UNL     1       3.347  13.816  18.403  0.00  0.00    +0.000 C 
ENDBRANCH  21  23
ENDBRANCH   1  17
TORSDOF 6
ENDMDL
MODEL 3
REMARK VINA RESULT:      -7.5      0.972      1.111
REMARK  Name = 
REMARK  8 active torsions:
REMARK  status: ('A' for Active; 'I' for Inactive)
REMARK    1  A    between atoms: C_1  and  C_2
REMARK    2  A    between atoms: C_2  and  C_3
REMARK    3  A    between atoms: C_2  and  C_4
REMARK    4  A    between atoms: C_4  and  S_5
REMARK    5  A    between atoms: S_5  and  C_8
REMARK    6  A    between atoms: C_11  and  S_12
REMARK    7  A    between atoms: S_12  and  N_15
REMARK    8  A    between atoms: C_19  and  C_20
REMARK                            x       y       z     vdW  Elec       q    Type
REMARK                         _______ _______ _______ _____ _____    ______ ____
ROOT
ATOM      1  S   UNL     1       0.827   8.957  21.116  0.00  0.00    +0.000 S 
ATOM      2  O   UNL     1      -0.436   8.402  21.556  0.00  0.00    +0.000 OA
ATOM      3  O   UNL     1       1.787   9.496  22.049  0.00  0.00    +0.000 OA
ENDROOT
BRANCH   1   7
ATOM      4  C   UNL     1       2.963   5.727  18.744  0.00  0.00    +0.000 A 
ATOM      5  C   UNL     1       2.430   5.429  20.001  0.00  0.00    +0.000 A 
ATOM      6  C   UNL     1       1.786   6.432  20.721  0.00  0.00    +0.000 A 
ATOM      7  C   UNL     1       1.690   7.719  20.181  0.00  0.00    +0.000 A 
ATOM      8  C   UNL     1       2.219   8.020  18.923  0.00  0.00    +0.000 A 
ATOM      9  C   UNL     1       2.869   7.017  18.202  0.00  0.00    +0.000 A 
BRANCH   4  10
ATOM     10  S   UNL     1       3.838   4.470  17.839  0.00  0.00    +0.000 S 
ATOM     11  O   UNL     1       2.850   3.699  17.104  0.00  0.00    +0.000 OA
ATOM     12  O   UNL     1       4.719   3.838  18.802  0.00  0.00    +0.000 OA
BRANCH  10  13
ATOM     13  C   UNL     1       4.817   5.384  16.658  0.00  0.00    +0.000 C 
BRANCH  13  15
ATOM     14  C   UNL     1       6.963   4.892  15.465  0.00  0.00    +0.000 C 
ATOM     15  C   UNL     1       6.331   5.189  16.828  0.00  0.00    +0.000 C 
ATOM     16  C   UNL     1       7.023   6.403  17.450  0.00  0.00    +0.000 C 
ENDBRANCH  13  15
ENDBRANCH  10  13
ENDBRANCH   4  10
ENDBRANCH   1   7
BRANCH   1  17
ATOM     17  N   UNL     1       0.489  10.152  19.912  0.00  0.00    +0.000 NA
ATOM     18  C   UNL     1      -0.886  10.057  19.341  0.00  0.00    +0.000 C 
ATOM     19  C   UNL     1      -1.099  11.109  18.255  0.00  0.00    +0.000 C 
ATOM     20  C   UNL     1      -0.812  12.515  18.776  0.00  0.00    +0.000 C 
ATOM     21  C   UNL     1       0.617  12.578  19.315  0.00  0.00    +0.000 C 
ATOM     22  C   UNL     1       0.815  11.524  20.410  0.00  0.00    +0.000 C 
BRANCH  21  23
ATOM     23  C   UNL     1       0.943  13.941  19.914  0.00  0.00    +0.000 C 
ATOM     24  O   UNL     1       0.070  14.583  20.501  0.00  0.00    +0.000 OA
ATOM     25  N   UNL     1       2.232  14.436  19.785  0.00  0.00    +0.000 N 
ATOM     26  C   UNL     1       2.640  15.551  20.645  0.00  0.00    +0.000 C 
ATOM     27  C   UNL     1       3.219  16.687  19.825  0.00  0.00    +0.000 C 
ATOM     28  C   UNL     1       4.326  16.157  18.937  0.00  0.00    +0.000 C 
ATOM     29  F   UNL     1       4.787  17.158  18.144  0.00  0.00    +0.000 F 
ATOM     30  F   UNL     1       5.376  15.767  19.708  0.00  0.00    +0.000 F 
ATOM     31  C   UNL     1       3.887  14.992  18.073  0.00  0.00    +0.000 C 
ATOM     32  C   UNL     1       3.290  13.890  18.937  0.00  0.00    +0.000 C 
ENDBRANCH  21  23
ENDBRANCH   1  17
TORSDOF 6
ENDMDL
MODEL 4
REMARK VINA RESULT:      -7.5      1.366      1.532
REMARK  Name = 
REMARK  8 active torsions:
REMARK  status: ('A' for Active; 'I' for Inactive)
REMARK    1  A    between atoms: C_1  and  C_2
REMARK    2  A    between atoms: C_2  and  C_3
REMARK    3  A    between atoms: C_2  and  C_4
REMARK    4  A    between atoms: C_4  and  S_5
REMARK    5  A    between atoms: S_5  and  C_8
REMARK    6  A    between atoms: C_11  and  S_12
REMARK    7  A    between atoms: S_12  and  N_15
REMARK    8  A    between atoms: C_19  and  C_20
REMARK                            x       y       z     vdW  Elec       q    Type
REMARK                         _______ _______ _______ _____ _____    ______ ____
ROOT
ATOM      1  S   UNL     1       0.634   9.205  20.987  0.00  0.00    +0.000 S 
ATOM      2  O   UNL     1      -0.601   8.567  21.392  0.00  0.00    +0.000 OA
ATOM      3  O   UNL     1       1.512   9.834  21.943  0.00  0.00    +0.000 OA
ENDROOT
BRANCH   1   7
ATOM      4  C   UNL     1       3.100   6.090  18.787  0.00  0.00    +0.000 A 
ATOM      5  C   UNL     1       2.590   5.804  20.056  0.00  0.00    +0.000 A 
ATOM      6  C   UNL     1       1.843   6.772  20.723  0.00  0.00    +0.000 A 
ATOM      7  C   UNL     1       1.623   8.014  20.118  0.00  0.00    +0.000 A 
ATOM      8  C   UNL     1       2.128   8.303  18.847  0.00  0.00    +0.000 A 
ATOM      9  C   UNL     1       2.880   7.335  18.180  0.00  0.00    +0.000 A 
BRANCH   4  10
ATOM     10  S   UNL     1       4.102   4.883  17.948  0.00  0.00    +0.000 S 
ATOM     11  O   UNL     1       4.360   5.388  16.611  0.00  0.00    +0.000 OA
ATOM     12  O   UNL     1       3.435   3.612  18.155  0.00  0.00    +0.000 OA
BRANCH  10  13
ATOM     13  C   UNL     1       5.643   4.893  18.850  0.00  0.00    +0.000 C 
BRANCH  13  15
ATOM     14  C   UNL     1       7.811   6.130  19.051  0.00  0.00    +0.000 C 
ATOM     15  C   UNL     1       6.812   5.511  18.069  0.00  0.00    +0.000 C 
ATOM     16  C   UNL     1       7.539   4.499  17.182  0.00  0.00    +0.000 C 
ENDBRANCH  13  15
ENDBRANCH  10  13
ENDBRANCH   4  10
ENDBRANCH   1   7
BRANCH   1  17
ATOM     17  N   UNL     1       0.258  10.344  19.741  0.00  0.00    +0.000 NA
ATOM     18  C   UNL     1      -1.126  10.207  19.200  0.00  0.00    +0.000 C 
ATOM     19  C   UNL     1      -1.372  11.210  18.075  0.00  0.00    +0.000 C 
ATOM     20  C   UNL     1      -1.095  12.641  18.533  0.00  0.00    +0.000 C 
ATOM     21  C   UNL     1       0.342  12.744  19.042  0.00  0.00    +0.000 C 
ATOM     22  C   UNL     1       0.574  11.739  20.176  0.00  0.00    +0.000 C 
BRANCH  21  23
ATOM     23  C   UNL     1       0.661  14.135  19.578  0.00  0.00    +0.000 C 
ATOM     24  O   UNL     1      -0.244  14.856  20.004  0.00  0.00    +0.000 OA
ATOM     25  N   UNL     1       1.978  14.567  19.576  0.00  0.00    +0.000 N 
ATOM     26  C   UNL     1       2.333  15.727  20.398  0.00  0.00    +0.000 C 
ATOM     27  C   UNL     1       3.064  16.772  19.578  0.00  0.00    +0.000 C 
ATOM     28  C   UNL     1       4.243  16.131  18.875  0.00  0.00    +0.000 C 
ATOM     29  F   UNL     1       4.845  17.048  18.077  0.00  0.00    +0.000 F 
ATOM     30  F   UNL     1       5.170  15.760  19.797  0.00  0.00    +0.000 F 
ATOM     31  C   UNL     1       3.854  14.921  18.048  0.00  0.00    +0.000 C 
ATOM     32  C   UNL     1       3.103  13.914  18.908  0.00  0.00    +0.000 C 
ENDBRANCH  21  23
ENDBRANCH   1  17
TORSDOF 6
ENDMDL
MODEL 5
REMARK VINA RESULT:      -7.5      1.323      1.754
REMARK  Name = 
REMARK  8 active torsions:
REMARK  status: ('A' for Active; 'I' for Inactive)
REMARK    1  A    between atoms: C_1  and  C_2
REMARK    2  A    between atoms: C_2  and  C_3
REMARK    3  A    between atoms: C_2  and  C_4
REMARK    4  A    between atoms: C_4  and  S_5
REMARK    5  A    between atoms: S_5  and  C_8
REMARK    6  A    between atoms: C_11  and  S_12
REMARK    7  A    between atoms: S_12  and  N_15
REMARK    8  A    between atoms: C_19  and  C_20
REMARK                            x       y       z     vdW  Elec       q    Type
REMARK                         _______ _______ _______ _____ _____    ______ ____
ROOT
ATOM      1  S   UNL     1       0.563   9.290  20.995  0.00  0.00    +0.000 S 
ATOM      2  O   UNL     1      -0.681   8.713  21.460  0.00  0.00    +0.000 OA
ATOM      3  O   UNL     1       1.470   9.963  21.893  0.00  0.00    +0.000 OA
ENDROOT
BRANCH   1   7
ATOM      4  C   UNL     1       3.053   6.101  18.933  0.00  0.00    +0.000 A 
ATOM      5  C   UNL     1       2.869   7.344  18.322  0.00  0.00    +0.000 A 
ATOM      6  C   UNL     1       2.096   8.310  18.961  0.00  0.00    +0.000 A 
ATOM      7  C   UNL     1       1.510   8.018  20.198  0.00  0.00    +0.000 A 
ATOM      8  C   UNL     1       1.693   6.778  20.814  0.00  0.00    +0.000 A 
ATOM      9  C   UNL     1       2.464   5.808  20.172  0.00  0.00    +0.000 A 
BRANCH   4  10
ATOM     10  S   UNL     1       3.992   4.840  18.101  0.00  0.00    +0.000 S 
ATOM     11  O   UNL     1       3.093   4.165  17.182  0.00  0.00    +0.000 OA
ATOM     12  O   UNL     1       4.681   4.112  19.149  0.00  0.00    +0.000 OA
BRANCH  10  13
ATOM     13  C   UNL     1       5.187   5.752  17.136  0.00  0.00    +0.000 C 
BRANCH  13  15
ATOM     14  C   UNL     1       7.419   4.618  17.119  0.00  0.00    +0.000 C 
ATOM     15  C   UNL     1       6.599   5.752  17.740  0.00  0.00    +0.000 C 
ATOM     16  C   UNL     1       7.335   7.077  17.535  0.00  0.00    +0.000 C 
ENDBRANCH  13  15
ENDBRANCH  10  13
ENDBRANCH   4  10
ENDBRANCH   1   7
BRANCH   1  17
ATOM     17  N   UNL     1       0.196  10.350  19.678  0.00  0.00    +0.000 NA
ATOM     18  C   UNL     1      -1.164  10.139  19.100  0.00  0.00    +0.000 C 
ATOM     19  C   UNL     1      -1.402  11.073  17.915  0.00  0.00    +0.000 C 
ATOM     20  C   UNL     1      -1.186  12.535  18.304  0.00  0.00    +0.000 C 
ATOM     21  C   UNL     1       0.229  12.711  18.855  0.00  0.00    +0.000 C 
ATOM     22  C   UNL     1       0.453  11.776  20.048  0.00  0.00    +0.000 C 
BRANCH  21  23
ATOM     23  C   UNL     1       0.486  14.138  19.325  0.00  0.00    +0.000 C 
ATOM     24  O   UNL     1      -0.461  14.875  19.609  0.00  0.00    +0.000 OA
ATOM     25  N   UNL     1       1.795  14.584  19.426  0.00  0.00    +0.000 N 
ATOM     26  C   UNL     1       2.060  15.799  20.200  0.00  0.00    +0.000 C 
ATOM     27  C   UNL     1       2.865  16.796  19.388  0.00  0.00    +0.000 C 
ATOM     28  C   UNL     1       4.112  16.123  18.852  0.00  0.00    +0.000 C 
ATOM     29  F   UNL     1       4.787  16.992  18.058  0.00  0.00    +0.000 F 
ATOM     30  F   UNL     1       4.943  15.825  19.885  0.00  0.00    +0.000 F 
ATOM     31  C   UNL     1       3.814  14.857  18.074  0.00  0.00    +0.000 C 
ATOM     32  C   UNL     1       2.985  13.901  18.919  0.00  0.00    +0.000 C 
ENDBRANCH  21  23
ENDBRANCH   1  17
TORSDOF 6
ENDMDL
MODEL 6
REMARK VINA RESULT:      -7.5      1.516      2.037
REMARK  Name = 
REMARK  8 active torsions:
REMARK  status: ('A' for Active; 'I' for Inactive)
REMARK    1  A    between atoms: C_1  and  C_2
REMARK    2  A    between atoms: C_2  and  C_3
REMARK    3  A    between atoms: C_2  and  C_4
REMARK    4  A    between atoms: C_4  and  S_5
REMARK    5  A    between atoms: S_5  and  C_8
REMARK    6  A    between atoms: C_11  and  S_12
REMARK    7  A    between atoms: S_12  and  N_15
REMARK    8  A    between atoms: C_19  and  C_20
REMARK                            x       y       z     vdW  Elec       q    Type
REMARK                         _______ _______ _______ _____ _____    ______ ____
ROOT
ATOM      1  S   UNL     1       0.694   9.102  21.156  0.00  0.00    +0.000 S 
ATOM      2  O   UNL     1      -0.571   8.471  21.470  0.00  0.00    +0.000 OA
ATOM      3  O   UNL     1       1.570   9.602  22.187  0.00  0.00    +0.000 OA
ENDROOT
BRANCH   1   7
ATOM      4  C   UNL     1       3.111   6.135  18.711  0.00  0.00    +0.000 A 
ATOM      5  C   UNL     1       2.649   5.777  19.980  0.00  0.00    +0.000 A 
ATOM      6  C   UNL     1       1.917   6.700  20.722  0.00  0.00    +0.000 A 
ATOM      7  C   UNL     1       1.663   7.970  20.191  0.00  0.00    +0.000 A 
ATOM      8  C   UNL     1       2.121   8.331  18.921  0.00  0.00    +0.000 A 
ATOM      9  C   UNL     1       2.859   7.408  18.179  0.00  0.00    +0.000 A 
BRANCH   4  10
ATOM     10  S   UNL     1       4.096   4.985  17.776  0.00  0.00    +0.000 S 
ATOM     11  O   UNL     1       5.108   4.454  18.671  0.00  0.00    +0.000 OA
ATOM     12  O   UNL     1       4.461   5.685  16.559  0.00  0.00    +0.000 OA
BRANCH  10  13
ATOM     13  C   UNL     1       2.962   3.664  17.377  0.00  0.00    +0.000 C 
BRANCH  13  15
ATOM     14  C   UNL     1       1.173   2.443  18.634  0.00  0.00    +0.000 C 
ATOM     15  C   UNL     1       2.677   2.718  18.553  0.00  0.00    +0.000 C 
ATOM     16  C   UNL     1       3.428   1.390  18.444  0.00  0.00    +0.000 C 
ENDBRANCH  13  15
ENDBRANCH  10  13
ENDBRANCH   4  10
ENDBRANCH   1   7
BRANCH   1  17
ATOM     17  N   UNL     1       0.385  10.372  20.022  0.00  0.00    +0.000 NA
ATOM     18  C   UNL     1      -1.022  10.403  19.525  0.00  0.00    +0.000 C 
ATOM     19  C   UNL     1      -1.211  11.516  18.496  0.00  0.00    +0.000 C 
ATOM     20  C   UNL     1      -0.793  12.873  19.059  0.00  0.00    +0.000 C 
ATOM     21  C   UNL     1       0.662  12.806  19.522  0.00  0.00    +0.000 C 
ATOM     22  C   UNL     1       0.838  11.692  20.559  0.00  0.00    +0.000 C 
BRANCH  21  23
ATOM     23  C   UNL     1       1.121  14.114  20.158  0.00  0.00    +0.000 C 
ATOM     24  O   UNL     1       0.343  14.768  20.856  0.00  0.00    +0.000 OA
ATOM     25  N   UNL     1       2.420  14.546  19.936  0.00  0.00    +0.000 N 
ATOM     26  C   UNL     1       2.967  15.586  20.812  0.00  0.00    +0.000 C 
ATOM     27  C   UNL     1       3.537  16.734  20.002  0.00  0.00    +0.000 C 
ATOM     28  C   UNL     1       4.527  16.197  18.989  0.00  0.00    +0.000 C 
ATOM     29  F   UNL     1       4.973  17.215  18.210  0.00  0.00    +0.000 F 
ATOM     30  F   UNL     1       5.617  15.708  19.638  0.00  0.00    +0.000 F 
ATOM     31  C   UNL     1       3.944  15.109  18.109  0.00  0.00    +0.000 C 
ATOM     32  C   UNL     1       3.364  13.992  18.966  0.00  0.00    +0.000 C 
ENDBRANCH  21  23
ENDBRANCH   1  17
TORSDOF 6
ENDMDL
MODEL 7
REMARK VINA RESULT:      -7.4      1.233      1.378
REMARK  Name = 
REMARK  8 active torsions:
REMARK  status: ('A' for Active; 'I' for Inactive)
REMARK    1  A    between atoms: C_1  and  C_2
REMARK    2  A    between atoms: C_2  and  C_3
REMARK    3  A    between atoms: C_2  and  C_4
REMARK    4  A    between atoms: C_4  and  S_5
REMARK    5  A    between atoms: S_5  and  C_8
REMARK    6  A    between atoms: C_11  and  S_12
REMARK    7  A    between atoms: S_12  and  N_15
REMARK    8  A    between atoms: C_19  and  C_20
REMARK                            x       y       z     vdW  Elec       q    Type
REMARK                         _______ _______ _______ _____ _____    ______ ____
ROOT
ATOM      1  S   UNL     1       0.731   8.602  21.428  0.00  0.00    +0.000 S 
ATOM      2  O   UNL     1      -0.617   8.140  21.686  0.00  0.00    +0.000 OA
ATOM      3  O   UNL     1       1.644   8.917  22.500  0.00  0.00    +0.000 OA
ENDROOT
BRANCH   1   7
ATOM      4  C   UNL     1       2.763   5.463  18.851  0.00  0.00    +0.000 A 
ATOM      5  C   UNL     1       2.163   5.091  20.058  0.00  0.00    +0.000 A 
ATOM      6  C   UNL     1       1.552   6.066  20.842  0.00  0.00    +0.000 A 
ATOM      7  C   UNL     1       1.554   7.399  20.416  0.00  0.00    +0.000 A 
ATOM      8  C   UNL     1       2.150   7.774  19.209  0.00  0.00    +0.000 A 
ATOM      9  C   UNL     1       2.767   6.799  18.424  0.00  0.00    +0.000 A 
BRANCH   4  10
ATOM     10  S   UNL     1       3.596   4.238  17.867  0.00  0.00    +0.000 S 
ATOM     11  O   UNL     1       2.596   3.605  17.025  0.00  0.00    +0.000 OA
ATOM     12  O   UNL     1       4.390   3.463  18.801  0.00  0.00    +0.000 OA
BRANCH  10  13
ATOM     13  C   UNL     1       4.684   5.187  16.816  0.00  0.00    +0.000 C 
BRANCH  13  15
ATOM     14  C   UNL     1       5.659   4.560  14.596  0.00  0.00    +0.000 C 
ATOM     15  C   UNL     1       5.753   4.342  16.109  0.00  0.00    +0.000 C 
ATOM     16  C   UNL     1       7.173   4.663  16.577  0.00  0.00    +0.000 C 
ENDBRANCH  13  15
ENDBRANCH  10  13
ENDBRANCH   4  10
ENDBRANCH   1   7
BRANCH   1  17
ATOM     17  N   UNL     1       0.629   9.963  20.365  0.00  0.00    +0.000 NA
ATOM     18  C   UNL     1      -0.613   9.986  19.538  0.00  0.00    +0.000 C 
ATOM     19  C   UNL     1      -0.615  11.185  18.592  0.00  0.00    +0.000 C 
ATOM     20  C   UNL     1      -0.431  12.497  19.353  0.00  0.00    +0.000 C 
ATOM     21  C   UNL     1       0.869  12.443  20.155  0.00  0.00    +0.000 C 
ATOM     22  C   UNL     1       0.855  11.242  21.106  0.00  0.00    +0.000 C 
BRANCH  21  23
ATOM     23  C   UNL     1       1.077  13.700  20.992  0.00  0.00    +0.000 C 
ATOM     24  O   UNL     1       0.680  13.738  22.159  0.00  0.00    +0.000 OA
ATOM     25  N   UNL     1       1.718  14.787  20.418  0.00  0.00    +0.000 N 
ATOM     26  C   UNL     1       2.231  15.839  21.300  0.00  0.00    +0.000 C 
ATOM     27  C   UNL     1       1.734  17.204  20.865  0.00  0.00    +0.000 C 
ATOM     28  C   UNL     1       2.056  17.417  19.401  0.00  0.00    +0.000 C 
ATOM     29  F   UNL     1       1.537  18.603  18.992  0.00  0.00    +0.000 F 
ATOM     30  F   UNL     1       3.403  17.516  19.244  0.00  0.00    +0.000 F 
ATOM     31  C   UNL     1       1.534  16.306  18.511  0.00  0.00    +0.000 C 
ATOM     32  C   UNL     1       2.038  14.956  19.002  0.00  0.00    +0.000 C 
ENDBRANCH  21  23
ENDBRANCH   1  17
TORSDOF 6
ENDMDL
MODEL 8
REMARK VINA RESULT:      -7.4      1.526      1.969
REMARK  Name = 
REMARK  8 active torsions:
REMARK  status: ('A' for Active; 'I' for Inactive)
REMARK    1  A    between atoms: C_1  and  C_2
REMARK    2  A    between atoms: C_2  and  C_3
REMARK    3  A    between atoms: C_2  and  C_4
REMARK    4  A    between atoms: C_4  and  S_5
REMARK    5  A    between atoms: S_5  and  C_8
REMARK    6  A    between atoms: C_11  and  S_12
REMARK    7  A    between atoms: S_12  and  N_15
REMARK    8  A    between atoms: C_19  and  C_20
REMARK                            x       y       z     vdW  Elec       q    Type
REMARK                         _______ _______ _______ _____ _____    ______ ____
ROOT
ATOM      1  S   UNL     1       0.506   9.582  20.828  0.00  0.00    +0.000 S 
ATOM      2  O   UNL     1      -0.785   8.968  21.054  0.00  0.00    +0.000 OA
ATOM      3  O   UNL     1       1.325  10.051  21.920  0.00  0.00    +0.000 OA
ENDROOT
BRANCH   1   7
ATOM      4  C   UNL     1       3.145   6.755  18.448  0.00  0.00    +0.000 A 
ATOM      5  C   UNL     1       2.799   7.999  17.914  0.00  0.00    +0.000 A 
ATOM      6  C   UNL     1       1.982   8.852  18.651  0.00  0.00    +0.000 A 
ATOM      7  C   UNL     1       1.515   8.448  19.907  0.00  0.00    +0.000 A 
ATOM      8  C   UNL     1       1.860   7.206  20.445  0.00  0.00    +0.000 A 
ATOM      9  C   UNL     1       2.676   6.349  19.706  0.00  0.00    +0.000 A 
BRANCH   4  10
ATOM     10  S   UNL     1       4.143   5.633  17.493  0.00  0.00    +0.000 S 
ATOM     11  O   UNL     1       4.650   6.371  16.350  0.00  0.00    +0.000 OA
ATOM     12  O   UNL     1       3.332   4.443  17.319  0.00  0.00    +0.000 OA
BRANCH  10  13
ATOM     13  C   UNL     1       5.521   5.255  18.563  0.00  0.00    +0.000 C 
BRANCH  13  15
ATOM     14  C   UNL     1       7.867   5.947  19.102  0.00  0.00    +0.000 C 
ATOM     15  C   UNL     1       6.886   5.631  17.969  0.00  0.00    +0.000 C 
ATOM     16  C   UNL     1       7.475   4.531  17.085  0.00  0.00    +0.000 C 
ENDBRANCH  13  15
ENDBRANCH  10  13
ENDBRANCH   4  10
ENDBRANCH   1   7
BRANCH   1  17
ATOM     17  N   UNL     1       0.288  10.875  19.699  0.00  0.00    +0.000 NA
ATOM     18  C   UNL     1      -1.103  10.981  19.171  0.00  0.00    +0.000 C 
ATOM     19  C   UNL     1      -1.211  12.110  18.147  0.00  0.00    +0.000 C 
ATOM     20  C   UNL     1      -0.738  13.439  18.732  0.00  0.00    +0.000 C 
ATOM     21  C   UNL     1       0.701  13.295  19.226  0.00  0.00    +0.000 C 
ATOM     22  C   UNL     1       0.796  12.166  20.257  0.00  0.00    +0.000 C 
BRANCH  21  23
ATOM     23  C   UNL     1       1.211  14.573  19.883  0.00  0.00    +0.000 C 
ATOM     24  O   UNL     1       0.428  15.318  20.476  0.00  0.00    +0.000 OA
ATOM     25  N   UNL     1       2.562  14.874  19.801  0.00  0.00    +0.000 N 
ATOM     26  C   UNL     1       3.107  15.885  20.711  0.00  0.00    +0.000 C 
ATOM     27  C   UNL     1       3.871  16.949  19.948  0.00  0.00    +0.000 C 
ATOM     28  C   UNL     1       4.910  16.291  19.064  0.00  0.00    +0.000 C 
ATOM     29  F   UNL     1       5.535  17.239  18.320  0.00  0.00    +0.000 F 
ATOM     30  F   UNL     1       5.869  15.723  19.841  0.00  0.00    +0.000 F 
ATOM     31  C   UNL     1       4.325  15.236  18.146  0.00  0.00    +0.000 C 
ATOM     32  C   UNL     1       3.549  14.206  18.954  0.00  0.00    +0.000 C 
ENDBRANCH  21  23
ENDBRANCH   1  17
TORSDOF 6
ENDMDL
MODEL 9
REMARK VINA RESULT:      -7.2      1.000      1.548
REMARK  Name = 
REMARK  8 active torsions:
REMARK  status: ('A' for Active; 'I' for Inactive)
REMARK    1  A    between atoms: C_1  and  C_2
REMARK    2  A    between atoms: C_2  and  C_3
REMARK    3  A    between atoms: C_2  and  C_4
REMARK    4  A    between atoms: C_4  and  S_5
REMARK    5  A    between atoms: S_5  and  C_8
REMARK    6  A    between atoms: C_11  and  S_12
REMARK    7  A    between atoms: S_12  and  N_15
REMARK    8  A    between atoms: C_19  and  C_20
REMARK                            x       y       z     vdW  Elec       q    Type
REMARK                         _______ _______ _______ _____ _____    ______ ____
ROOT
ATOM      1  S   UNL     1       0.741   8.421  21.242  0.00  0.00    +0.000 S 
ATOM      2  O   UNL     1      -0.576   7.853  21.439  0.00  0.00    +0.000 OA
ATOM      3  O   UNL     1       1.583   8.787  22.355  0.00  0.00    +0.000 OA
ENDROOT
BRANCH   1   7
ATOM      4  C   UNL     1       3.247   5.621  18.692  0.00  0.00    +0.000 A 
ATOM      5  C   UNL     1       3.044   6.941  18.282  0.00  0.00    +0.000 A 
ATOM      6  C   UNL     1       2.266   7.786  19.069  0.00  0.00    +0.000 A 
ATOM      7  C   UNL     1       1.694   7.299  20.250  0.00  0.00    +0.000 A 
ATOM      8  C   UNL     1       1.897   5.980  20.665  0.00  0.00    +0.000 A 
ATOM      9  C   UNL     1       2.673   5.131  19.875  0.00  0.00    +0.000 A 
BRANCH   4  10
ATOM     10  S   UNL     1       4.192   4.516  17.667  0.00  0.00    +0.000 S 
ATOM     11  O   UNL     1       4.364   5.161  16.378  0.00  0.00    +0.000 OA
ATOM     12  O   UNL     1       3.540   3.225  17.781  0.00  0.00    +0.000 OA
BRANCH  10  13
ATOM     13  C   UNL     1       5.789   4.440  18.465  0.00  0.00    +0.000 C 
BRANCH  13  15
ATOM     14  C   UNL     1       7.638   5.707  19.581  0.00  0.00    +0.000 C 
ATOM     15  C   UNL     1       6.493   5.801  18.569  0.00  0.00    +0.000 C 
ATOM     16  C   UNL     1       7.044   6.291  17.229  0.00  0.00    +0.000 C 
ENDBRANCH  13  15
ENDBRANCH  10  13
ENDBRANCH   4  10
ENDBRANCH   1   7
BRANCH   1  17
ATOM     17  N   UNL     1       0.578   9.786  20.193  0.00  0.00    +0.000 NA
ATOM     18  C   UNL     1      -0.825  10.042  19.754  0.00  0.00    +0.000 C 
ATOM     19  C   UNL     1      -0.887  11.229  18.796  0.00  0.00    +0.000 C 
ATOM     20  C   UNL     1      -0.264  12.479  19.414  0.00  0.00    +0.000 C 
ATOM     21  C   UNL     1       1.181  12.183  19.813  0.00  0.00    +0.000 C 
ATOM     22  C   UNL     1       1.231  10.996  20.781  0.00  0.00    +0.000 C 
BRANCH  21  23
ATOM     23  C   UNL     1       1.840  13.374  20.500  0.00  0.00    +0.000 C 
ATOM     24  O   UNL     1       1.432  13.758  21.598  0.00  0.00    +0.000 OA
ATOM     25  N   UNL     1       2.899  14.009  19.868  0.00  0.00    +0.000 N 
ATOM     26  C   UNL     1       3.750  14.901  20.660  0.00  0.00    +0.000 C 
ATOM     27  C   UNL     1       3.878  16.260  19.998  0.00  0.00    +0.000 C 
ATOM     28  C   UNL     1       4.336  16.083  18.566  0.00  0.00    +0.000 C 
ATOM     29  F   UNL     1       4.370  17.293  17.951  0.00  0.00    +0.000 F 
ATOM     30  F   UNL     1       5.612  15.614  18.554  0.00  0.00    +0.000 F 
ATOM     31  C   UNL     1       3.453  15.140  17.772  0.00  0.00    +0.000 C 
ATOM     32  C   UNL     1       3.335  13.801  18.488  0.00  0.00    +0.000 C 
ENDBRANCH  21  23
ENDBRANCH   1  17
TORSDOF 6
ENDMDL
