MODEL 1
REMARK VINA RESULT:      -7.0      0.000      0.000
REMARK  Name = 
REMARK  13 active torsions:
REMARK  status: ('A' for Active; 'I' for Inactive)
REMARK    1  A    between atoms: C_2  and  C_3
REMARK    2  A    between atoms: C_3  and  C_4
REMARK    3  A    between atoms: C_7  and  O_8
REMARK    4  A    between atoms: C_9  and  C_10
REMARK    5  A    between atoms: C_12  and  C_13
REMARK    6  A    between atoms: C_13  and  C_15
REMARK    7  A    between atoms: C_19  and  O_20
REMARK    8  A    between atoms: O_20  and  C_21
REMARK    9  A    between atoms: C_23  and  C_24
REMARK   10  A    between atoms: C_24  and  O_25
REMARK   11  A    between atoms: C_26  and  O_27
REMARK   12  A    between atoms: C_28  and  O_29
REMARK   13  A    between atoms: C_30  and  O_31
REMARK                            x       y       z     vdW  Elec       q    Type
REMARK                         _______ _______ _______ _____ _____    ______ ____
ROOT
ATOM      1  C   UNL     1       6.354   5.364  16.195  0.00  0.00    +0.000 A 
ATOM      2  C   UNL     1       6.907   5.062  14.924  0.00  0.00    +0.000 A 
ATOM      3  C   UNL     1       6.221   4.291  13.970  0.00  0.00    +0.000 A 
ATOM      4  C   UNL     1       4.993   3.728  14.301  0.00  0.00    +0.000 A 
ATOM      5  C   UNL     1       4.410   4.022  15.529  0.00  0.00    +0.000 A 
ATOM      6  C   UNL     1       5.041   4.878  16.444  0.00  0.00    +0.000 A 
ENDROOT
BRANCH   1  11
ATOM      7  C   UNL     1       7.978   8.397  17.934  0.00  0.00    +0.000 A 
ATOM      8  C   UNL     1       8.534   7.809  19.071  0.00  0.00    +0.000 A 
ATOM      9  C   UNL     1       8.434   6.436  19.264  0.00  0.00    +0.000 A 
ATOM     10  C   UNL     1       7.793   5.641  18.308  0.00  0.00    +0.000 A 
ATOM     11  C   UNL     1       7.138   6.187  17.183  0.00  0.00    +0.000 A 
ATOM     12  C   UNL     1       7.269   7.587  17.019  0.00  0.00    +0.000 A 
BRANCH  10  13
ATOM     13  O   UNL     1       7.903   4.282  18.468  0.00  0.00    +0.000 OA
ATOM     14  H   UNL     1       8.673   3.974  17.963  0.00  0.00    +0.000 HD
ENDBRANCH  10  13
BRANCH   7  15
ATOM     15  C   UNL     1       8.174   9.876  17.680  0.00  0.00    +0.000 C 
BRANCH  15  17
ATOM     16  C   UNL     1      10.204  11.316  18.063  0.00  0.00    +0.000 C 
ATOM     17  C   UNL     1       9.273  10.469  18.520  0.00  0.00    +0.000 C 
ENDBRANCH  15  17
ENDBRANCH   7  15
ENDBRANCH   1  11
BRANCH   3  18
ATOM     18  C   UNL     1       6.842   4.076  12.629  0.00  0.00    +0.000 C 
ATOM     19  O   UNL     1       7.662   4.871  12.200  0.00  0.00    +0.000 OA
BRANCH  18  20
ATOM     20  C   UNL     1       6.384   2.905  11.825  0.00  0.00    +0.000 C 
ATOM     21  C   UNL     1       7.266   2.049  11.294  0.00  0.00    +0.000 C 
ENDBRANCH  18  20
ENDBRANCH   3  18
BRANCH   6  22
ATOM     22  O   UNL     1       4.430   5.254  17.615  0.00  0.00    +0.000 OA
BRANCH  22  23
ATOM     23  C   UNL     1       3.677   4.283  18.341  0.00  0.00    +0.000 C 
ATOM     24  O   UNL     1       2.639   4.936  19.068  0.00  0.00    +0.000 OA
ATOM     25  C   UNL     1       1.849   4.062  19.873  0.00  0.00    +0.000 C 
ATOM     26  C   UNL     1       2.714   3.336  20.911  0.00  0.00    +0.000 C 
ATOM     27  C   UNL     1       3.868   2.599  20.207  0.00  0.00    +0.000 C 
ATOM     28  C   UNL     1       4.655   3.545  19.287  0.00  0.00    +0.000 C 
BRANCH  26  29
ATOM     29  O   UNL     1       1.907   2.424  21.664  0.00  0.00    +0.000 OA
ATOM     30  H   UNL     1       1.004   2.776  21.733  0.00  0.00    +0.000 HD
ENDBRANCH  26  29
BRANCH  27  31
ATOM     31  O   UNL     1       4.728   1.980  21.171  0.00  0.00    +0.000 OA
ATOM     32  H   UNL     1       4.668   2.483  22.004  0.00  0.00    +0.000 HD
ENDBRANCH  27  31
BRANCH  28  33
ATOM     33  O   UNL     1       5.649   2.803  18.549  0.00  0.00    +0.000 OA
ATOM     34  H   UNL     1       6.396   2.604  19.136  0.00  0.00    +0.000 HD
ENDBRANCH  28  33
BRANCH  25  35
ATOM     35  C   UNL     1       0.754   4.913  20.535  0.00  0.00    +0.000 C 
BRANCH  35  36
ATOM     36  O   UNL     1       1.235   6.210  20.882  0.00  0.00    +0.000 OA
ATOM     37  H   UNL     1       0.674   6.521  21.617  0.00  0.00    +0.000 HD
ENDBRANCH  35  36
ENDBRANCH  25  35
ENDBRANCH  22  23
ENDBRANCH   6  22
TORSDOF 13
ENDMDL
MODEL 2
REMARK VINA RESULT:      -7.0      1.003      2.162
REMARK  Name = 
REMARK  13 active torsions:
REMARK  status: ('A' for Active; 'I' for Inactive)
REMARK    1  A    between atoms: C_2  and  C_3
REMARK    2  A    between atoms: C_3  and  C_4
REMARK    3  A    between atoms: C_7  and  O_8
REMARK    4  A    between atoms: C_9  and  C_10
REMARK    5  A    between atoms: C_12  and  C_13
REMARK    6  A    between atoms: C_13  and  C_15
REMARK    7  A    between atoms: C_19  and  O_20
REMARK    8  A    between atoms: O_20  and  C_21
REMARK    9  A    between atoms: C_23  and  C_24
REMARK   10  A    between atoms: C_24  and  O_25
REMARK   11  A    between atoms: C_26  and  O_27
REMARK   12  A    between atoms: C_28  and  O_29
REMARK   13  A    between atoms: C_30  and  O_31
REMARK                            x       y       z     vdW  Elec       q    Type
REMARK                         _______ _______ _______ _____ _____    ______ ____
ROOT
ATOM      1  C   UNL     1       6.332   5.495  16.051  0.00  0.00    +0.000 A 
ATOM      2  C   UNL     1       6.972   5.046  14.868  0.00  0.00    +0.000 A 
ATOM      3  C   UNL     1       6.278   4.378  13.844  0.00  0.00    +0.000 A 
ATOM      4  C   UNL     1       4.934   4.067  14.021  0.00  0.00    +0.000 A 
ATOM      5  C   UNL     1       4.268   4.512  15.157  0.00  0.00    +0.000 A 
ATOM      6  C   UNL     1       4.930   5.272  16.134  0.00  0.00    +0.000 A 
ENDROOT
BRANCH   1  11
ATOM      7  C   UNL     1       8.127   8.282  18.017  0.00  0.00    +0.000 A 
ATOM      8  C   UNL     1       8.550   7.599  19.158  0.00  0.00    +0.000 A 
ATOM      9  C   UNL     1       8.305   6.237  19.283  0.00  0.00    +0.000 A 
ATOM     10  C   UNL     1       7.652   5.546  18.257  0.00  0.00    +0.000 A 
ATOM     11  C   UNL     1       7.127   6.198  17.119  0.00  0.00    +0.000 A 
ATOM     12  C   UNL     1       7.404   7.583  17.026  0.00  0.00    +0.000 A 
BRANCH  10  13
ATOM     13  O   UNL     1       7.619   4.179  18.361  0.00  0.00    +0.000 OA
ATOM     14  H   UNL     1       8.361   3.894  18.920  0.00  0.00    +0.000 HD
ENDBRANCH  10  13
BRANCH   7  15
ATOM     15  C   UNL     1       8.483   9.743  17.842  0.00  0.00    +0.000 C 
BRANCH  15  17
ATOM     16  C   UNL     1      10.146  11.296  18.921  0.00  0.00    +0.000 C 
ATOM     17  C   UNL     1       9.257  10.297  19.007  0.00  0.00    +0.000 C 
ENDBRANCH  15  17
ENDBRANCH   7  15
ENDBRANCH   1  11
BRANCH   3  18
ATOM     18  C   UNL     1       7.010   3.997  12.599  0.00  0.00    +0.000 C 
ATOM     19  O   UNL     1       7.766   4.794  12.067  0.00  0.00    +0.000 OA
BRANCH  18  20
ATOM     20  C   UNL     1       6.740   2.653  12.012  0.00  0.00    +0.000 C 
ATOM     21  C   UNL     1       5.593   2.401  11.369  0.00  0.00    +0.000 C 
ENDBRANCH  18  20
ENDBRANCH   3  18
BRANCH   6  22
ATOM     22  O   UNL     1       4.259   5.802  17.209  0.00  0.00    +0.000 OA
BRANCH  22  23
ATOM     23  C   UNL     1       4.053   4.986  18.361  0.00  0.00    +0.000 C 
ATOM     24  O   UNL     1       3.811   3.642  17.954  0.00  0.00    +0.000 OA
ATOM     25  C   UNL     1       3.542   2.743  19.029  0.00  0.00    +0.000 C 
ATOM     26  C   UNL     1       2.304   3.185  19.820  0.00  0.00    +0.000 C 
ATOM     27  C   UNL     1       2.482   4.637  20.302  0.00  0.00    +0.000 C 
ATOM     28  C   UNL     1       2.848   5.570  19.137  0.00  0.00    +0.000 C 
BRANCH  26  29
ATOM     29  O   UNL     1       2.092   2.301  20.926  0.00  0.00    +0.000 OA
ATOM     30  H   UNL     1       2.052   1.385  20.602  0.00  0.00    +0.000 HD
ENDBRANCH  26  29
BRANCH  27  31
ATOM     31  O   UNL     1       1.301   5.088  20.976  0.00  0.00    +0.000 OA
ATOM     32  H   UNL     1       0.524   4.777  20.475  0.00  0.00    +0.000 HD
ENDBRANCH  27  31
BRANCH  28  33
ATOM     33  O   UNL     1       3.128   6.895  19.635  0.00  0.00    +0.000 OA
ATOM     34  H   UNL     1       2.704   7.005  20.501  0.00  0.00    +0.000 HD
ENDBRANCH  28  33
BRANCH  25  35
ATOM     35  C   UNL     1       3.364   1.343  18.423  0.00  0.00    +0.000 C 
BRANCH  35  36
ATOM     36  O   UNL     1       4.505   0.520  18.658  0.00  0.00    +0.000 OA
ATOM     37  H   UNL     1       5.271   1.006  18.296  0.00  0.00    +0.000 HD
ENDBRANCH  35  36
ENDBRANCH  25  35
ENDBRANCH  22  23
ENDBRANCH   6  22
TORSDOF 13
ENDMDL
MODEL 3
REMARK VINA RESULT:      -6.8      8.772     13.314
REMARK  Name = 
REMARK  13 active torsions:
REMARK  status: ('A' for Active; 'I' for Inactive)
REMARK    1  A    between atoms: C_2  and  C_3
REMARK    2  A    between atoms: C_3  and  C_4
REMARK    3  A    between atoms: C_7  and  O_8
REMARK    4  A    between atoms: C_9  and  C_10
REMARK    5  A    between atoms: C_12  and  C_13
REMARK    6  A    between atoms: C_13  and  C_15
REMARK    7  A    between atoms: C_19  and  O_20
REMARK    8  A    between atoms: O_20  and  C_21
REMARK    9  A    between atoms: C_23  and  C_24
REMARK   10  A    between atoms: C_24  and  O_25
REMARK   11  A    between atoms: C_26  and  O_27
REMARK   12  A    between atoms: C_28  and  O_29
REMARK   13  A    between atoms: C_30  and  O_31
REMARK                            x       y       z     vdW  Elec       q    Type
REMARK                         _______ _______ _______ _____ _____    ______ ____
ROOT
ATOM      1  C   UNL     1      -1.300  12.211  22.607  0.00  0.00    +0.000 A 
ATOM      2  C   UNL     1      -2.639  12.080  23.058  0.00  0.00    +0.000 A 
ATOM      3  C   UNL     1      -3.297  13.100  23.766  0.00  0.00    +0.000 A 
ATOM      4  C   UNL     1      -2.598  14.250  24.116  0.00  0.00    +0.000 A 
ATOM      5  C   UNL     1      -1.292  14.424  23.670  0.00  0.00    +0.000 A 
ATOM      6  C   UNL     1      -0.664  13.455  22.872  0.00  0.00    +0.000 A 
ENDROOT
BRANCH   1  11
ATOM      7  C   UNL     1      -0.049   9.999  19.709  0.00  0.00    +0.000 A 
ATOM      8  C   UNL     1       0.669   9.015  20.391  0.00  0.00    +0.000 A 
ATOM      9  C   UNL     1       0.716   9.027  21.780  0.00  0.00    +0.000 A 
ATOM     10  C   UNL     1       0.029  10.013  22.495  0.00  0.00    +0.000 A 
ATOM     11  C   UNL     1      -0.641  11.082  21.861  0.00  0.00    +0.000 A 
ATOM     12  C   UNL     1      -0.673  11.029  20.446  0.00  0.00    +0.000 A 
BRANCH  10  13
ATOM     13  O   UNL     1      -0.039   9.849  23.856  0.00  0.00    +0.000 OA
ATOM     14  H   UNL     1       0.842  10.015  24.230  0.00  0.00    +0.000 HD
ENDBRANCH  10  13
BRANCH   7  15
ATOM     15  C   UNL     1      -0.180   9.925  18.203  0.00  0.00    +0.000 C 
BRANCH  15  17
ATOM     16  C   UNL     1      -2.563   9.824  17.395  0.00  0.00    +0.000 C 
ATOM     17  C   UNL     1      -1.464  10.527  17.701  0.00  0.00    +0.000 C 
ENDBRANCH  15  17
ENDBRANCH   7  15
ENDBRANCH   1  11
BRANCH   3  18
ATOM     18  C   UNL     1      -4.729  12.912  24.147  0.00  0.00    +0.000 C 
ATOM     19  O   UNL     1      -5.067  11.930  24.789  0.00  0.00    +0.000 OA
BRANCH  18  20
ATOM     20  C   UNL     1      -5.719  13.921  23.670  0.00  0.00    +0.000 C 
ATOM     21  C   UNL     1      -5.979  14.064  22.365  0.00  0.00    +0.000 C 
ENDBRANCH  18  20
ENDBRANCH   3  18
BRANCH   6  22
ATOM     22  O   UNL     1       0.587  13.660  22.344  0.00  0.00    +0.000 OA
BRANCH  22  23
ATOM     23  C   UNL     1       0.887  14.926  21.757  0.00  0.00    +0.000 C 
ATOM     24  O   UNL     1       0.195  15.049  20.517  0.00  0.00    +0.000 OA
ATOM     25  C   UNL     1       0.462  16.263  19.816  0.00  0.00    +0.000 C 
ATOM     26  C   UNL     1       1.956  16.395  19.492  0.00  0.00    +0.000 C 
ATOM     27  C   UNL     1       2.784  16.272  20.784  0.00  0.00    +0.000 C 
ATOM     28  C   UNL     1       2.421  14.996  21.560  0.00  0.00    +0.000 C 
BRANCH  26  29
ATOM     29  O   UNL     1       2.203  17.646  18.841  0.00  0.00    +0.000 OA
ATOM     30  H   UNL     1       2.983  18.068  19.242  0.00  0.00    +0.000 HD
ENDBRANCH  26  29
BRANCH  27  31
ATOM     31  O   UNL     1       4.184  16.317  20.486  0.00  0.00    +0.000 OA
ATOM     32  H   UNL     1       4.335  17.014  19.821  0.00  0.00    +0.000 HD
ENDBRANCH  27  31
BRANCH  28  33
ATOM     33  O   UNL     1       3.120  14.970  22.822  0.00  0.00    +0.000 OA
ATOM     34  H   UNL     1       4.077  14.973  22.654  0.00  0.00    +0.000 HD
ENDBRANCH  28  33
BRANCH  25  35
ATOM     35  C   UNL     1      -0.401  16.257  18.544  0.00  0.00    +0.000 C 
BRANCH  35  36
ATOM     36  O   UNL     1      -0.705  17.581  18.110  0.00  0.00    +0.000 OA
ATOM     37  H   UNL     1       0.098  17.913  17.666  0.00  0.00    +0.000 HD
ENDBRANCH  35  36
ENDBRANCH  25  35
ENDBRANCH  22  23
ENDBRANCH   6  22
TORSDOF 13
ENDMDL
MODEL 4
REMARK VINA RESULT:      -6.7      7.530     10.956
REMARK  Name = 
REMARK  13 active torsions:
REMARK  status: ('A' for Active; 'I' for Inactive)
REMARK    1  A    between atoms: C_2  and  C_3
REMARK    2  A    between atoms: C_3  and  C_4
REMARK    3  A    between atoms: C_7  and  O_8
REMARK    4  A    between atoms: C_9  and  C_10
REMARK    5  A    between atoms: C_12  and  C_13
REMARK    6  A    between atoms: C_13  and  C_15
REMARK    7  A    between atoms: C_19  and  O_20
REMARK    8  A    between atoms: O_20  and  C_21
REMARK    9  A    between atoms: C_23  and  C_24
REMARK   10  A    between atoms: C_24  and  O_25
REMARK   11  A    between atoms: C_26  and  O_27
REMARK   12  A    between atoms: C_28  and  O_29
REMARK   13  A    between atoms: C_30  and  O_31
REMARK                            x       y       z     vdW  Elec       q    Type
REMARK                         _______ _______ _______ _____ _____    ______ ____
ROOT
ATOM      1  C   UNL     1       0.697  12.246  19.730  0.00  0.00    +0.000 A 
ATOM      2  C   UNL     1       1.767  13.177  19.717  0.00  0.00    +0.000 A 
ATOM      3  C   UNL     1       1.570  14.543  19.449  0.00  0.00    +0.000 A 
ATOM      4  C   UNL     1       0.302  14.996  19.102  0.00  0.00    +0.000 A 
ATOM      5  C   UNL     1      -0.774  14.116  19.128  0.00  0.00    +0.000 A 
ATOM      6  C   UNL     1      -0.603  12.773  19.498  0.00  0.00    +0.000 A 
ENDROOT
BRANCH   1  11
ATOM      7  C   UNL     1       1.729   8.566  19.226  0.00  0.00    +0.000 A 
ATOM      8  C   UNL     1       1.582   8.050  20.515  0.00  0.00    +0.000 A 
ATOM      9  C   UNL     1       1.109   8.862  21.538  0.00  0.00    +0.000 A 
ATOM     10  C   UNL     1       0.760  10.190  21.274  0.00  0.00    +0.000 A 
ATOM     11  C   UNL     1       0.967  10.792  20.013  0.00  0.00    +0.000 A 
ATOM     12  C   UNL     1       1.443   9.930  18.995  0.00  0.00    +0.000 A 
BRANCH  10  13
ATOM     13  O   UNL     1       0.122  10.870  22.280  0.00  0.00    +0.000 OA
ATOM     14  H   UNL     1      -0.686  11.270  21.917  0.00  0.00    +0.000 HD
ENDBRANCH  10  13
BRANCH   7  15
ATOM     15  C   UNL     1       2.150   7.653  18.095  0.00  0.00    +0.000 C 
BRANCH  15  17
ATOM     16  C   UNL     1       2.350   5.151  17.893  0.00  0.00    +0.000 C 
ATOM     17  C   UNL     1       2.559   6.286  18.573  0.00  0.00    +0.000 C 
ENDBRANCH  15  17
ENDBRANCH   7  15
ENDBRANCH   1  11
BRANCH   3  18
ATOM     18  C   UNL     1       2.738  15.472  19.522  0.00  0.00    +0.000 C 
ATOM     19  O   UNL     1       3.387  15.560  20.552  0.00  0.00    +0.000 OA
BRANCH  18  20
ATOM     20  C   UNL     1       3.037  16.315  18.328  0.00  0.00    +0.000 C 
ATOM     21  C   UNL     1       3.554  15.776  17.218  0.00  0.00    +0.000 C 
ENDBRANCH  18  20
ENDBRANCH   3  18
BRANCH   6  22
ATOM     22  O   UNL     1      -1.672  11.921  19.624  0.00  0.00    +0.000 OA
BRANCH  22  23
ATOM     23  C   UNL     1      -2.901  12.259  18.984  0.00  0.00    +0.000 C 
ATOM     24  O   UNL     1      -3.983  12.026  19.881  0.00  0.00    +0.000 OA
ATOM     25  C   UNL     1      -5.272  12.286  19.326  0.00  0.00    +0.000 C 
ATOM     26  C   UNL     1      -5.531  11.404  18.098  0.00  0.00    +0.000 C 
ATOM     27  C   UNL     1      -4.402  11.595  17.069  0.00  0.00    +0.000 C 
ATOM     28  C   UNL     1      -3.021  11.386  17.711  0.00  0.00    +0.000 C 
BRANCH  26  29
ATOM     29  O   UNL     1      -6.804  11.726  17.527  0.00  0.00    +0.000 OA
ATOM     30  H   UNL     1      -6.790  11.523  16.577  0.00  0.00    +0.000 HD
ENDBRANCH  26  29
BRANCH  27  31
ATOM     31  O   UNL     1      -4.590  10.719  15.951  0.00  0.00    +0.000 OA
ATOM     32  H   UNL     1      -4.839  11.258  15.178  0.00  0.00    +0.000 HD
ENDBRANCH  27  31
BRANCH  28  33
ATOM     33  O   UNL     1      -1.982  11.690  16.758  0.00  0.00    +0.000 OA
ATOM     34  H   UNL     1      -1.989  11.020  16.056  0.00  0.00    +0.000 HD
ENDBRANCH  28  33
BRANCH  25  35
ATOM     35  C   UNL     1      -6.307  12.042  20.436  0.00  0.00    +0.000 C 
BRANCH  35  36
ATOM     36  O   UNL     1      -6.784  10.698  20.421  0.00  0.00    +0.000 OA
ATOM     37  H   UNL     1      -6.129  10.170  20.915  0.00  0.00    +0.000 HD
ENDBRANCH  35  36
ENDBRANCH  25  35
ENDBRANCH  22  23
ENDBRANCH   6  22
TORSDOF 13
ENDMDL
MODEL 5
REMARK VINA RESULT:      -6.6      3.064      6.145
REMARK  Name = 
REMARK  13 active torsions:
REMARK  status: ('A' for Active; 'I' for Inactive)
REMARK    1  A    between atoms: C_2  and  C_3
REMARK    2  A    between atoms: C_3  and  C_4
REMARK    3  A    between atoms: C_7  and  O_8
REMARK    4  A    between atoms: C_9  and  C_10
REMARK    5  A    between atoms: C_12  and  C_13
REMARK    6  A    between atoms: C_13  and  C_15
REMARK    7  A    between atoms: C_19  and  O_20
REMARK    8  A    between atoms: O_20  and  C_21
REMARK    9  A    between atoms: C_23  and  C_24
REMARK   10  A    between atoms: C_24  and  O_25
REMARK   11  A    between atoms: C_26  and  O_27
REMARK   12  A    between atoms: C_28  and  O_29
REMARK   13  A    between atoms: C_30  and  O_31
REMARK                            x       y       z     vdW  Elec       q    Type
REMARK                         _______ _______ _______ _____ _____    ______ ____
ROOT
ATOM      1  C   UNL     1       3.946   4.814  17.477  0.00  0.00    +0.000 A 
ATOM      2  C   UNL     1       4.535   4.245  16.318  0.00  0.00    +0.000 A 
ATOM      3  C   UNL     1       5.292   5.004  15.409  0.00  0.00    +0.000 A 
ATOM      4  C   UNL     1       5.407   6.378  15.596  0.00  0.00    +0.000 A 
ATOM      5  C   UNL     1       4.863   6.966  16.732  0.00  0.00    +0.000 A 
ATOM      6  C   UNL     1       4.197   6.196  17.698  0.00  0.00    +0.000 A 
ENDROOT
BRANCH   1  11
ATOM      7  C   UNL     1       3.022   2.494  20.413  0.00  0.00    +0.000 A 
ATOM      8  C   UNL     1       1.638   2.388  20.267  0.00  0.00    +0.000 A 
ATOM      9  C   UNL     1       1.001   3.016  19.204  0.00  0.00    +0.000 A 
ATOM     10  C   UNL     1       1.748   3.740  18.269  0.00  0.00    +0.000 A 
ATOM     11  C   UNL     1       3.137   3.954  18.411  0.00  0.00    +0.000 A 
ATOM     12  C   UNL     1       3.749   3.291  19.502  0.00  0.00    +0.000 A 
BRANCH  10  13
ATOM     13  O   UNL     1       1.082   4.166  17.148  0.00  0.00    +0.000 OA
ATOM     14  H   UNL     1       0.472   3.464  16.867  0.00  0.00    +0.000 HD
ENDBRANCH  10  13
BRANCH   7  15
ATOM     15  C   UNL     1       3.722   1.728  21.514  0.00  0.00    +0.000 C 
BRANCH  15  17
ATOM     16  C   UNL     1       5.868   0.455  21.860  0.00  0.00    +0.000 C 
ATOM     17  C   UNL     1       5.087   1.243  21.108  0.00  0.00    +0.000 C 
ENDBRANCH  15  17
ENDBRANCH   7  15
ENDBRANCH   1  11
BRANCH   3  18
ATOM     18  C   UNL     1       5.937   4.317  14.250  0.00  0.00    +0.000 C 
ATOM     19  O   UNL     1       7.152   4.219  14.196  0.00  0.00    +0.000 OA
BRANCH  18  20
ATOM     20  C   UNL     1       5.056   3.819  13.154  0.00  0.00    +0.000 C 
ATOM     21  C   UNL     1       5.568   3.158  12.108  0.00  0.00    +0.000 C 
ENDBRANCH  18  20
ENDBRANCH   3  18
BRANCH   6  22
ATOM     22  O   UNL     1       3.744   6.749  18.871  0.00  0.00    +0.000 OA
BRANCH  22  23
ATOM     23  C   UNL     1       2.500   7.447  18.867  0.00  0.00    +0.000 C 
ATOM     24  O   UNL     1       2.694   8.760  18.350  0.00  0.00    +0.000 OA
ATOM     25  C   UNL     1       1.518   9.568  18.346  0.00  0.00    +0.000 C 
ATOM     26  C   UNL     1       0.963   9.741  19.765  0.00  0.00    +0.000 C 
ATOM     27  C   UNL     1       0.722   8.361  20.404  0.00  0.00    +0.000 C 
ATOM     28  C   UNL     1       1.981   7.483  20.325  0.00  0.00    +0.000 C 
BRANCH  26  29
ATOM     29  O   UNL     1      -0.247  10.505  19.725  0.00  0.00    +0.000 OA
ATOM     30  H   UNL     1      -0.995   9.913  19.539  0.00  0.00    +0.000 HD
ENDBRANCH  26  29
BRANCH  27  31
ATOM     31  O   UNL     1       0.277   8.507  21.758  0.00  0.00    +0.000 OA
ATOM     32  H   UNL     1       0.127   9.455  21.931  0.00  0.00    +0.000 HD
ENDBRANCH  27  31
BRANCH  28  33
ATOM     33  O   UNL     1       1.690   6.158  20.819  0.00  0.00    +0.000 OA
ATOM     34  H   UNL     1       2.448   5.839  21.335  0.00  0.00    +0.000 HD
ENDBRANCH  28  33
BRANCH  25  35
ATOM     35  C   UNL     1       1.890  10.916  17.708  0.00  0.00    +0.000 C 
BRANCH  35  36
ATOM     36  O   UNL     1       1.980  11.951  18.685  0.00  0.00    +0.000 OA
ATOM     37  H   UNL     1       2.676  11.676  19.311  0.00  0.00    +0.000 HD
ENDBRANCH  35  36
ENDBRANCH  25  35
ENDBRANCH  22  23
ENDBRANCH   6  22
TORSDOF 13
ENDMDL
MODEL 6
REMARK VINA RESULT:      -6.6      3.159      6.840
REMARK  Name = 
REMARK  13 active torsions:
REMARK  status: ('A' for Active; 'I' for Inactive)
REMARK    1  A    between atoms: C_2  and  C_3
REMARK    2  A    between atoms: C_3  and  C_4
REMARK    3  A    between atoms: C_7  and  O_8
REMARK    4  A    between atoms: C_9  and  C_10
REMARK    5  A    between atoms: C_12  and  C_13
REMARK    6  A    between atoms: C_13  and  C_15
REMARK    7  A    between atoms: C_19  and  O_20
REMARK    8  A    between atoms: O_20  and  C_21
REMARK    9  A    between atoms: C_23  and  C_24
REMARK   10  A    between atoms: C_24  and  O_25
REMARK   11  A    between atoms: C_26  and  O_27
REMARK   12  A    between atoms: C_28  and  O_29
REMARK   13  A    between atoms: C_30  and  O_31
REMARK                            x       y       z     vdW  Elec       q    Type
REMARK                         _______ _______ _______ _____ _____    ______ ____
ROOT
ATOM      1  C   UNL     1       3.553   5.368  19.054  0.00  0.00    +0.000 A 
ATOM      2  C   UNL     1       3.182   4.097  19.562  0.00  0.00    +0.000 A 
ATOM      3  C   UNL     1       2.084   3.922  20.423  0.00  0.00    +0.000 A 
ATOM      4  C   UNL     1       1.378   5.036  20.865  0.00  0.00    +0.000 A 
ATOM      5  C   UNL     1       1.699   6.295  20.369  0.00  0.00    +0.000 A 
ATOM      6  C   UNL     1       2.726   6.463  19.427  0.00  0.00    +0.000 A 
ENDROOT
BRANCH   1  11
ATOM      7  C   UNL     1       5.689   5.520  15.849  0.00  0.00    +0.000 A 
ATOM      8  C   UNL     1       6.951   5.825  16.362  0.00  0.00    +0.000 A 
ATOM      9  C   UNL     1       7.134   5.937  17.735  0.00  0.00    +0.000 A 
ATOM     10  C   UNL     1       6.059   5.724  18.604  0.00  0.00    +0.000 A 
ATOM     11  C   UNL     1       4.744   5.497  18.143  0.00  0.00    +0.000 A 
ATOM     12  C   UNL     1       4.601   5.383  16.738  0.00  0.00    +0.000 A 
BRANCH  10  13
ATOM     13  O   UNL     1       6.355   5.658  19.943  0.00  0.00    +0.000 OA
ATOM     14  H   UNL     1       7.293   5.425  20.039  0.00  0.00    +0.000 HD
ENDBRANCH  10  13
BRANCH   7  15
ATOM     15  C   UNL     1       5.516   5.303  14.362  0.00  0.00    +0.000 C 
BRANCH  15  17
ATOM     16  C   UNL     1       5.991   3.519  12.649  0.00  0.00    +0.000 C 
ATOM     17  C   UNL     1       6.128   4.014  13.887  0.00  0.00    +0.000 C 
ENDBRANCH  15  17
ENDBRANCH   7  15
ENDBRANCH   1  11
BRANCH   3  18
ATOM     18  C   UNL     1       1.717   2.542  20.860  0.00  0.00    +0.000 C 
ATOM     19  O   UNL     1       1.862   2.210  22.026  0.00  0.00    +0.000 OA
BRANCH  18  20
ATOM     20  C   UNL     1       1.231   1.585  19.823  0.00  0.00    +0.000 C 
ATOM     21  C   UNL     1       0.665   2.025  18.693  0.00  0.00    +0.000 C 
ENDBRANCH  18  20
ENDBRANCH   3  18
BRANCH   6  22
ATOM     22  O   UNL     1       2.984   7.685  18.856  0.00  0.00    +0.000 OA
BRANCH  22  23
ATOM     23  C   UNL     1       2.302   8.835  19.353  0.00  0.00    +0.000 C 
ATOM     24  O   UNL     1       1.630   8.501  20.564  0.00  0.00    +0.000 OA
ATOM     25  C   UNL     1       0.870   9.570  21.127  0.00  0.00    +0.000 C 
ATOM     26  C   UNL     1      -0.211  10.051  20.151  0.00  0.00    +0.000 C 
ATOM     27  C   UNL     1       0.431  10.434  18.806  0.00  0.00    +0.000 C 
ATOM     28  C   UNL     1       1.306   9.295  18.261  0.00  0.00    +0.000 C 
BRANCH  26  29
ATOM     29  O   UNL     1      -0.918  11.160  20.717  0.00  0.00    +0.000 OA
ATOM     30  H   UNL     1      -1.757  10.846  21.096  0.00  0.00    +0.000 HD
ENDBRANCH  26  29
BRANCH  27  31
ATOM     31  O   UNL     1      -0.576  10.812  17.860  0.00  0.00    +0.000 OA
ATOM     32  H   UNL     1      -1.438  10.819  18.316  0.00  0.00    +0.000 HD
ENDBRANCH  27  31
BRANCH  28  33
ATOM     33  O   UNL     1       1.991   9.727  17.066  0.00  0.00    +0.000 OA
ATOM     34  H   UNL     1       1.334   9.962  16.391  0.00  0.00    +0.000 HD
ENDBRANCH  28  33
BRANCH  25  35
ATOM     35  C   UNL     1       0.267   9.059  22.445  0.00  0.00    +0.000 C 
BRANCH  35  36
ATOM     36  O   UNL     1       0.097  10.116  23.388  0.00  0.00    +0.000 OA
ATOM     37  H   UNL     1      -0.651   9.855  23.958  0.00  0.00    +0.000 HD
ENDBRANCH  35  36
ENDBRANCH  25  35
ENDBRANCH  22  23
ENDBRANCH   6  22
TORSDOF 13
ENDMDL
MODEL 7
REMARK VINA RESULT:      -6.6      8.679     13.089
REMARK  Name = 
REMARK  13 active torsions:
REMARK  status: ('A' for Active; 'I' for Inactive)
REMARK    1  A    between atoms: C_2  and  C_3
REMARK    2  A    between atoms: C_3  and  C_4
REMARK    3  A    between atoms: C_7  and  O_8
REMARK    4  A    between atoms: C_9  and  C_10
REMARK    5  A    between atoms: C_12  and  C_13
REMARK    6  A    between atoms: C_13  and  C_15
REMARK    7  A    between atoms: C_19  and  O_20
REMARK    8  A    between atoms: O_20  and  C_21
REMARK    9  A    between atoms: C_23  and  C_24
REMARK   10  A    between atoms: C_24  and  O_25
REMARK   11  A    between atoms: C_26  and  O_27
REMARK   12  A    between atoms: C_28  and  O_29
REMARK   13  A    between atoms: C_30  and  O_31
REMARK                            x       y       z     vdW  Elec       q    Type
REMARK                         _______ _______ _______ _____ _____    ______ ____
ROOT
ATOM      1  C   UNL     1      -1.223  12.128  22.621  0.00  0.00    +0.000 A 
ATOM      2  C   UNL     1      -2.565  11.956  23.047  0.00  0.00    +0.000 A 
ATOM      3  C   UNL     1      -3.291  12.980  23.679  0.00  0.00    +0.000 A 
ATOM      4  C   UNL     1      -2.657  14.182  23.978  0.00  0.00    +0.000 A 
ATOM      5  C   UNL     1      -1.350  14.394  23.555  0.00  0.00    +0.000 A 
ATOM      6  C   UNL     1      -0.655  13.414  22.830  0.00  0.00    +0.000 A 
ENDROOT
BRANCH   1  11
ATOM      7  C   UNL     1       0.380   9.925  19.894  0.00  0.00    +0.000 A 
ATOM      8  C   UNL     1       0.968   8.913  20.654  0.00  0.00    +0.000 A 
ATOM      9  C   UNL     1       0.815   8.904  22.036  0.00  0.00    +0.000 A 
ATOM     10  C   UNL     1       0.056   9.897  22.662  0.00  0.00    +0.000 A 
ATOM     11  C   UNL     1      -0.490  10.992  21.958  0.00  0.00    +0.000 A 
ATOM     12  C   UNL     1      -0.319  10.961  20.552  0.00  0.00    +0.000 A 
BRANCH  10  13
ATOM     13  O   UNL     1      -0.211   9.716  23.996  0.00  0.00    +0.000 OA
ATOM     14  H   UNL     1       0.312   8.962  24.315  0.00  0.00    +0.000 HD
ENDBRANCH  10  13
BRANCH   7  15
ATOM     15  C   UNL     1       0.466   9.877  18.384  0.00  0.00    +0.000 C 
BRANCH  15  17
ATOM     16  C   UNL     1       2.375   8.404  17.655  0.00  0.00    +0.000 C 
ATOM     17  C   UNL     1       1.864   9.620  17.889  0.00  0.00    +0.000 C 
ENDBRANCH  15  17
ENDBRANCH   7  15
ENDBRANCH   1  11
BRANCH   3  18
ATOM     18  C   UNL     1      -4.722  12.743  24.035  0.00  0.00    +0.000 C 
ATOM     19  O   UNL     1      -5.009  11.950  24.917  0.00  0.00    +0.000 OA
BRANCH  18  20
ATOM     20  C   UNL     1      -5.767  13.455  23.244  0.00  0.00    +0.000 C 
ATOM     21  C   UNL     1      -6.766  12.781  22.662  0.00  0.00    +0.000 C 
ENDBRANCH  18  20
ENDBRANCH   3  18
BRANCH   6  22
ATOM     22  O   UNL     1       0.599  13.652  22.321  0.00  0.00    +0.000 OA
BRANCH  22  23
ATOM     23  C   UNL     1       0.940  14.978  21.921  0.00  0.00    +0.000 C 
ATOM     24  O   UNL     1       0.067  15.397  20.876  0.00  0.00    +0.000 OA
ATOM     25  C   UNL     1       0.350  16.699  20.363  0.00  0.00    +0.000 C 
ATOM     26  C   UNL     1       1.772  16.768  19.792  0.00  0.00    +0.000 C 
ATOM     27  C   UNL     1       2.787  16.328  20.863  0.00  0.00    +0.000 C 
ATOM     28  C   UNL     1       2.416  14.960  21.455  0.00  0.00    +0.000 C 
BRANCH  26  29
ATOM     29  O   UNL     1       2.049  18.098  19.339  0.00  0.00    +0.000 OA
ATOM     30  H   UNL     1       2.976  18.151  19.048  0.00  0.00    +0.000 HD
ENDBRANCH  26  29
BRANCH  27  31
ATOM     31  O   UNL     1       4.113  16.315  20.319  0.00  0.00    +0.000 OA
ATOM     32  H   UNL     1       4.516  17.189  20.471  0.00  0.00    +0.000 HD
ENDBRANCH  27  31
BRANCH  28  33
ATOM     33  O   UNL     1       3.311  14.630  22.537  0.00  0.00    +0.000 OA
ATOM     34  H   UNL     1       3.206  13.692  22.761  0.00  0.00    +0.000 HD
ENDBRANCH  28  33
BRANCH  25  35
ATOM     35  C   UNL     1      -0.711  17.012  19.296  0.00  0.00    +0.000 C 
BRANCH  35  36
ATOM     36  O   UNL     1      -0.197  16.836  17.978  0.00  0.00    +0.000 OA
ATOM     37  H   UNL     1       0.305  16.000  17.989  0.00  0.00    +0.000 HD
ENDBRANCH  35  36
ENDBRANCH  25  35
ENDBRANCH  22  23
ENDBRANCH   6  22
TORSDOF 13
ENDMDL
MODEL 8
REMARK VINA RESULT:      -6.5      6.724     10.096
REMARK  Name = 
REMARK  13 active torsions:
REMARK  status: ('A' for Active; 'I' for Inactive)
REMARK    1  A    between atoms: C_2  and  C_3
REMARK    2  A    between atoms: C_3  and  C_4
REMARK    3  A    between atoms: C_7  and  O_8
REMARK    4  A    between atoms: C_9  and  C_10
REMARK    5  A    between atoms: C_12  and  C_13
REMARK    6  A    between atoms: C_13  and  C_15
REMARK    7  A    between atoms: C_19  and  O_20
REMARK    8  A    between atoms: O_20  and  C_21
REMARK    9  A    between atoms: C_23  and  C_24
REMARK   10  A    between atoms: C_24  and  O_25
REMARK   11  A    between atoms: C_26  and  O_27
REMARK   12  A    between atoms: C_28  and  O_29
REMARK   13  A    between atoms: C_30  and  O_31
REMARK                            x       y       z     vdW  Elec       q    Type
REMARK                         _______ _______ _______ _____ _____    ______ ____
ROOT
ATOM      1  C   UNL     1       0.167  10.274  18.499  0.00  0.00    +0.000 A 
ATOM      2  C   UNL     1      -1.040  10.041  17.791  0.00  0.00    +0.000 A 
ATOM      3  C   UNL     1      -1.930  11.077  17.461  0.00  0.00    +0.000 A 
ATOM      4  C   UNL     1      -1.673  12.368  17.911  0.00  0.00    +0.000 A 
ATOM      5  C   UNL     1      -0.489  12.638  18.588  0.00  0.00    +0.000 A 
ATOM      6  C   UNL     1       0.455  11.627  18.827  0.00  0.00    +0.000 A 
ENDROOT
BRANCH   1  11
ATOM      7  C   UNL     1       2.880   7.557  18.158  0.00  0.00    +0.000 A 
ATOM      8  C   UNL     1       2.896   7.008  19.442  0.00  0.00    +0.000 A 
ATOM      9  C   UNL     1       2.008   7.469  20.406  0.00  0.00    +0.000 A 
ATOM     10  C   UNL     1       1.086   8.471  20.086  0.00  0.00    +0.000 A 
ATOM     11  C   UNL     1       1.079   9.124  18.834  0.00  0.00    +0.000 A 
ATOM     12  C   UNL     1       1.993   8.619  17.877  0.00  0.00    +0.000 A 
BRANCH  10  13
ATOM     13  O   UNL     1       0.120   8.738  21.023  0.00  0.00    +0.000 OA
ATOM     14  H   UNL     1       0.312   8.218  21.821  0.00  0.00    +0.000 HD
ENDBRANCH  10  13
BRANCH   7  15
ATOM     15  C   UNL     1       3.779   6.984  17.085  0.00  0.00    +0.000 C 
BRANCH  15  17
ATOM     16  C   UNL     1       5.131   4.869  16.877  0.00  0.00    +0.000 C 
ATOM     17  C   UNL     1       4.689   5.904  17.604  0.00  0.00    +0.000 C 
ENDBRANCH  15  17
ENDBRANCH   7  15
ENDBRANCH   1  11
BRANCH   3  18
ATOM     18  C   UNL     1      -3.146  10.760  16.653  0.00  0.00    +0.000 C 
ATOM     19  O   UNL     1      -4.223  11.250  16.951  0.00  0.00    +0.000 OA
BRANCH  18  20
ATOM     20  C   UNL     1      -3.005   9.792  15.526  0.00  0.00    +0.000 C 
ATOM     21  C   UNL     1      -3.410  10.112  14.292  0.00  0.00    +0.000 C 
ENDBRANCH  18  20
ENDBRANCH   3  18
BRANCH   6  22
ATOM     22  O   UNL     1       1.670  11.901  19.405  0.00  0.00    +0.000 OA
BRANCH  22  23
ATOM     23  C   UNL     1       2.081  13.262  19.531  0.00  0.00    +0.000 C 
ATOM     24  O   UNL     1       3.271  13.470  18.776  0.00  0.00    +0.000 OA
ATOM     25  C   UNL     1       3.801  14.792  18.870  0.00  0.00    +0.000 C 
ATOM     26  C   UNL     1       4.144  15.146  20.323  0.00  0.00    +0.000 C 
ATOM     27  C   UNL     1       2.905  14.947  21.216  0.00  0.00    +0.000 C 
ATOM     28  C   UNL     1       2.308  13.543  21.037  0.00  0.00    +0.000 C 
BRANCH  26  29
ATOM     29  O   UNL     1       4.618  16.495  20.396  0.00  0.00    +0.000 OA
ATOM     30  H   UNL     1       3.859  17.098  20.479  0.00  0.00    +0.000 HD
ENDBRANCH  26  29
BRANCH  27  31
ATOM     31  O   UNL     1       3.232  15.200  22.588  0.00  0.00    +0.000 OA
ATOM     32  H   UNL     1       2.715  15.969  22.890  0.00  0.00    +0.000 HD
ENDBRANCH  27  31
BRANCH  28  33
ATOM     33  O   UNL     1       1.082  13.428  21.789  0.00  0.00    +0.000 OA
ATOM     34  H   UNL     1       0.512  12.764  21.368  0.00  0.00    +0.000 HD
ENDBRANCH  28  33
BRANCH  25  35
ATOM     35  C   UNL     1       5.036  14.856  17.958  0.00  0.00    +0.000 C 
BRANCH  35  36
ATOM     36  O   UNL     1       6.247  14.817  18.711  0.00  0.00    +0.000 OA
ATOM     37  H   UNL     1       6.951  15.132  18.113  0.00  0.00    +0.000 HD
ENDBRANCH  35  36
ENDBRANCH  25  35
ENDBRANCH  22  23
ENDBRANCH   6  22
TORSDOF 13
ENDMDL
MODEL 9
REMARK VINA RESULT:      -6.4      1.134      1.516
REMARK  Name = 
REMARK  13 active torsions:
REMARK  status: ('A' for Active; 'I' for Inactive)
REMARK    1  A    between atoms: C_2  and  C_3
REMARK    2  A    between atoms: C_3  and  C_4
REMARK    3  A    between atoms: C_7  and  O_8
REMARK    4  A    between atoms: C_9  and  C_10
REMARK    5  A    between atoms: C_12  and  C_13
REMARK    6  A    between atoms: C_13  and  C_15
REMARK    7  A    between atoms: C_19  and  O_20
REMARK    8  A    between atoms: O_20  and  C_21
REMARK    9  A    between atoms: C_23  and  C_24
REMARK   10  A    between atoms: C_24  and  O_25
REMARK   11  A    between atoms: C_26  and  O_27
REMARK   12  A    between atoms: C_28  and  O_29
REMARK   13  A    between atoms: C_30  and  O_31
REMARK                            x       y       z     vdW  Elec       q    Type
REMARK                         _______ _______ _______ _____ _____    ______ ____
ROOT
ATOM      1  C   UNL     1       6.743   5.349  16.629  0.00  0.00    +0.000 A 
ATOM      2  C   UNL     1       7.069   5.238  15.253  0.00  0.00    +0.000 A 
ATOM      3  C   UNL     1       6.466   4.287  14.411  0.00  0.00    +0.000 A 
ATOM      4  C   UNL     1       5.579   3.362  14.951  0.00  0.00    +0.000 A 
ATOM      5  C   UNL     1       5.218   3.455  16.290  0.00  0.00    +0.000 A 
ATOM      6  C   UNL     1       5.735   4.469  17.111  0.00  0.00    +0.000 A 
ENDROOT
BRANCH   1  11
ATOM      7  C   UNL     1       8.091   8.739  17.873  0.00  0.00    +0.000 A 
ATOM      8  C   UNL     1       8.630   8.393  19.114  0.00  0.00    +0.000 A 
ATOM      9  C   UNL     1       8.607   7.069  19.536  0.00  0.00    +0.000 A 
ATOM     10  C   UNL     1       8.063   6.080  18.711  0.00  0.00    +0.000 A 
ATOM     11  C   UNL     1       7.427   6.380  17.486  0.00  0.00    +0.000 A 
ATOM     12  C   UNL     1       7.478   7.738  17.088  0.00  0.00    +0.000 A 
BRANCH  10  13
ATOM     13  O   UNL     1       8.250   4.780  19.106  0.00  0.00    +0.000 OA
ATOM     14  H   UNL     1       8.693   4.300  18.386  0.00  0.00    +0.000 HD
ENDBRANCH  10  13
BRANCH   7  15
ATOM     15  C   UNL     1       8.206  10.163  17.375  0.00  0.00    +0.000 C 
BRANCH  15  17
ATOM     16  C   UNL     1      10.280  11.496  17.887  0.00  0.00    +0.000 C 
ATOM     17  C   UNL     1       9.083  11.016  18.251  0.00  0.00    +0.000 C 
ENDBRANCH  15  17
ENDBRANCH   7  15
ENDBRANCH   1  11
BRANCH   3  18
ATOM     18  C   UNL     1       6.814   4.280  12.959  0.00  0.00    +0.000 C 
ATOM     19  O   UNL     1       7.589   5.109  12.511  0.00  0.00    +0.000 OA
BRANCH  18  20
ATOM     20  C   UNL     1       6.142   3.276  12.083  0.00  0.00    +0.000 C 
ATOM     21  C   UNL     1       4.886   3.464  11.660  0.00  0.00    +0.000 C 
ENDBRANCH  18  20
ENDBRANCH   3  18
BRANCH   6  22
ATOM     22  O   UNL     1       5.309   4.631  18.407  0.00  0.00    +0.000 OA
BRANCH  22  23
ATOM     23  C   UNL     1       3.909   4.707  18.667  0.00  0.00    +0.000 C 
ATOM     24  O   UNL     1       3.580   6.020  19.113  0.00  0.00    +0.000 OA
ATOM     25  C   UNL     1       2.205   6.198  19.451  0.00  0.00    +0.000 C 
ATOM     26  C   UNL     1       1.787   5.242  20.575  0.00  0.00    +0.000 C 
ATOM     27  C   UNL     1       2.108   3.791  20.175  0.00  0.00    +0.000 C 
ATOM     28  C   UNL     1       3.575   3.644  19.741  0.00  0.00    +0.000 C 
BRANCH  26  29
ATOM     29  O   UNL     1       0.391   5.400  20.854  0.00  0.00    +0.000 OA
ATOM     30  H   UNL     1       0.167   4.907  21.661  0.00  0.00    +0.000 HD
ENDBRANCH  26  29
BRANCH  27  31
ATOM     31  O   UNL     1       1.794   2.895  21.248  0.00  0.00    +0.000 OA
ATOM     32  H   UNL     1       0.838   2.703  21.218  0.00  0.00    +0.000 HD
ENDBRANCH  27  31
BRANCH  28  33
ATOM     33  O   UNL     1       3.815   2.306  19.257  0.00  0.00    +0.000 OA
ATOM     34  H   UNL     1       3.805   1.690  20.007  0.00  0.00    +0.000 HD
ENDBRANCH  28  33
BRANCH  25  35
ATOM     35  C   UNL     1       2.017   7.670  19.850  0.00  0.00    +0.000 C 
BRANCH  35  36
ATOM     36  O   UNL     1       1.893   7.818  21.263  0.00  0.00    +0.000 OA
ATOM     37  H   UNL     1       2.699   7.427  21.650  0.00  0.00    +0.000 HD
ENDBRANCH  35  36
ENDBRANCH  25  35
ENDBRANCH  22  23
ENDBRANCH   6  22
TORSDOF 13
ENDMDL
