MODEL 1
REMARK VINA RESULT:      -6.1      0.000      0.000
REMARK  Name = 
REMARK  7 active torsions:
REMARK  status: ('A' for Active; 'I' for Inactive)
REMARK    1  A    between atoms: C_1  and  C_2
REMARK    2  A    between atoms: C_4  and  C_5
REMARK    3  A    between atoms: C_7  and  S_8
REMARK    4  A    between atoms: S_8  and  C_9
REMARK    5  A    between atoms: C_10  and  C_11
REMARK    6  A    between atoms: C_11  and  N_12
REMARK    7  A    between atoms: C_17  and  C_18
REMARK                            x       y       z     vdW  Elec       q    Type
REMARK                         _______ _______ _______ _____ _____    ______ ____
ROOT
ATOM      1  C   UNL     1      -1.388  11.813  19.676  0.00  0.00    +0.000 A 
ATOM      2  C   UNL     1      -2.813  12.268  19.770  0.00  0.00    +0.000 A 
ATOM      3  C   UNL     1      -3.718  11.768  18.892  0.00  0.00    +0.000 A 
ATOM      4  C   UNL     1      -5.196  12.067  18.820  0.00  0.00    +0.000 C 
ATOM      5  N   UNL     1      -3.308  10.877  17.932  0.00  0.00    +0.000 N 
ATOM      6  C   UNL     1      -2.039  10.410  17.763  0.00  0.00    +0.000 A 
ATOM      7  O   UNL     1      -1.792   9.647  16.836  0.00  0.00    +0.000 OA
ATOM      8  C   UNL     1      -1.019  10.888  18.752  0.00  0.00    +0.000 A 
ATOM      9  I   UNL     1       0.867  10.001  18.538  0.00  0.00    +0.000 I 
ATOM     10  H   UNL     1      -3.977  10.513  17.259  0.00  0.00    +0.000 HD
ENDROOT
BRANCH   1  11
ATOM     11  S   UNL     1      -0.235  12.446  20.854  0.00  0.00    +0.000 S 
BRANCH  11  18
ATOM     12  C   UNL     1      -0.405  17.094  18.355  0.00  0.00    +0.000 C 
ATOM     13  C   UNL     1       0.421  15.924  18.812  0.00  0.00    +0.000 A 
ATOM     14  C   UNL     1       1.786  15.863  18.511  0.00  0.00    +0.000 A 
ATOM     15  C   UNL     1       2.556  14.767  18.913  0.00  0.00    +0.000 A 
ATOM     16  C   UNL     1       4.024  14.705  18.613  0.00  0.00    +0.000 C 
ATOM     17  C   UNL     1       1.950  13.721  19.627  0.00  0.00    +0.000 A 
ATOM     18  C   UNL     1       0.593  13.767  19.959  0.00  0.00    +0.000 A 
ATOM     19  C   UNL     1      -0.164  14.879  19.547  0.00  0.00    +0.000 A 
ENDBRANCH  11  18
ENDBRANCH   1  11
BRANCH   2  20
ATOM     20  C   UNL     1      -3.233  13.315  20.798  0.00  0.00    +0.000 C 
BRANCH  20  21
ATOM     21  N   UNL     1      -3.734  12.749  22.039  0.00  0.00    +0.000 N 
ATOM     22  C   UNL     1      -3.044  12.378  23.147  0.00  0.00    +0.000 A 
ATOM     23  N   UNL     1      -3.907  12.071  24.090  0.00  0.00    +0.000 NA
ATOM     24  N   UNL     1      -5.150  12.277  23.546  0.00  0.00    +0.000 NA
ATOM     25  N   UNL     1      -5.054  12.706  22.295  0.00  0.00    +0.000 NA
ENDBRANCH  20  21
ENDBRANCH   2  20
TORSDOF 4
ENDMDL
MODEL 2
REMARK VINA RESULT:      -6.0      3.222      5.407
REMARK  Name = 
REMARK  7 active torsions:
REMARK  status: ('A' for Active; 'I' for Inactive)
REMARK    1  A    between atoms: C_1  and  C_2
REMARK    2  A    between atoms: C_4  and  C_5
REMARK    3  A    between atoms: C_7  and  S_8
REMARK    4  A    between atoms: S_8  and  C_9
REMARK    5  A    between atoms: C_10  and  C_11
REMARK    6  A    between atoms: C_11  and  N_12
REMARK    7  A    between atoms: C_17  and  C_18
REMARK                            x       y       z     vdW  Elec       q    Type
REMARK                         _______ _______ _______ _____ _____    ______ ____
ROOT
ATOM      1  C   UNL     1       0.028  10.776  19.890  0.00  0.00    +0.000 A 
ATOM      2  C   UNL     1      -0.544  10.977  21.262  0.00  0.00    +0.000 A 
ATOM      3  C   UNL     1      -0.297  10.044  22.215  0.00  0.00    +0.000 A 
ATOM      4  C   UNL     1      -0.751  10.055  23.656  0.00  0.00    +0.000 C 
ATOM      5  N   UNL     1       0.451   8.937  21.901  0.00  0.00    +0.000 N 
ATOM      6  C   UNL     1       1.006   8.665  20.686  0.00  0.00    +0.000 A 
ATOM      7  O   UNL     1       1.618   7.615  20.522  0.00  0.00    +0.000 OA
ATOM      8  C   UNL     1       0.812   9.701  19.620  0.00  0.00    +0.000 A 
ATOM      9  I   UNL     1       1.833   9.298  17.836  0.00  0.00    +0.000 I 
ATOM     10  H   UNL     1       0.624   8.225  22.605  0.00  0.00    +0.000 HD
ENDROOT
BRANCH   1  11
ATOM     11  S   UNL     1      -0.272  12.023  18.677  0.00  0.00    +0.000 S 
BRANCH  11  18
ATOM     12  C   UNL     1      -3.139  10.021  14.720  0.00  0.00    +0.000 C 
ATOM     13  C   UNL     1      -3.116  10.619  16.099  0.00  0.00    +0.000 A 
ATOM     14  C   UNL     1      -4.310  10.831  16.796  0.00  0.00    +0.000 A 
ATOM     15  C   UNL     1      -4.297  11.409  18.071  0.00  0.00    +0.000 A 
ATOM     16  C   UNL     1      -5.571  11.620  18.833  0.00  0.00    +0.000 C 
ATOM     17  C   UNL     1      -3.074  11.775  18.652  0.00  0.00    +0.000 A 
ATOM     18  C   UNL     1      -1.864  11.555  17.985  0.00  0.00    +0.000 A 
ATOM     19  C   UNL     1      -1.898  10.971  16.705  0.00  0.00    +0.000 A 
ENDBRANCH  11  18
ENDBRANCH   1  11
BRANCH   2  20
ATOM     20  C   UNL     1      -1.434  12.178  21.570  0.00  0.00    +0.000 C 
BRANCH  20  21
ATOM     21  N   UNL     1      -0.749  13.249  22.272  0.00  0.00    +0.000 N 
ATOM     22  C   UNL     1       0.300  14.005  21.860  0.00  0.00    +0.000 A 
ATOM     23  N   UNL     1       0.494  14.962  22.741  0.00  0.00    +0.000 NA
ATOM     24  N   UNL     1      -0.472  14.792  23.701  0.00  0.00    +0.000 NA
ATOM     25  N   UNL     1      -1.247  13.755  23.415  0.00  0.00    +0.000 NA
ENDBRANCH  20  21
ENDBRANCH   2  20
TORSDOF 4
ENDMDL
MODEL 3
REMARK VINA RESULT:      -6.0      0.255      1.769
REMARK  Name = 
REMARK  7 active torsions:
REMARK  status: ('A' for Active; 'I' for Inactive)
REMARK    1  A    between atoms: C_1  and  C_2
REMARK    2  A    between atoms: C_4  and  C_5
REMARK    3  A    between atoms: C_7  and  S_8
REMARK    4  A    between atoms: S_8  and  C_9
REMARK    5  A    between atoms: C_10  and  C_11
REMARK    6  A    between atoms: C_11  and  N_12
REMARK    7  A    between atoms: C_17  and  C_18
REMARK                            x       y       z     vdW  Elec       q    Type
REMARK                         _______ _______ _______ _____ _____    ______ ____
ROOT
ATOM      1  C   UNL     1      -1.575  11.897  19.707  0.00  0.00    +0.000 A 
ATOM      2  C   UNL     1      -3.010  12.324  19.779  0.00  0.00    +0.000 A 
ATOM      3  C   UNL     1      -3.894  11.792  18.898  0.00  0.00    +0.000 A 
ATOM      4  C   UNL     1      -5.378  12.060  18.806  0.00  0.00    +0.000 C 
ATOM      5  N   UNL     1      -3.456  10.895  17.958  0.00  0.00    +0.000 N 
ATOM      6  C   UNL     1      -2.175  10.451  17.810  0.00  0.00    +0.000 A 
ATOM      7  O   UNL     1      -1.903   9.679  16.898  0.00  0.00    +0.000 OA
ATOM      8  C   UNL     1      -1.176  10.965  18.803  0.00  0.00    +0.000 A 
ATOM      9  I   UNL     1       0.729  10.114  18.623  0.00  0.00    +0.000 I 
ATOM     10  H   UNL     1      -4.109  10.506  17.283  0.00  0.00    +0.000 HD
ENDROOT
BRANCH   1  11
ATOM     11  S   UNL     1      -0.449  12.571  20.889  0.00  0.00    +0.000 S 
BRANCH  11  18
ATOM     12  C   UNL     1       3.926  14.903  19.071  0.00  0.00    +0.000 C 
ATOM     13  C   UNL     1       2.427  14.924  19.188  0.00  0.00    +0.000 A 
ATOM     14  C   UNL     1       1.691  15.978  18.637  0.00  0.00    +0.000 A 
ATOM     15  C   UNL     1       0.298  16.017  18.763  0.00  0.00    +0.000 A 
ATOM     16  C   UNL     1      -0.500  17.132  18.156  0.00  0.00    +0.000 C 
ATOM     17  C   UNL     1      -0.362  14.984  19.446  0.00  0.00    +0.000 A 
ATOM     18  C   UNL     1       0.348  13.908  19.988  0.00  0.00    +0.000 A 
ATOM     19  C   UNL     1       1.747  13.887  19.850  0.00  0.00    +0.000 A 
ENDBRANCH  11  18
ENDBRANCH   1  11
BRANCH   2  20
ATOM     20  C   UNL     1      -3.463  13.378  20.785  0.00  0.00    +0.000 C 
BRANCH  20  21
ATOM     21  N   UNL     1      -3.974  12.821  22.026  0.00  0.00    +0.000 N 
ATOM     22  C   UNL     1      -3.311  12.559  23.180  0.00  0.00    +0.000 A 
ATOM     23  N   UNL     1      -4.190  12.215  24.095  0.00  0.00    +0.000 NA
ATOM     24  N   UNL     1      -5.418  12.288  23.486  0.00  0.00    +0.000 NA
ATOM     25  N   UNL     1      -5.296  12.673  22.223  0.00  0.00    +0.000 NA
ENDBRANCH  20  21
ENDBRANCH   2  20
TORSDOF 4
ENDMDL
MODEL 4
REMARK VINA RESULT:      -6.0      1.631      1.923
REMARK  Name = 
REMARK  7 active torsions:
REMARK  status: ('A' for Active; 'I' for Inactive)
REMARK    1  A    between atoms: C_1  and  C_2
REMARK    2  A    between atoms: C_4  and  C_5
REMARK    3  A    between atoms: C_7  and  S_8
REMARK    4  A    between atoms: S_8  and  C_9
REMARK    5  A    between atoms: C_10  and  C_11
REMARK    6  A    between atoms: C_11  and  N_12
REMARK    7  A    between atoms: C_17  and  C_18
REMARK                            x       y       z     vdW  Elec       q    Type
REMARK                         _______ _______ _______ _____ _____    ______ ____
ROOT
ATOM      1  C   UNL     1      -3.213  12.335  19.837  0.00  0.00    +0.000 A 
ATOM      2  C   UNL     1      -4.345  13.130  20.414  0.00  0.00    +0.000 A 
ATOM      3  C   UNL     1      -5.492  13.246  19.700  0.00  0.00    +0.000 A 
ATOM      4  C   UNL     1      -6.755  13.974  20.095  0.00  0.00    +0.000 C 
ATOM      5  N   UNL     1      -5.585  12.652  18.467  0.00  0.00    +0.000 N 
ATOM      6  C   UNL     1      -4.612  11.917  17.858  0.00  0.00    +0.000 A 
ATOM      7  O   UNL     1      -4.803  11.474  16.731  0.00  0.00    +0.000 OA
ATOM      8  C   UNL     1      -3.349  11.709  18.639  0.00  0.00    +0.000 A 
ATOM      9  I   UNL     1      -1.969  10.432  17.717  0.00  0.00    +0.000 I 
ATOM     10  H   UNL     1      -6.435  12.750  17.918  0.00  0.00    +0.000 HD
ENDROOT
BRANCH   1  11
ATOM     11  S   UNL     1      -1.743  12.163  20.801  0.00  0.00    +0.000 S 
BRANCH  11  18
ATOM     12  C   UNL     1      -0.523  17.032  19.162  0.00  0.00    +0.000 C 
ATOM     13  C   UNL     1      -0.114  15.590  19.283  0.00  0.00    +0.000 A 
ATOM     14  C   UNL     1       1.110  15.157  18.765  0.00  0.00    +0.000 A 
ATOM     15  C   UNL     1       1.487  13.812  18.853  0.00  0.00    +0.000 A 
ATOM     16  C   UNL     1       2.808  13.345  18.320  0.00  0.00    +0.000 C 
ATOM     17  C   UNL     1       0.625  12.893  19.472  0.00  0.00    +0.000 A 
ATOM     18  C   UNL     1      -0.596  13.304  20.017  0.00  0.00    +0.000 A 
ATOM     19  C   UNL     1      -0.955  14.660  19.919  0.00  0.00    +0.000 A 
ENDBRANCH  11  18
ENDBRANCH   1  11
BRANCH   2  20
ATOM     20  C   UNL     1      -4.195  13.844  21.755  0.00  0.00    +0.000 C 
BRANCH  20  21
ATOM     21  N   UNL     1      -4.519  13.012  22.900  0.00  0.00    +0.000 N 
ATOM     22  C   UNL     1      -3.742  12.683  23.963  0.00  0.00    +0.000 A 
ATOM     23  N   UNL     1      -4.486  12.048  24.841  0.00  0.00    +0.000 NA
ATOM     24  N   UNL     1      -5.749  12.006  24.306  0.00  0.00    +0.000 NA
ATOM     25  N   UNL     1      -5.782  12.607  23.124  0.00  0.00    +0.000 NA
ENDBRANCH  20  21
ENDBRANCH   2  20
TORSDOF 4
ENDMDL
MODEL 5
REMARK VINA RESULT:      -5.9      8.411     10.748
REMARK  Name = 
REMARK  7 active torsions:
REMARK  status: ('A' for Active; 'I' for Inactive)
REMARK    1  A    between atoms: C_1  and  C_2
REMARK    2  A    between atoms: C_4  and  C_5
REMARK    3  A    between atoms: C_7  and  S_8
REMARK    4  A    between atoms: S_8  and  C_9
REMARK    5  A    between atoms: C_10  and  C_11
REMARK    6  A    between atoms: C_11  and  N_12
REMARK    7  A    between atoms: C_17  and  C_18
REMARK                            x       y       z     vdW  Elec       q    Type
REMARK                         _______ _______ _______ _____ _____    ______ ____
ROOT
ATOM      1  C   UNL     1       3.425   4.746  18.416  0.00  0.00    +0.000 A 
ATOM      2  C   UNL     1       4.853   5.039  18.066  0.00  0.00    +0.000 A 
ATOM      3  C   UNL     1       5.837   4.386  18.735  0.00  0.00    +0.000 A 
ATOM      4  C   UNL     1       7.328   4.509  18.532  0.00  0.00    +0.000 C 
ATOM      5  N   UNL     1       5.506   3.492  19.721  0.00  0.00    +0.000 N 
ATOM      6  C   UNL     1       4.242   3.165  20.114  0.00  0.00    +0.000 A 
ATOM      7  O   UNL     1       4.080   2.381  21.042  0.00  0.00    +0.000 OA
ATOM      8  C   UNL     1       3.123   3.815  19.357  0.00  0.00    +0.000 A 
ATOM      9  I   UNL     1       1.215   3.139  19.897  0.00  0.00    +0.000 I 
ATOM     10  H   UNL     1       6.238   3.014  20.239  0.00  0.00    +0.000 HD
ENDROOT
BRANCH   1  11
ATOM     11  S   UNL     1       2.161   5.576  17.504  0.00  0.00    +0.000 S 
BRANCH  11  18
ATOM     12  C   UNL     1       1.082   8.244  21.931  0.00  0.00    +0.000 C 
ATOM     13  C   UNL     1       1.454   8.292  20.476  0.00  0.00    +0.000 A 
ATOM     14  C   UNL     1       1.612   9.521  19.827  0.00  0.00    +0.000 A 
ATOM     15  C   UNL     1       1.935   9.573  18.467  0.00  0.00    +0.000 A 
ATOM     16  C   UNL     1       2.127  10.887  17.770  0.00  0.00    +0.000 C 
ATOM     17  C   UNL     1       2.105   8.378  17.751  0.00  0.00    +0.000 A 
ATOM     18  C   UNL     1       1.973   7.135  18.380  0.00  0.00    +0.000 A 
ATOM     19  C   UNL     1       1.649   7.105  19.749  0.00  0.00    +0.000 A 
ENDBRANCH  11  18
ENDBRANCH   1  11
BRANCH   2  20
ATOM     20  C   UNL     1       5.201   6.091  17.016  0.00  0.00    +0.000 C 
BRANCH  20  21
ATOM     21  N   UNL     1       5.976   5.572  15.902  0.00  0.00    +0.000 N 
ATOM     22  C   UNL     1       5.559   4.828  14.846  0.00  0.00    +0.000 A 
ATOM     23  N   UNL     1       6.554   4.718  13.996  0.00  0.00    +0.000 NA
ATOM     24  N   UNL     1       7.596   5.428  14.540  0.00  0.00    +0.000 NA
ATOM     25  N   UNL     1       7.245   5.967  15.700  0.00  0.00    +0.000 NA
ENDBRANCH  20  21
ENDBRANCH   2  20
TORSDOF 4
ENDMDL
MODEL 6
REMARK VINA RESULT:      -5.9      8.404     10.724
REMARK  Name = 
REMARK  7 active torsions:
REMARK  status: ('A' for Active; 'I' for Inactive)
REMARK    1  A    between atoms: C_1  and  C_2
REMARK    2  A    between atoms: C_4  and  C_5
REMARK    3  A    between atoms: C_7  and  S_8
REMARK    4  A    between atoms: S_8  and  C_9
REMARK    5  A    between atoms: C_10  and  C_11
REMARK    6  A    between atoms: C_11  and  N_12
REMARK    7  A    between atoms: C_17  and  C_18
REMARK                            x       y       z     vdW  Elec       q    Type
REMARK                         _______ _______ _______ _____ _____    ______ ____
ROOT
ATOM      1  C   UNL     1       3.436   4.762  18.424  0.00  0.00    +0.000 A 
ATOM      2  C   UNL     1       4.865   5.051  18.075  0.00  0.00    +0.000 A 
ATOM      3  C   UNL     1       5.846   4.392  18.742  0.00  0.00    +0.000 A 
ATOM      4  C   UNL     1       7.338   4.510  18.539  0.00  0.00    +0.000 C 
ATOM      5  N   UNL     1       5.512   3.497  19.726  0.00  0.00    +0.000 N 
ATOM      6  C   UNL     1       4.247   3.173  20.118  0.00  0.00    +0.000 A 
ATOM      7  O   UNL     1       4.082   2.387  21.044  0.00  0.00    +0.000 OA
ATOM      8  C   UNL     1       3.130   3.830  19.363  0.00  0.00    +0.000 A 
ATOM      9  I   UNL     1       1.219   3.159  19.902  0.00  0.00    +0.000 I 
ATOM     10  H   UNL     1       6.242   3.014  20.243  0.00  0.00    +0.000 HD
ENDROOT
BRANCH   1  11
ATOM     11  S   UNL     1       2.175   5.600  17.516  0.00  0.00    +0.000 S 
BRANCH  11  18
ATOM     12  C   UNL     1       2.088  10.874  17.741  0.00  0.00    +0.000 C 
ATOM     13  C   UNL     1       1.918   9.567  18.463  0.00  0.00    +0.000 A 
ATOM     14  C   UNL     1       1.613   9.549  19.828  0.00  0.00    +0.000 A 
ATOM     15  C   UNL     1       1.476   8.335  20.512  0.00  0.00    +0.000 A 
ATOM     16  C   UNL     1       1.127   8.308  21.970  0.00  0.00    +0.000 C 
ATOM     17  C   UNL     1       1.645   7.128  19.817  0.00  0.00    +0.000 A 
ATOM     18  C   UNL     1       1.930   7.118  18.448  0.00  0.00    +0.000 A 
ATOM     19  C   UNL     1       2.062   8.348  17.778  0.00  0.00    +0.000 A 
ENDBRANCH  11  18
ENDBRANCH   1  11
BRANCH   2  20
ATOM     20  C   UNL     1       5.217   6.104  17.028  0.00  0.00    +0.000 C 
BRANCH  20  21
ATOM     21  N   UNL     1       5.977   5.583  15.906  0.00  0.00    +0.000 N 
ATOM     22  C   UNL     1       5.544   4.845  14.851  0.00  0.00    +0.000 A 
ATOM     23  N   UNL     1       6.532   4.730  13.991  0.00  0.00    +0.000 NA
ATOM     24  N   UNL     1       7.584   5.430  14.529  0.00  0.00    +0.000 NA
ATOM     25  N   UNL     1       7.248   5.968  15.694  0.00  0.00    +0.000 NA
ENDBRANCH  20  21
ENDBRANCH   2  20
TORSDOF 4
ENDMDL
MODEL 7
REMARK VINA RESULT:      -5.9      3.270      5.785
REMARK  Name = 
REMARK  7 active torsions:
REMARK  status: ('A' for Active; 'I' for Inactive)
REMARK    1  A    between atoms: C_1  and  C_2
REMARK    2  A    between atoms: C_4  and  C_5
REMARK    3  A    between atoms: C_7  and  S_8
REMARK    4  A    between atoms: S_8  and  C_9
REMARK    5  A    between atoms: C_10  and  C_11
REMARK    6  A    between atoms: C_11  and  N_12
REMARK    7  A    between atoms: C_17  and  C_18
REMARK                            x       y       z     vdW  Elec       q    Type
REMARK                         _______ _______ _______ _____ _____    ______ ____
ROOT
ATOM      1  C   UNL     1      -0.056  12.355  19.753  0.00  0.00    +0.000 A 
ATOM      2  C   UNL     1       0.376  10.929  19.582  0.00  0.00    +0.000 A 
ATOM      3  C   UNL     1       1.400  10.654  18.735  0.00  0.00    +0.000 A 
ATOM      4  C   UNL     1       2.008   9.305  18.431  0.00  0.00    +0.000 C 
ATOM      5  N   UNL     1       2.001  11.676  18.046  0.00  0.00    +0.000 N 
ATOM      6  C   UNL     1       1.676  12.998  18.129  0.00  0.00    +0.000 A 
ATOM      7  O   UNL     1       2.263  13.811  17.424  0.00  0.00    +0.000 OA
ATOM      8  C   UNL     1       0.593  13.355  19.102  0.00  0.00    +0.000 A 
ATOM      9  I   UNL     1       0.264  15.414  19.303  0.00  0.00    +0.000 I 
ATOM     10  H   UNL     1       2.756  11.475  17.396  0.00  0.00    +0.000 HD
ENDROOT
BRANCH   1  11
ATOM     11  S   UNL     1      -1.363  12.694  20.891  0.00  0.00    +0.000 S 
BRANCH  11  18
ATOM     12  C   UNL     1      -3.673  11.033  16.443  0.00  0.00    +0.000 C 
ATOM     13  C   UNL     1      -3.834  11.615  17.820  0.00  0.00    +0.000 A 
ATOM     14  C   UNL     1      -5.104  11.946  18.303  0.00  0.00    +0.000 A 
ATOM     15  C   UNL     1      -5.259  12.509  19.574  0.00  0.00    +0.000 A 
ATOM     16  C   UNL     1      -6.619  12.846  20.107  0.00  0.00    +0.000 C 
ATOM     17  C   UNL     1      -4.126  12.741  20.369  0.00  0.00    +0.000 A 
ATOM     18  C   UNL     1      -2.847  12.400  19.919  0.00  0.00    +0.000 A 
ATOM     19  C   UNL     1      -2.713  11.833  18.639  0.00  0.00    +0.000 A 
ENDBRANCH  11  18
ENDBRANCH   1  11
BRANCH   2  20
ATOM     20  C   UNL     1      -0.354   9.799  20.303  0.00  0.00    +0.000 C 
BRANCH  20  21
ATOM     21  N   UNL     1       0.099   9.586  21.666  0.00  0.00    +0.000 N 
ATOM     22  C   UNL     1       1.343   9.282  22.114  0.00  0.00    +0.000 A 
ATOM     23  N   UNL     1       1.338   9.340  23.427  0.00  0.00    +0.000 NA
ATOM     24  N   UNL     1       0.064   9.706  23.784  0.00  0.00    +0.000 NA
ATOM     25  N   UNL     1      -0.698   9.873  22.712  0.00  0.00    +0.000 NA
ENDBRANCH  20  21
ENDBRANCH   2  20
TORSDOF 4
ENDMDL
MODEL 8
REMARK VINA RESULT:      -5.9      2.708      3.821
REMARK  Name = 
REMARK  7 active torsions:
REMARK  status: ('A' for Active; 'I' for Inactive)
REMARK    1  A    between atoms: C_1  and  C_2
REMARK    2  A    between atoms: C_4  and  C_5
REMARK    3  A    between atoms: C_7  and  S_8
REMARK    4  A    between atoms: S_8  and  C_9
REMARK    5  A    between atoms: C_10  and  C_11
REMARK    6  A    between atoms: C_11  and  N_12
REMARK    7  A    between atoms: C_17  and  C_18
REMARK                            x       y       z     vdW  Elec       q    Type
REMARK                         _______ _______ _______ _____ _____    ______ ____
ROOT
ATOM      1  C   UNL     1      -2.175  11.985  19.547  0.00  0.00    +0.000 A 
ATOM      2  C   UNL     1      -2.047  12.350  20.996  0.00  0.00    +0.000 A 
ATOM      3  C   UNL     1      -3.172  12.630  21.700  0.00  0.00    +0.000 A 
ATOM      4  C   UNL     1      -3.278  12.996  23.162  0.00  0.00    +0.000 C 
ATOM      5  N   UNL     1      -4.391  12.589  21.073  0.00  0.00    +0.000 N 
ATOM      6  C   UNL     1      -4.608  12.274  19.764  0.00  0.00    +0.000 A 
ATOM      7  O   UNL     1      -5.746  12.317  19.311  0.00  0.00    +0.000 OA
ATOM      8  C   UNL     1      -3.398  11.896  18.964  0.00  0.00    +0.000 A 
ATOM      9  I   UNL     1      -3.823  11.262  17.013  0.00  0.00    +0.000 I 
ATOM     10  H   UNL     1      -5.236  12.815  21.590  0.00  0.00    +0.000 HD
ENDROOT
BRANCH   1  11
ATOM     11  S   UNL     1      -0.702  11.585  18.660  0.00  0.00    +0.000 S 
BRANCH  11  18
ATOM     12  C   UNL     1       3.821  14.296  18.384  0.00  0.00    +0.000 C 
ATOM     13  C   UNL     1       2.320  14.330  18.461  0.00  0.00    +0.000 A 
ATOM     14  C   UNL     1       1.642  15.552  18.508  0.00  0.00    +0.000 A 
ATOM     15  C   UNL     1       0.247  15.591  18.603  0.00  0.00    +0.000 A 
ATOM     16  C   UNL     1      -0.488  16.898  18.630  0.00  0.00    +0.000 C 
ATOM     17  C   UNL     1      -0.476  14.389  18.649  0.00  0.00    +0.000 A 
ATOM     18  C   UNL     1       0.176  13.153  18.584  0.00  0.00    +0.000 A 
ATOM     19  C   UNL     1       1.579  13.136  18.487  0.00  0.00    +0.000 A 
ENDBRANCH  11  18
ENDBRANCH   1  11
BRANCH   2  20
ATOM     20  C   UNL     1      -0.675  12.462  21.656  0.00  0.00    +0.000 C 
BRANCH  20  21
ATOM     21  N   UNL     1      -0.163  11.198  22.156  0.00  0.00    +0.000 N 
ATOM     22  C   UNL     1       0.832  10.422  21.654  0.00  0.00    +0.000 A 
ATOM     23  N   UNL     1       1.076   9.455  22.509  0.00  0.00    +0.000 NA
ATOM     24  N   UNL     1       0.221   9.658  23.564  0.00  0.00    +0.000 NA
ATOM     25  N   UNL     1      -0.531  10.732  23.363  0.00  0.00    +0.000 NA
ENDBRANCH  20  21
ENDBRANCH   2  20
TORSDOF 4
ENDMDL
MODEL 9
REMARK VINA RESULT:      -5.8      3.737      6.545
REMARK  Name = 
REMARK  7 active torsions:
REMARK  status: ('A' for Active; 'I' for Inactive)
REMARK    1  A    between atoms: C_1  and  C_2
REMARK    2  A    between atoms: C_4  and  C_5
REMARK    3  A    between atoms: C_7  and  S_8
REMARK    4  A    between atoms: S_8  and  C_9
REMARK    5  A    between atoms: C_10  and  C_11
REMARK    6  A    between atoms: C_11  and  N_12
REMARK    7  A    between atoms: C_17  and  C_18
REMARK                            x       y       z     vdW  Elec       q    Type
REMARK                         _______ _______ _______ _____ _____    ______ ____
ROOT
ATOM      1  C   UNL     1      -1.754  12.324  20.972  0.00  0.00    +0.000 A 
ATOM      2  C   UNL     1      -0.774  11.232  21.277  0.00  0.00    +0.000 A 
ATOM      3  C   UNL     1      -0.814  10.641  22.498  0.00  0.00    +0.000 A 
ATOM      4  C   UNL     1       0.057   9.516  23.007  0.00  0.00    +0.000 C 
ATOM      5  N   UNL     1      -1.731  11.064  23.425  0.00  0.00    +0.000 N 
ATOM      6  C   UNL     1      -2.656  12.050  23.244  0.00  0.00    +0.000 A 
ATOM      7  O   UNL     1      -3.394  12.366  24.170  0.00  0.00    +0.000 OA
ATOM      8  C   UNL     1      -2.690  12.687  21.887  0.00  0.00    +0.000 A 
ATOM      9  I   UNL     1      -4.243  14.069  21.626  0.00  0.00    +0.000 I 
ATOM     10  H   UNL     1      -1.755  10.640  24.348  0.00  0.00    +0.000 HD
ENDROOT
BRANCH   1  11
ATOM     11  S   UNL     1      -1.712  13.051  19.363  0.00  0.00    +0.000 S 
BRANCH  11  18
ATOM     12  C   UNL     1      -2.669   9.942  15.204  0.00  0.00    +0.000 C 
ATOM     13  C   UNL     1      -3.194  10.595  16.452  0.00  0.00    +0.000 A 
ATOM     14  C   UNL     1      -4.530  10.425  16.829  0.00  0.00    +0.000 A 
ATOM     15  C   UNL     1      -5.031  11.049  17.977  0.00  0.00    +0.000 A 
ATOM     16  C   UNL     1      -6.457  10.853  18.400  0.00  0.00    +0.000 C 
ATOM     17  C   UNL     1      -4.182  11.850  18.755  0.00  0.00    +0.000 A 
ATOM     18  C   UNL     1      -2.837  12.020  18.412  0.00  0.00    +0.000 A 
ATOM     19  C   UNL     1      -2.352  11.383  17.255  0.00  0.00    +0.000 A 
ENDBRANCH  11  18
ENDBRANCH   1  11
BRANCH   2  20
ATOM     20  C   UNL     1       0.287  10.826  20.258  0.00  0.00    +0.000 C 
BRANCH  20  21
ATOM     21  N   UNL     1       1.322  11.826  20.060  0.00  0.00    +0.000 N 
ATOM     22  C   UNL     1       1.848  12.290  18.899  0.00  0.00    +0.000 A 
ATOM     23  N   UNL     1       2.639  13.303  19.176  0.00  0.00    +0.000 NA
ATOM     24  N   UNL     1       2.576  13.469  20.538  0.00  0.00    +0.000 NA
ATOM     25  N   UNL     1       1.760  12.578  21.085  0.00  0.00    +0.000 NA
ENDBRANCH  20  21
ENDBRANCH   2  20
TORSDOF 4
ENDMDL
