MODEL 1
REMARK VINA RESULT:      -8.5      0.000      0.000
REMARK  Name = 
REMARK  6 active torsions:
REMARK  status: ('A' for Active; 'I' for Inactive)
REMARK    1  A    between atoms: C_2  and  C_3
REMARK    2  A    between atoms: C_3  and  N_4
REMARK    3  A    between atoms: N_4  and  C_5
REMARK    4  A    between atoms: C_5  and  C_6
REMARK    5  A    between atoms: C_5  and  C_12
REMARK    6  A    between atoms: N_18  and  C_19
REMARK                            x       y       z     vdW  Elec       q    Type
REMARK                         _______ _______ _______ _____ _____    ______ ____
ROOT
ATOM      1  N   UNL     1       4.281   6.203  18.360  0.00  0.00    +0.000 NA
ATOM      2  H   UNL     1       3.863   5.781  17.526  0.00  0.00    +0.000 HD
ENDROOT
BRANCH   1   3
ATOM      3  C   UNL     1       5.430   5.361  18.740  0.00  0.00    +0.000 C 
BRANCH   3   5
ATOM      4  O   UNL     1       7.356   4.431  17.654  0.00  0.00    +0.000 OA
ATOM      5  C   UNL     1       6.242   4.938  17.513  0.00  0.00    +0.000 C 
ATOM      6  N   UNL     1       5.631   5.242  16.306  0.00  0.00    +0.000 N 
ATOM      7  H   UNL     1       4.824   5.856  16.343  0.00  0.00    +0.000 HD
BRANCH   6   8
ATOM      8  C   UNL     1       6.095   4.880  15.025  0.00  0.00    +0.000 A 
ATOM      9  C   UNL     1       7.288   5.372  14.482  0.00  0.00    +0.000 A 
ATOM     10  C   UNL     1       7.720   4.954  13.222  0.00  0.00    +0.000 A 
ATOM     11  C   UNL     1       6.958   4.048  12.500  0.00  0.00    +0.000 A 
ATOM     12  F   UNL     1       7.375   3.645  11.294  0.00  0.00    +0.000 F 
ATOM     13  C   UNL     1       5.769   3.548  13.020  0.00  0.00    +0.000 A 
ATOM     14  C   UNL     1       5.342   3.958  14.286  0.00  0.00    +0.000 A 
ENDBRANCH   6   8
ENDBRANCH   3   5
ENDBRANCH   1   3
BRANCH   1  15
ATOM     15  C   UNL     1       3.217   6.260  19.388  0.00  0.00    +0.000 C 
BRANCH  15  16
ATOM     16  C   UNL     1       2.377   7.527  19.269  0.00  0.00    +0.000 A 
ATOM     17  C   UNL     1       1.683   8.046  20.377  0.00  0.00    +0.000 A 
ATOM     18  C   UNL     1       0.852   9.157  20.240  0.00  0.00    +0.000 A 
ATOM     19  C   UNL     1       0.698   9.764  18.994  0.00  0.00    +0.000 A 
ATOM     20  C   UNL     1       1.392   9.273  17.890  0.00  0.00    +0.000 A 
ATOM     21  C   UNL     1       2.234   8.167  18.027  0.00  0.00    +0.000 A 
ENDBRANCH  15  16
BRANCH  15  22
ATOM     22  C   UNL     1       2.356   4.995  19.375  0.00  0.00    +0.000 A 
ATOM     23  C   UNL     1       1.906   4.450  20.590  0.00  0.00    +0.000 A 
ATOM     24  C   UNL     1       1.109   3.303  20.610  0.00  0.00    +0.000 A 
ATOM     25  C   UNL     1       0.745   2.686  19.416  0.00  0.00    +0.000 A 
ATOM     26  C   UNL     1       1.173   3.215  18.201  0.00  0.00    +0.000 A 
ATOM     27  C   UNL     1       1.970   4.362  18.180  0.00  0.00    +0.000 A 
ENDBRANCH  15  22
ENDBRANCH   1  15
TORSDOF 6
ENDMDL
MODEL 2
REMARK VINA RESULT:      -8.5      0.187      1.378
REMARK  Name = 
REMARK  6 active torsions:
REMARK  status: ('A' for Active; 'I' for Inactive)
REMARK    1  A    between atoms: C_2  and  C_3
REMARK    2  A    between atoms: C_3  and  N_4
REMARK    3  A    between atoms: N_4  and  C_5
REMARK    4  A    between atoms: C_5  and  C_6
REMARK    5  A    between atoms: C_5  and  C_12
REMARK    6  A    between atoms: N_18  and  C_19
REMARK                            x       y       z     vdW  Elec       q    Type
REMARK                         _______ _______ _______ _____ _____    ______ ____
ROOT
ATOM      1  N   UNL     1       4.241   6.217  18.550  0.00  0.00    +0.000 NA
ATOM      2  H   UNL     1       3.852   5.853  17.675  0.00  0.00    +0.000 HD
ENDROOT
BRANCH   1   3
ATOM      3  C   UNL     1       5.341   5.317  18.941  0.00  0.00    +0.000 C 
BRANCH   3   5
ATOM      4  O   UNL     1       7.227   4.290  17.874  0.00  0.00    +0.000 OA
ATOM      5  C   UNL     1       6.142   4.853  17.722  0.00  0.00    +0.000 C 
ATOM      6  N   UNL     1       5.559   5.186  16.509  0.00  0.00    +0.000 N 
ATOM      7  H   UNL     1       4.784   5.840  16.538  0.00  0.00    +0.000 HD
BRANCH   6   8
ATOM      8  C   UNL     1       6.016   4.799  15.233  0.00  0.00    +0.000 A 
ATOM      9  C   UNL     1       5.316   3.905  14.413  0.00  0.00    +0.000 A 
ATOM     10  C   UNL     1       5.796   3.581  13.143  0.00  0.00    +0.000 A 
ATOM     11  C   UNL     1       6.979   4.146  12.691  0.00  0.00    +0.000 A 
ATOM     12  F   UNL     1       7.437   3.838  11.472  0.00  0.00    +0.000 F 
ATOM     13  C   UNL     1       7.692   5.034  13.490  0.00  0.00    +0.000 A 
ATOM     14  C   UNL     1       7.206   5.367  14.758  0.00  0.00    +0.000 A 
ENDBRANCH   6   8
ENDBRANCH   3   5
ENDBRANCH   1   3
BRANCH   1  15
ATOM     15  C   UNL     1       3.127   6.259  19.525  0.00  0.00    +0.000 C 
BRANCH  15  16
ATOM     16  C   UNL     1       2.259   7.501  19.347  0.00  0.00    +0.000 A 
ATOM     17  C   UNL     1       2.162   8.147  18.102  0.00  0.00    +0.000 A 
ATOM     18  C   UNL     1       1.432   9.328  17.968  0.00  0.00    +0.000 A 
ATOM     19  C   UNL     1       0.794   9.883  19.077  0.00  0.00    +0.000 A 
ATOM     20  C   UNL     1       0.865   9.245  20.313  0.00  0.00    +0.000 A 
ATOM     21  C   UNL     1       1.586   8.056  20.447  0.00  0.00    +0.000 A 
ENDBRANCH  15  16
BRANCH  15  22
ATOM     22  C   UNL     1       2.303   4.971  19.493  0.00  0.00    +0.000 A 
ATOM     23  C   UNL     1       1.898   4.376  20.700  0.00  0.00    +0.000 A 
ATOM     24  C   UNL     1       1.135   3.206  20.702  0.00  0.00    +0.000 A 
ATOM     25  C   UNL     1       0.761   2.615  19.498  0.00  0.00    +0.000 A 
ATOM     26  C   UNL     1       1.146   3.193  18.290  0.00  0.00    +0.000 A 
ATOM     27  C   UNL     1       1.908   4.362  18.287  0.00  0.00    +0.000 A 
ENDBRANCH  15  22
ENDBRANCH   1  15
TORSDOF 6
ENDMDL
MODEL 3
REMARK VINA RESULT:      -8.4      4.291      8.047
REMARK  Name = 
REMARK  6 active torsions:
REMARK  status: ('A' for Active; 'I' for Inactive)
REMARK    1  A    between atoms: C_2  and  C_3
REMARK    2  A    between atoms: C_3  and  N_4
REMARK    3  A    between atoms: N_4  and  C_5
REMARK    4  A    between atoms: C_5  and  C_6
REMARK    5  A    between atoms: C_5  and  C_12
REMARK    6  A    between atoms: N_18  and  C_19
REMARK                            x       y       z     vdW  Elec       q    Type
REMARK                         _______ _______ _______ _____ _____    ______ ____
ROOT
ATOM      1  N   UNL     1       2.475   7.422  17.642  0.00  0.00    +0.000 NA
ATOM      2  H   UNL     1       2.943   7.368  16.733  0.00  0.00    +0.000 HD
ENDROOT
BRANCH   1   3
ATOM      3  C   UNL     1       2.529   8.831  18.073  0.00  0.00    +0.000 C 
BRANCH   3   5
ATOM      4  O   UNL     1       0.965   9.098  19.872  0.00  0.00    +0.000 OA
ATOM      5  C   UNL     1       1.195   9.281  18.675  0.00  0.00    +0.000 C 
ATOM      6  N   UNL     1       0.316   9.821  17.749  0.00  0.00    +0.000 N 
ATOM      7  H   UNL     1       0.554   9.704  16.770  0.00  0.00    +0.000 HD
BRANCH   6   8
ATOM      8  C   UNL     1      -0.933  10.409  18.033  0.00  0.00    +0.000 A 
ATOM      9  C   UNL     1      -1.080  11.502  18.895  0.00  0.00    +0.000 A 
ATOM     10  C   UNL     1      -2.337  12.069  19.116  0.00  0.00    +0.000 A 
ATOM     11  C   UNL     1      -3.450  11.540  18.480  0.00  0.00    +0.000 A 
ATOM     12  F   UNL     1      -4.654  12.086  18.689  0.00  0.00    +0.000 F 
ATOM     13  C   UNL     1      -3.327  10.452  17.622  0.00  0.00    +0.000 A 
ATOM     14  C   UNL     1      -2.067   9.892  17.392  0.00  0.00    +0.000 A 
ENDBRANCH   6   8
ENDBRANCH   3   5
ENDBRANCH   1   3
BRANCH   1  15
ATOM     15  C   UNL     1       3.192   6.493  18.545  0.00  0.00    +0.000 C 
BRANCH  15  16
ATOM     16  C   UNL     1       2.319   5.313  18.960  0.00  0.00    +0.000 A 
ATOM     17  C   UNL     1       1.926   5.135  20.298  0.00  0.00    +0.000 A 
ATOM     18  C   UNL     1       1.198   4.010  20.683  0.00  0.00    +0.000 A 
ATOM     19  C   UNL     1       0.855   3.044  19.737  0.00  0.00    +0.000 A 
ATOM     20  C   UNL     1       1.221   3.214  18.404  0.00  0.00    +0.000 A 
ATOM     21  C   UNL     1       1.941   4.346  18.014  0.00  0.00    +0.000 A 
ENDBRANCH  15  16
BRANCH  15  22
ATOM     22  C   UNL     1       4.523   6.040  17.942  0.00  0.00    +0.000 A 
ATOM     23  C   UNL     1       5.477   5.411  18.761  0.00  0.00    +0.000 A 
ATOM     24  C   UNL     1       6.696   4.976  18.237  0.00  0.00    +0.000 A 
ATOM     25  C   UNL     1       6.980   5.159  16.886  0.00  0.00    +0.000 A 
ATOM     26  C   UNL     1       6.045   5.773  16.056  0.00  0.00    +0.000 A 
ATOM     27  C   UNL     1       4.826   6.208  16.579  0.00  0.00    +0.000 A 
ENDBRANCH  15  22
ENDBRANCH   1  15
TORSDOF 6
ENDMDL
MODEL 4
REMARK VINA RESULT:      -8.3      4.177      7.926
REMARK  Name = 
REMARK  6 active torsions:
REMARK  status: ('A' for Active; 'I' for Inactive)
REMARK    1  A    between atoms: C_2  and  C_3
REMARK    2  A    between atoms: C_3  and  N_4
REMARK    3  A    between atoms: N_4  and  C_5
REMARK    4  A    between atoms: C_5  and  C_6
REMARK    5  A    between atoms: C_5  and  C_12
REMARK    6  A    between atoms: N_18  and  C_19
REMARK                            x       y       z     vdW  Elec       q    Type
REMARK                         _______ _______ _______ _____ _____    ______ ____
ROOT
ATOM      1  N   UNL     1       3.139   7.177  18.446  0.00  0.00    +0.000 NA
ATOM      2  H   UNL     1       2.550   7.083  19.278  0.00  0.00    +0.000 HD
ENDROOT
BRANCH   1   3
ATOM      3  C   UNL     1       2.545   8.240  17.615  0.00  0.00    +0.000 C 
BRANCH   3   5
ATOM      4  O   UNL     1       1.418  10.322  17.998  0.00  0.00    +0.000 OA
ATOM      5  C   UNL     1       1.742   9.229  18.464  0.00  0.00    +0.000 C 
ATOM      6  N   UNL     1       1.503   8.791  19.757  0.00  0.00    +0.000 N 
ATOM      7  H   UNL     1       2.017   7.973  20.066  0.00  0.00    +0.000 HD
BRANCH   6   8
ATOM      8  C   UNL     1       0.707   9.442  20.722  0.00  0.00    +0.000 A 
ATOM      9  C   UNL     1      -0.063  10.575  20.432  0.00  0.00    +0.000 A 
ATOM     10  C   UNL     1      -0.861  11.162  21.415  0.00  0.00    +0.000 A 
ATOM     11  C   UNL     1      -0.887  10.621  22.692  0.00  0.00    +0.000 A 
ATOM     12  F   UNL     1      -1.655  11.182  23.634  0.00  0.00    +0.000 F 
ATOM     13  C   UNL     1      -0.128   9.498  23.002  0.00  0.00    +0.000 A 
ATOM     14  C   UNL     1       0.663   8.903  22.014  0.00  0.00    +0.000 A 
ENDBRANCH   6   8
ENDBRANCH   3   5
ENDBRANCH   1   3
BRANCH   1  15
ATOM     15  C   UNL     1       3.164   5.850  17.790  0.00  0.00    +0.000 C 
BRANCH  15  16
ATOM     16  C   UNL     1       4.588   5.360  17.548  0.00  0.00    +0.000 A 
ATOM     17  C   UNL     1       5.567   5.444  18.553  0.00  0.00    +0.000 A 
ATOM     18  C   UNL     1       6.886   5.071  18.296  0.00  0.00    +0.000 A 
ATOM     19  C   UNL     1       7.246   4.612  17.030  0.00  0.00    +0.000 A 
ATOM     20  C   UNL     1       6.285   4.506  16.028  0.00  0.00    +0.000 A 
ATOM     21  C   UNL     1       4.961   4.868  16.286  0.00  0.00    +0.000 A 
ENDBRANCH  15  16
BRANCH  15  22
ATOM     22  C   UNL     1       2.327   4.827  18.561  0.00  0.00    +0.000 A 
ATOM     23  C   UNL     1       2.044   5.045  19.920  0.00  0.00    +0.000 A 
ATOM     24  C   UNL     1       1.272   4.135  20.646  0.00  0.00    +0.000 A 
ATOM     25  C   UNL     1       0.768   2.995  20.024  0.00  0.00    +0.000 A 
ATOM     26  C   UNL     1       1.030   2.765  18.676  0.00  0.00    +0.000 A 
ATOM     27  C   UNL     1       1.800   3.674  17.949  0.00  0.00    +0.000 A 
ENDBRANCH  15  22
ENDBRANCH   1  15
TORSDOF 6
ENDMDL
MODEL 5
REMARK VINA RESULT:      -8.3      4.297      8.141
REMARK  Name = 
REMARK  6 active torsions:
REMARK  status: ('A' for Active; 'I' for Inactive)
REMARK    1  A    between atoms: C_2  and  C_3
REMARK    2  A    between atoms: C_3  and  N_4
REMARK    3  A    between atoms: N_4  and  C_5
REMARK    4  A    between atoms: C_5  and  C_6
REMARK    5  A    between atoms: C_5  and  C_12
REMARK    6  A    between atoms: N_18  and  C_19
REMARK                            x       y       z     vdW  Elec       q    Type
REMARK                         _______ _______ _______ _____ _____    ______ ____
ROOT
ATOM      1  N   UNL     1       2.964   7.333  18.616  0.00  0.00    +0.000 NA
ATOM      2  H   UNL     1       2.318   7.178  19.396  0.00  0.00    +0.000 HD
ENDROOT
BRANCH   1   3
ATOM      3  C   UNL     1       2.396   8.413  17.791  0.00  0.00    +0.000 C 
BRANCH   3   5
ATOM      4  O   UNL     1       0.392   9.721  17.953  0.00  0.00    +0.000 OA
ATOM      5  C   UNL     1       1.330   9.200  18.558  0.00  0.00    +0.000 C 
ATOM      6  N   UNL     1       1.578   9.298  19.919  0.00  0.00    +0.000 N 
ATOM      7  H   UNL     1       2.498   9.012  20.238  0.00  0.00    +0.000 HD
BRANCH   6   8
ATOM      8  C   UNL     1       0.721   9.871  20.881  0.00  0.00    +0.000 A 
ATOM      9  C   UNL     1       0.327  11.214  20.845  0.00  0.00    +0.000 A 
ATOM     10  C   UNL     1      -0.551  11.722  21.803  0.00  0.00    +0.000 A 
ATOM     11  C   UNL     1      -1.033  10.891  22.802  0.00  0.00    +0.000 A 
ATOM     12  F   UNL     1      -1.879  11.378  23.718  0.00  0.00    +0.000 F 
ATOM     13  C   UNL     1      -0.653   9.554  22.859  0.00  0.00    +0.000 A 
ATOM     14  C   UNL     1       0.218   9.042  21.893  0.00  0.00    +0.000 A 
ENDBRANCH   6   8
ENDBRANCH   3   5
ENDBRANCH   1   3
BRANCH   1  15
ATOM     15  C   UNL     1       3.088   6.040  17.905  0.00  0.00    +0.000 C 
BRANCH  15  16
ATOM     16  C   UNL     1       4.546   5.651  17.678  0.00  0.00    +0.000 A 
ATOM     17  C   UNL     1       5.025   5.350  16.391  0.00  0.00    +0.000 A 
ATOM     18  C   UNL     1       6.337   4.915  16.203  0.00  0.00    +0.000 A 
ATOM     19  C   UNL     1       7.187   4.772  17.299  0.00  0.00    +0.000 A 
ATOM     20  C   UNL     1       6.733   5.083  18.578  0.00  0.00    +0.000 A 
ATOM     21  C   UNL     1       5.423   5.529  18.767  0.00  0.00    +0.000 A 
ENDBRANCH  15  16
BRANCH  15  22
ATOM     22  C   UNL     1       2.301   4.933  18.610  0.00  0.00    +0.000 A 
ATOM     23  C   UNL     1       2.040   3.729  17.934  0.00  0.00    +0.000 A 
ATOM     24  C   UNL     1       1.335   2.696  18.556  0.00  0.00    +0.000 A 
ATOM     25  C   UNL     1       0.882   2.850  19.864  0.00  0.00    +0.000 A 
ATOM     26  C   UNL     1       1.136   4.032  20.554  0.00  0.00    +0.000 A 
ATOM     27  C   UNL     1       1.842   5.065  19.934  0.00  0.00    +0.000 A 
ENDBRANCH  15  22
ENDBRANCH   1  15
TORSDOF 6
ENDMDL
MODEL 6
REMARK VINA RESULT:      -8.3      4.638      8.254
REMARK  Name = 
REMARK  6 active torsions:
REMARK  status: ('A' for Active; 'I' for Inactive)
REMARK    1  A    between atoms: C_2  and  C_3
REMARK    2  A    between atoms: C_3  and  N_4
REMARK    3  A    between atoms: N_4  and  C_5
REMARK    4  A    between atoms: C_5  and  C_6
REMARK    5  A    between atoms: C_5  and  C_12
REMARK    6  A    between atoms: N_18  and  C_19
REMARK                            x       y       z     vdW  Elec       q    Type
REMARK                         _______ _______ _______ _____ _____    ______ ____
ROOT
ATOM      1  N   UNL     1       2.606   7.543  18.788  0.00  0.00    +0.000 NA
ATOM      2  H   UNL     1       1.897   7.293  19.484  0.00  0.00    +0.000 HD
ENDROOT
BRANCH   1   3
ATOM      3  C   UNL     1       2.008   8.563  17.908  0.00  0.00    +0.000 C 
BRANCH   3   5
ATOM      4  O   UNL     1       0.196  10.127  18.060  0.00  0.00    +0.000 OA
ATOM      5  C   UNL     1       1.025   9.452  18.673  0.00  0.00    +0.000 C 
ATOM      6  N   UNL     1       1.219   9.450  20.046  0.00  0.00    +0.000 N 
ATOM      7  H   UNL     1       2.075   9.024  20.387  0.00  0.00    +0.000 HD
BRANCH   6   8
ATOM      8  C   UNL     1       0.403  10.089  21.002  0.00  0.00    +0.000 A 
ATOM      9  C   UNL     1      -0.091   9.436  22.138  0.00  0.00    +0.000 A 
ATOM     10  C   UNL     1      -0.866  10.125  23.072  0.00  0.00    +0.000 A 
ATOM     11  C   UNL     1      -1.154  11.467  22.870  0.00  0.00    +0.000 A 
ATOM     12  F   UNL     1      -1.894  12.128  23.768  0.00  0.00    +0.000 F 
ATOM     13  C   UNL     1      -0.675  12.134  21.748  0.00  0.00    +0.000 A 
ATOM     14  C   UNL     1       0.111  11.447  20.817  0.00  0.00    +0.000 A 
ENDBRANCH   6   8
ENDBRANCH   3   5
ENDBRANCH   1   3
BRANCH   1  15
ATOM     15  C   UNL     1       2.975   6.291  18.089  0.00  0.00    +0.000 C 
BRANCH  15  16
ATOM     16  C   UNL     1       4.485   6.077  18.059  0.00  0.00    +0.000 A 
ATOM     17  C   UNL     1       5.152   5.458  19.130  0.00  0.00    +0.000 A 
ATOM     18  C   UNL     1       6.542   5.341  19.132  0.00  0.00    +0.000 A 
ATOM     19  C   UNL     1       7.285   5.845  18.066  0.00  0.00    +0.000 A 
ATOM     20  C   UNL     1       6.638   6.445  16.988  0.00  0.00    +0.000 A 
ATOM     21  C   UNL     1       5.246   6.553  16.979  0.00  0.00    +0.000 A 
ENDBRANCH  15  16
BRANCH  15  22
ATOM     22  C   UNL     1       2.233   5.085  18.667  0.00  0.00    +0.000 A 
ATOM     23  C   UNL     1       2.110   3.913  17.900  0.00  0.00    +0.000 A 
ATOM     24  C   UNL     1       1.449   2.792  18.407  0.00  0.00    +0.000 A 
ATOM     25  C   UNL     1       0.905   2.822  19.688  0.00  0.00    +0.000 A 
ATOM     26  C   UNL     1       1.023   3.970  20.467  0.00  0.00    +0.000 A 
ATOM     27  C   UNL     1       1.685   5.092  19.963  0.00  0.00    +0.000 A 
ENDBRANCH  15  22
ENDBRANCH   1  15
TORSDOF 6
ENDMDL
MODEL 7
REMARK VINA RESULT:      -8.2      4.274      8.065
REMARK  Name = 
REMARK  6 active torsions:
REMARK  status: ('A' for Active; 'I' for Inactive)
REMARK    1  A    between atoms: C_2  and  C_3
REMARK    2  A    between atoms: C_3  and  N_4
REMARK    3  A    between atoms: N_4  and  C_5
REMARK    4  A    between atoms: C_5  and  C_6
REMARK    5  A    between atoms: C_5  and  C_12
REMARK    6  A    between atoms: N_18  and  C_19
REMARK                            x       y       z     vdW  Elec       q    Type
REMARK                         _______ _______ _______ _____ _____    ______ ____
ROOT
ATOM      1  N   UNL     1       2.836   7.122  18.682  0.00  0.00    +0.000 NA
ATOM      2  H   UNL     1       2.093   6.985  19.374  0.00  0.00    +0.000 HD
ENDROOT
BRANCH   1   3
ATOM      3  C   UNL     1       2.432   8.256  17.832  0.00  0.00    +0.000 C 
BRANCH   3   5
ATOM      4  O   UNL     1       1.077  10.225  18.028  0.00  0.00    +0.000 OA
ATOM      5  C   UNL     1       1.551   9.243  18.601  0.00  0.00    +0.000 C 
ATOM      6  N   UNL     1       1.420   8.944  19.949  0.00  0.00    +0.000 N 
ATOM      7  H   UNL     1       2.042   8.236  20.323  0.00  0.00    +0.000 HD
BRANCH   6   8
ATOM      8  C   UNL     1       0.591   9.614  20.872  0.00  0.00    +0.000 A 
ATOM      9  C   UNL     1      -0.153  10.753  20.539  0.00  0.00    +0.000 A 
ATOM     10  C   UNL     1      -0.985  11.358  21.482  0.00  0.00    +0.000 A 
ATOM     11  C   UNL     1      -1.071  10.831  22.761  0.00  0.00    +0.000 A 
ATOM     12  F   UNL     1      -1.873  11.410  23.664  0.00  0.00    +0.000 F 
ATOM     13  C   UNL     1      -0.339   9.702  23.115  0.00  0.00    +0.000 A 
ATOM     14  C   UNL     1       0.486   9.089  22.167  0.00  0.00    +0.000 A 
ENDBRANCH   6   8
ENDBRANCH   3   5
ENDBRANCH   1   3
BRANCH   1  15
ATOM     15  C   UNL     1       2.973   5.843  17.948  0.00  0.00    +0.000 C 
BRANCH  15  16
ATOM     16  C   UNL     1       4.434   5.481  17.700  0.00  0.00    +0.000 A 
ATOM     17  C   UNL     1       4.863   5.009  16.448  0.00  0.00    +0.000 A 
ATOM     18  C   UNL     1       6.183   4.602  16.254  0.00  0.00    +0.000 A 
ATOM     19  C   UNL     1       7.092   4.658  17.309  0.00  0.00    +0.000 A 
ATOM     20  C   UNL     1       6.688   5.141  18.551  0.00  0.00    +0.000 A 
ATOM     21  C   UNL     1       5.370   5.559  18.745  0.00  0.00    +0.000 A 
ENDBRANCH  15  16
BRANCH  15  22
ATOM     22  C   UNL     1       2.210   4.713  18.641  0.00  0.00    +0.000 A 
ATOM     23  C   UNL     1       1.887   4.828  20.004  0.00  0.00    +0.000 A 
ATOM     24  C   UNL     1       1.181   3.818  20.661  0.00  0.00    +0.000 A 
ATOM     25  C   UNL     1       0.783   2.679  19.965  0.00  0.00    +0.000 A 
ATOM     26  C   UNL     1       1.086   2.549  18.613  0.00  0.00    +0.000 A 
ATOM     27  C   UNL     1       1.791   3.559  17.955  0.00  0.00    +0.000 A 
ENDBRANCH  15  22
ENDBRANCH   1  15
TORSDOF 6
ENDMDL
MODEL 8
REMARK VINA RESULT:      -8.2      4.170      7.879
REMARK  Name = 
REMARK  6 active torsions:
REMARK  status: ('A' for Active; 'I' for Inactive)
REMARK    1  A    between atoms: C_2  and  C_3
REMARK    2  A    between atoms: C_3  and  N_4
REMARK    3  A    between atoms: N_4  and  C_5
REMARK    4  A    between atoms: C_5  and  C_6
REMARK    5  A    between atoms: C_5  and  C_12
REMARK    6  A    between atoms: N_18  and  C_19
REMARK                            x       y       z     vdW  Elec       q    Type
REMARK                         _______ _______ _______ _____ _____    ______ ____
ROOT
ATOM      1  N   UNL     1       3.238   7.343  18.496  0.00  0.00    +0.000 NA
ATOM      2  H   UNL     1       2.666   7.212  19.335  0.00  0.00    +0.000 HD
ENDROOT
BRANCH   1   3
ATOM      3  C   UNL     1       2.643   8.459  17.737  0.00  0.00    +0.000 C 
BRANCH   3   5
ATOM      4  O   UNL     1       1.241   8.821  19.649  0.00  0.00    +0.000 OA
ATOM      5  C   UNL     1       1.404   9.013  18.442  0.00  0.00    +0.000 C 
ATOM      6  N   UNL     1       0.517   9.658  17.593  0.00  0.00    +0.000 N 
ATOM      7  H   UNL     1       0.674   9.546  16.597  0.00  0.00    +0.000 HD
BRANCH   6   8
ATOM      8  C   UNL     1      -0.649  10.351  17.979  0.00  0.00    +0.000 A 
ATOM      9  C   UNL     1      -1.927   9.998  17.528  0.00  0.00    +0.000 A 
ATOM     10  C   UNL     1      -3.053  10.696  17.968  0.00  0.00    +0.000 A 
ATOM     11  C   UNL     1      -2.903  11.752  18.854  0.00  0.00    +0.000 A 
ATOM     12  F   UNL     1      -3.984  12.418  19.278  0.00  0.00    +0.000 F 
ATOM     13  C   UNL     1      -1.643  12.121  19.313  0.00  0.00    +0.000 A 
ATOM     14  C   UNL     1      -0.516  11.415  18.881  0.00  0.00    +0.000 A 
ENDBRANCH   6   8
ENDBRANCH   3   5
ENDBRANCH   1   3
BRANCH   1  15
ATOM     15  C   UNL     1       3.228   6.054  17.768  0.00  0.00    +0.000 C 
BRANCH  15  16
ATOM     16  C   UNL     1       4.639   5.558  17.465  0.00  0.00    +0.000 A 
ATOM     17  C   UNL     1       4.946   4.944  16.238  0.00  0.00    +0.000 A 
ATOM     18  C   UNL     1       6.217   4.420  16.003  0.00  0.00    +0.000 A 
ATOM     19  C   UNL     1       7.198   4.499  16.990  0.00  0.00    +0.000 A 
ATOM     20  C   UNL     1       6.915   5.120  18.204  0.00  0.00    +0.000 A 
ATOM     21  C   UNL     1       5.647   5.656  18.439  0.00  0.00    +0.000 A 
ENDBRANCH  15  16
BRANCH  15  22
ATOM     22  C   UNL     1       2.394   5.002  18.501  0.00  0.00    +0.000 A 
ATOM     23  C   UNL     1       2.050   5.205  19.849  0.00  0.00    +0.000 A 
ATOM     24  C   UNL     1       1.280   4.268  20.541  0.00  0.00    +0.000 A 
ATOM     25  C   UNL     1       0.837   3.115  19.896  0.00  0.00    +0.000 A 
ATOM     26  C   UNL     1       1.161   2.899  18.559  0.00  0.00    +0.000 A 
ATOM     27  C   UNL     1       1.930   3.835  17.866  0.00  0.00    +0.000 A 
ENDBRANCH  15  22
ENDBRANCH   1  15
TORSDOF 6
ENDMDL
MODEL 9
REMARK VINA RESULT:      -8.2      1.391      4.048
REMARK  Name = 
REMARK  6 active torsions:
REMARK  status: ('A' for Active; 'I' for Inactive)
REMARK    1  A    between atoms: C_2  and  C_3
REMARK    2  A    between atoms: C_3  and  N_4
REMARK    3  A    between atoms: N_4  and  C_5
REMARK    4  A    between atoms: C_5  and  C_6
REMARK    5  A    between atoms: C_5  and  C_12
REMARK    6  A    between atoms: N_18  and  C_19
REMARK                            x       y       z     vdW  Elec       q    Type
REMARK                         _______ _______ _______ _____ _____    ______ ____
ROOT
ATOM      1  N   UNL     1       5.808   5.910  18.814  0.00  0.00    +0.000 NA
ATOM      2  H   UNL     1       5.619   6.651  19.495  0.00  0.00    +0.000 HD
ENDROOT
BRANCH   1   3
ATOM      3  C   UNL     1       6.931   6.370  17.976  0.00  0.00    +0.000 C 
BRANCH   3   5
ATOM      4  O   UNL     1       7.965   4.429  17.019  0.00  0.00    +0.000 OA
ATOM      5  C   UNL     1       7.214   5.389  16.836  0.00  0.00    +0.000 C 
ATOM      6  N   UNL     1       6.611   5.735  15.637  0.00  0.00    +0.000 N 
ATOM      7  H   UNL     1       6.207   6.664  15.578  0.00  0.00    +0.000 HD
BRANCH   6   8
ATOM      8  C   UNL     1       6.612   4.967  14.454  0.00  0.00    +0.000 A 
ATOM      9  C   UNL     1       5.635   4.004  14.172  0.00  0.00    +0.000 A 
ATOM     10  C   UNL     1       5.663   3.296  12.969  0.00  0.00    +0.000 A 
ATOM     11  C   UNL     1       6.670   3.544  12.049  0.00  0.00    +0.000 A 
ATOM     12  F   UNL     1       6.693   2.867  10.894  0.00  0.00    +0.000 F 
ATOM     13  C   UNL     1       7.651   4.494  12.310  0.00  0.00    +0.000 A 
ATOM     14  C   UNL     1       7.617   5.212  13.510  0.00  0.00    +0.000 A 
ENDBRANCH   6   8
ENDBRANCH   3   5
ENDBRANCH   1   3
BRANCH   1  15
ATOM     15  C   UNL     1       4.552   5.693  18.062  0.00  0.00    +0.000 C 
BRANCH  15  16
ATOM     16  C   UNL     1       4.024   4.272  18.231  0.00  0.00    +0.000 A 
ATOM     17  C   UNL     1       2.978   3.784  17.429  0.00  0.00    +0.000 A 
ATOM     18  C   UNL     1       2.446   2.514  17.646  0.00  0.00    +0.000 A 
ATOM     19  C   UNL     1       2.949   1.713  18.670  0.00  0.00    +0.000 A 
ATOM     20  C   UNL     1       3.997   2.174  19.463  0.00  0.00    +0.000 A 
ATOM     21  C   UNL     1       4.539   3.442  19.240  0.00  0.00    +0.000 A 
ENDBRANCH  15  16
BRANCH  15  22
ATOM     22  C   UNL     1       3.498   6.744  18.414  0.00  0.00    +0.000 A 
ATOM     23  C   UNL     1       2.817   6.661  19.641  0.00  0.00    +0.000 A 
ATOM     24  C   UNL     1       1.859   7.613  19.995  0.00  0.00    +0.000 A 
ATOM     25  C   UNL     1       1.567   8.665  19.130  0.00  0.00    +0.000 A 
ATOM     26  C   UNL     1       2.236   8.770  17.913  0.00  0.00    +0.000 A 
ATOM     27  C   UNL     1       3.195   7.819  17.558  0.00  0.00    +0.000 A 
ENDBRANCH  15  22
ENDBRANCH   1  15
TORSDOF 6
ENDMDL
