MODEL 1
REMARK VINA RESULT:      -8.6      0.000      0.000
REMARK  Name = 
REMARK  4 active torsions:
REMARK  status: ('A' for Active; 'I' for Inactive)
REMARK    1  A    between atoms: C_1  and  N_2
REMARK    2  A    between atoms: C_6  and  C_7
REMARK    3  A    between atoms: C_7  and  C_8
REMARK    4  A    between atoms: C_18  and  C_19
REMARK                            x       y       z     vdW  Elec       q    Type
REMARK                         _______ _______ _______ _____ _____    ______ ____
ROOT
ATOM      1  C   UNL     1       2.588   6.212  18.954  0.00  0.00    +0.000 A 
ATOM      2  N   UNL     1       2.408   7.114  18.005  0.00  0.00    +0.000 NA
ATOM      3  C   UNL     1       1.944   8.206  18.686  0.00  0.00    +0.000 A 
ATOM      4  C   UNL     1       1.295   9.350  18.241  0.00  0.00    +0.000 A 
ATOM      5  C   UNL     1       0.732  10.163  19.224  0.00  0.00    +0.000 A 
ATOM      6  C   UNL     1       0.863   9.874  20.594  0.00  0.00    +0.000 A 
ATOM      7  N   UNL     1       0.178  10.632  21.511  0.00  0.00    +0.000 N 
ATOM      8  C   UNL     1      -0.138  10.089  22.827  0.00  0.00    +0.000 C 
ATOM      9  C   UNL     1      -1.578  10.507  23.142  0.00  0.00    +0.000 C 
ATOM     10  C   UNL     1      -1.761  12.025  23.035  0.00  0.00    +0.000 C 
ATOM     11  C   UNL     1      -1.247  12.578  21.695  0.00  0.00    +0.000 C 
ATOM     12  C   UNL     1       0.186  12.098  21.433  0.00  0.00    +0.000 C 
ATOM     13  N   UNL     1       1.552   8.794  21.040  0.00  0.00    +0.000 NA
ATOM     14  C   UNL     1       2.037   8.020  20.055  0.00  0.00    +0.000 A 
ATOM     15  N   UNL     1       2.618   6.797  20.196  0.00  0.00    +0.000 N 
ATOM     16  H   UNL     1       2.674   6.286  21.064  0.00  0.00    +0.000 HD
ENDROOT
BRANCH  11  17
ATOM     17  C   UNL     1      -1.308  14.101  21.660  0.00  0.00    +0.000 C 
ATOM     18  O   UNL     1      -1.558  14.760  22.670  0.00  0.00    +0.000 OA
ATOM     19  N   UNL     1      -1.075  14.707  20.441  0.00  0.00    +0.000 N 
ATOM     20  C   UNL     1      -0.740  14.085  19.173  0.00  0.00    +0.000 C 
ATOM     21  C   UNL     1       0.129  15.124  18.494  0.00  0.00    +0.000 C 
ATOM     22  C   UNL     1      -0.500  16.442  18.932  0.00  0.00    +0.000 C 
ATOM     23  C   UNL     1      -1.076  16.153  20.318  0.00  0.00    +0.000 C 
ENDBRANCH  11  17
BRANCH   1  24
ATOM     24  C   UNL     1       2.487   4.688  18.723  0.00  0.00    +0.000 C 
ATOM     25  C   UNL     1       2.886   4.136  17.362  0.00  0.00    +0.000 C 
ATOM     26  C   UNL     1       1.446   4.349  17.635  0.00  0.00    +0.000 C 
BRANCH  24  32
ATOM     27  C   UNL     1       4.368   2.284  20.091  0.00  0.00    +0.000 C 
ATOM     28  N   UNL     1       3.027   2.699  20.393  0.00  0.00    +0.000 N 
ATOM     29  N   UNL     1       2.360   2.069  21.383  0.00  0.00    +0.000 NA
ATOM     30  C   UNL     1       1.386   2.935  21.648  0.00  0.00    +0.000 A 
ATOM     31  N   UNL     1       1.394   4.057  20.881  0.00  0.00    +0.000 NA
ATOM     32  C   UNL     1       2.356   3.829  19.999  0.00  0.00    +0.000 A 
ENDBRANCH  24  32
ENDBRANCH   1  24
TORSDOF 3
ENDMDL
MODEL 2
REMARK VINA RESULT:      -8.6      0.876      1.363
REMARK  Name = 
REMARK  4 active torsions:
REMARK  status: ('A' for Active; 'I' for Inactive)
REMARK    1  A    between atoms: C_1  and  N_2
REMARK    2  A    between atoms: C_6  and  C_7
REMARK    3  A    between atoms: C_7  and  C_8
REMARK    4  A    between atoms: C_18  and  C_19
REMARK                            x       y       z     vdW  Elec       q    Type
REMARK                         _______ _______ _______ _____ _____    ______ ____
ROOT
ATOM      1  C   UNL     1       2.771   5.462  18.796  0.00  0.00    +0.000 A 
ATOM      2  N   UNL     1       2.663   6.404  17.875  0.00  0.00    +0.000 NA
ATOM      3  C   UNL     1       2.272   7.504  18.588  0.00  0.00    +0.000 A 
ATOM      4  C   UNL     1       1.710   8.706  18.177  0.00  0.00    +0.000 A 
ATOM      5  C   UNL     1       1.198   9.525  19.182  0.00  0.00    +0.000 A 
ATOM      6  C   UNL     1       1.296   9.184  20.542  0.00  0.00    +0.000 A 
ATOM      7  N   UNL     1       0.659   9.959  21.479  0.00  0.00    +0.000 N 
ATOM      8  C   UNL     1       0.295   9.399  22.775  0.00  0.00    +0.000 C 
ATOM      9  C   UNL     1      -1.114   9.909  23.094  0.00  0.00    +0.000 C 
ATOM     10  C   UNL     1      -1.188  11.438  23.036  0.00  0.00    +0.000 C 
ATOM     11  C   UNL     1      -0.626  11.996  21.717  0.00  0.00    +0.000 C 
ATOM     12  C   UNL     1       0.772  11.423  21.449  0.00  0.00    +0.000 C 
ATOM     13  N   UNL     1       1.903   8.044  20.957  0.00  0.00    +0.000 NA
ATOM     14  C   UNL     1       2.341   7.269  19.952  0.00  0.00    +0.000 A 
ATOM     15  N   UNL     1       2.832   6.004  20.056  0.00  0.00    +0.000 N 
ATOM     16  H   UNL     1       2.845   5.464  20.908  0.00  0.00    +0.000 HD
ENDROOT
BRANCH  11  17
ATOM     17  C   UNL     1      -0.577  13.519  21.730  0.00  0.00    +0.000 C 
ATOM     18  O   UNL     1      -0.487  14.152  22.783  0.00  0.00    +0.000 OA
ATOM     19  N   UNL     1      -0.645  14.156  20.508  0.00  0.00    +0.000 N 
ATOM     20  C   UNL     1      -0.722  13.565  19.185  0.00  0.00    +0.000 C 
ATOM     21  C   UNL     1       0.001  14.570  18.311  0.00  0.00    +0.000 C 
ATOM     22  C   UNL     1      -0.379  15.908  18.933  0.00  0.00    +0.000 C 
ATOM     23  C   UNL     1      -0.570  15.603  20.419  0.00  0.00    +0.000 C 
ENDBRANCH  11  17
BRANCH   1  24
ATOM     24  C   UNL     1       2.564   3.958  18.515  0.00  0.00    +0.000 C 
ATOM     25  C   UNL     1       2.159   3.533  17.111  0.00  0.00    +0.000 C 
ATOM     26  C   UNL     1       1.099   3.649  18.139  0.00  0.00    +0.000 C 
BRANCH  24  32
ATOM     27  C   UNL     1       1.504   2.886  21.501  0.00  0.00    +0.000 C 
ATOM     28  N   UNL     1       2.793   2.772  20.878  0.00  0.00    +0.000 N 
ATOM     29  N   UNL     1       3.781   2.136  21.540  0.00  0.00    +0.000 NA
ATOM     30  C   UNL     1       4.637   1.867  20.558  0.00  0.00    +0.000 A 
ATOM     31  N   UNL     1       4.255   2.306  19.330  0.00  0.00    +0.000 NA
ATOM     32  C   UNL     1       3.151   2.997  19.572  0.00  0.00    +0.000 A 
ENDBRANCH  24  32
ENDBRANCH   1  24
TORSDOF 3
ENDMDL
MODEL 3
REMARK VINA RESULT:      -8.4      3.235      9.720
REMARK  Name = 
REMARK  4 active torsions:
REMARK  status: ('A' for Active; 'I' for Inactive)
REMARK    1  A    between atoms: C_1  and  N_2
REMARK    2  A    between atoms: C_6  and  C_7
REMARK    3  A    between atoms: C_7  and  C_8
REMARK    4  A    between atoms: C_18  and  C_19
REMARK                            x       y       z     vdW  Elec       q    Type
REMARK                         _______ _______ _______ _____ _____    ______ ____
ROOT
ATOM      1  C   UNL     1      -1.843  12.553  22.785  0.00  0.00    +0.000 A 
ATOM      2  N   UNL     1      -1.884  11.421  23.467  0.00  0.00    +0.000 NA
ATOM      3  C   UNL     1      -0.985  10.623  22.814  0.00  0.00    +0.000 A 
ATOM      4  C   UNL     1      -0.793   9.248  22.848  0.00  0.00    +0.000 A 
ATOM      5  C   UNL     1       0.051   8.717  21.873  0.00  0.00    +0.000 A 
ATOM      6  C   UNL     1       0.718   9.534  20.942  0.00  0.00    +0.000 A 
ATOM      7  N   UNL     1       1.430   8.950  19.923  0.00  0.00    +0.000 N 
ATOM      8  C   UNL     1       1.687   9.684  18.690  0.00  0.00    +0.000 C 
ATOM      9  C   UNL     1       1.467   8.701  17.538  0.00  0.00    +0.000 C 
ATOM     10  C   UNL     1       2.322   7.439  17.700  0.00  0.00    +0.000 C 
ATOM     11  C   UNL     1       2.151   6.798  19.087  0.00  0.00    +0.000 C 
ATOM     12  C   UNL     1       2.359   7.845  20.189  0.00  0.00    +0.000 C 
ATOM     13  N   UNL     1       0.589  10.883  20.945  0.00  0.00    +0.000 NA
ATOM     14  C   UNL     1      -0.266  11.342  21.873  0.00  0.00    +0.000 A 
ATOM     15  N   UNL     1      -0.719  12.619  22.000  0.00  0.00    +0.000 N 
ATOM     16  H   UNL     1      -0.525  13.363  21.346  0.00  0.00    +0.000 HD
ENDROOT
BRANCH  11  17
ATOM     17  C   UNL     1       3.110   5.629  19.284  0.00  0.00    +0.000 C 
ATOM     18  O   UNL     1       4.302   5.716  18.987  0.00  0.00    +0.000 OA
ATOM     19  N   UNL     1       2.578   4.466  19.805  0.00  0.00    +0.000 N 
ATOM     20  C   UNL     1       1.215   4.209  20.232  0.00  0.00    +0.000 C 
ATOM     21  C   UNL     1       1.385   3.208  21.357  0.00  0.00    +0.000 C 
ATOM     22  C   UNL     1       2.562   2.359  20.891  0.00  0.00    +0.000 C 
ATOM     23  C   UNL     1       3.420   3.313  20.061  0.00  0.00    +0.000 C 
ENDBRANCH  11  17
BRANCH   1  24
ATOM     24  C   UNL     1      -3.034  13.530  22.669  0.00  0.00    +0.000 C 
ATOM     25  C   UNL     1      -2.816  14.851  21.946  0.00  0.00    +0.000 C 
ATOM     26  C   UNL     1      -2.760  14.847  23.426  0.00  0.00    +0.000 C 
BRANCH  24  32
ATOM     27  C   UNL     1      -5.540  12.465  20.727  0.00  0.00    +0.000 C 
ATOM     28  N   UNL     1      -5.504  12.720  22.139  0.00  0.00    +0.000 N 
ATOM     29  N   UNL     1      -6.622  12.511  22.866  0.00  0.00    +0.000 NA
ATOM     30  C   UNL     1      -6.134  12.443  24.101  0.00  0.00    +0.000 A 
ATOM     31  N   UNL     1      -4.788  12.611  24.195  0.00  0.00    +0.000 NA
ATOM     32  C   UNL     1      -4.423  12.922  22.960  0.00  0.00    +0.000 A 
ENDBRANCH  24  32
ENDBRANCH   1  24
TORSDOF 3
ENDMDL
MODEL 4
REMARK VINA RESULT:      -8.4      1.166      1.528
REMARK  Name = 
REMARK  4 active torsions:
REMARK  status: ('A' for Active; 'I' for Inactive)
REMARK    1  A    between atoms: C_1  and  N_2
REMARK    2  A    between atoms: C_6  and  C_7
REMARK    3  A    between atoms: C_7  and  C_8
REMARK    4  A    between atoms: C_18  and  C_19
REMARK                            x       y       z     vdW  Elec       q    Type
REMARK                         _______ _______ _______ _____ _____    ______ ____
ROOT
ATOM      1  C   UNL     1       2.576   6.192  18.872  0.00  0.00    +0.000 A 
ATOM      2  N   UNL     1       2.320   7.055  17.905  0.00  0.00    +0.000 NA
ATOM      3  C   UNL     1       1.865   8.159  18.574  0.00  0.00    +0.000 A 
ATOM      4  C   UNL     1       1.163   9.271  18.130  0.00  0.00    +0.000 A 
ATOM      5  C   UNL     1       0.634  10.103  19.115  0.00  0.00    +0.000 A 
ATOM      6  C   UNL     1       0.849   9.865  20.484  0.00  0.00    +0.000 A 
ATOM      7  N   UNL     1       0.196  10.637  21.413  0.00  0.00    +0.000 N 
ATOM      8  C   UNL     1      -0.032  10.133  22.761  0.00  0.00    +0.000 C 
ATOM      9  C   UNL     1      -1.462  10.526  23.143  0.00  0.00    +0.000 C 
ATOM     10  C   UNL     1      -1.691  12.034  22.997  0.00  0.00    +0.000 C 
ATOM     11  C   UNL     1      -1.268  12.553  21.612  0.00  0.00    +0.000 C 
ATOM     12  C   UNL     1       0.161  12.099  21.286  0.00  0.00    +0.000 C 
ATOM     13  N   UNL     1       1.590   8.819  20.926  0.00  0.00    +0.000 NA
ATOM     14  C   UNL     1       2.040   8.023  19.942  0.00  0.00    +0.000 A 
ATOM     15  N   UNL     1       2.660   6.820  20.090  0.00  0.00    +0.000 N 
ATOM     16  H   UNL     1       2.778   6.342  20.970  0.00  0.00    +0.000 HD
ENDROOT
BRANCH  11  17
ATOM     17  C   UNL     1      -1.371  14.072  21.530  0.00  0.00    +0.000 C 
ATOM     18  O   UNL     1      -0.368  14.787  21.548  0.00  0.00    +0.000 OA
ATOM     19  N   UNL     1      -2.639  14.608  21.440  0.00  0.00    +0.000 N 
ATOM     20  C   UNL     1      -3.911  13.911  21.376  0.00  0.00    +0.000 C 
ATOM     21  C   UNL     1      -4.771  14.831  20.531  0.00  0.00    +0.000 C 
ATOM     22  C   UNL     1      -4.306  16.221  20.950  0.00  0.00    +0.000 C 
ATOM     23  C   UNL     1      -2.834  16.041  21.320  0.00  0.00    +0.000 C 
ENDBRANCH  11  17
BRANCH   1  24
ATOM     24  C   UNL     1       2.503   4.659  18.697  0.00  0.00    +0.000 C 
ATOM     25  C   UNL     1       2.887   4.066  17.349  0.00  0.00    +0.000 C 
ATOM     26  C   UNL     1       1.448   4.259  17.643  0.00  0.00    +0.000 C 
BRANCH  24  32
ATOM     27  C   UNL     1       4.415   2.282  20.070  0.00  0.00    +0.000 C 
ATOM     28  N   UNL     1       3.091   2.721  20.411  0.00  0.00    +0.000 N 
ATOM     29  N   UNL     1       2.458   2.131  21.447  0.00  0.00    +0.000 NA
ATOM     30  C   UNL     1       1.503   3.016  21.721  0.00  0.00    +0.000 A 
ATOM     31  N   UNL     1       1.491   4.111  20.917  0.00  0.00    +0.000 NA
ATOM     32  C   UNL     1       2.415   3.844  20.006  0.00  0.00    +0.000 A 
ENDBRANCH  24  32
ENDBRANCH   1  24
TORSDOF 3
ENDMDL
MODEL 5
REMARK VINA RESULT:      -8.2      1.916      3.436
REMARK  Name = 
REMARK  4 active torsions:
REMARK  status: ('A' for Active; 'I' for Inactive)
REMARK    1  A    between atoms: C_1  and  N_2
REMARK    2  A    between atoms: C_6  and  C_7
REMARK    3  A    between atoms: C_7  and  C_8
REMARK    4  A    between atoms: C_18  and  C_19
REMARK                            x       y       z     vdW  Elec       q    Type
REMARK                         _______ _______ _______ _____ _____    ______ ____
ROOT
ATOM      1  C   UNL     1       3.162   6.643  18.183  0.00  0.00    +0.000 A 
ATOM      2  N   UNL     1       2.373   6.550  19.239  0.00  0.00    +0.000 NA
ATOM      3  C   UNL     1       1.843   7.806  19.354  0.00  0.00    +0.000 A 
ATOM      4  C   UNL     1       1.195   8.430  20.411  0.00  0.00    +0.000 A 
ATOM      5  C   UNL     1       0.995   9.805  20.291  0.00  0.00    +0.000 A 
ATOM      6  C   UNL     1       1.375  10.513  19.137  0.00  0.00    +0.000 A 
ATOM      7  N   UNL     1       1.277  11.882  19.124  0.00  0.00    +0.000 N 
ATOM      8  C   UNL     1       2.103  12.671  18.218  0.00  0.00    +0.000 C 
ATOM      9  C   UNL     1       2.605  13.877  19.018  0.00  0.00    +0.000 C 
ATOM     10  C   UNL     1       1.447  14.661  19.646  0.00  0.00    +0.000 C 
ATOM     11  C   UNL     1       0.500  13.752  20.447  0.00  0.00    +0.000 C 
ATOM     12  C   UNL     1       0.060  12.555  19.595  0.00  0.00    +0.000 C 
ATOM     13  N   UNL     1       1.948   9.900  18.071  0.00  0.00    +0.000 NA
ATOM     14  C   UNL     1       2.159   8.586  18.254  0.00  0.00    +0.000 A 
ATOM     15  N   UNL     1       2.861   7.756  17.435  0.00  0.00    +0.000 N 
ATOM     16  H   UNL     1       3.384   8.056  16.627  0.00  0.00    +0.000 HD
ENDROOT
BRANCH  11  17
ATOM     17  C   UNL     1      -0.719  14.519  20.947  0.00  0.00    +0.000 C 
ATOM     18  O   UNL     1      -1.097  15.556  20.401  0.00  0.00    +0.000 OA
ATOM     19  N   UNL     1      -1.375  14.001  22.046  0.00  0.00    +0.000 N 
ATOM     20  C   UNL     1      -1.081  12.786  22.783  0.00  0.00    +0.000 C 
ATOM     21  C   UNL     1      -2.444  12.332  23.265  0.00  0.00    +0.000 C 
ATOM     22  C   UNL     1      -3.161  13.644  23.563  0.00  0.00    +0.000 C 
ATOM     23  C   UNL     1      -2.566  14.642  22.571  0.00  0.00    +0.000 C 
ENDBRANCH  11  17
BRANCH   1  24
ATOM     24  C   UNL     1       4.428   5.784  17.976  0.00  0.00    +0.000 C 
ATOM     25  C   UNL     1       5.735   6.490  17.648  0.00  0.00    +0.000 C 
ATOM     26  C   UNL     1       4.961   5.899  16.532  0.00  0.00    +0.000 C 
BRANCH  24  32
ATOM     27  C   UNL     1       2.456   3.188  17.225  0.00  0.00    +0.000 C 
ATOM     28  N   UNL     1       3.364   3.378  18.321  0.00  0.00    +0.000 N 
ATOM     29  N   UNL     1       3.502   2.389  19.229  0.00  0.00    +0.000 NA
ATOM     30  C   UNL     1       4.652   2.715  19.812  0.00  0.00    +0.000 A 
ATOM     31  N   UNL     1       5.233   3.848  19.339  0.00  0.00    +0.000 NA
ATOM     32  C   UNL     1       4.337   4.331  18.491  0.00  0.00    +0.000 A 
ENDBRANCH  24  32
ENDBRANCH   1  24
TORSDOF 3
ENDMDL
MODEL 6
REMARK VINA RESULT:      -8.2      1.385      1.905
REMARK  Name = 
REMARK  4 active torsions:
REMARK  status: ('A' for Active; 'I' for Inactive)
REMARK    1  A    between atoms: C_1  and  N_2
REMARK    2  A    between atoms: C_6  and  C_7
REMARK    3  A    between atoms: C_7  and  C_8
REMARK    4  A    between atoms: C_18  and  C_19
REMARK                            x       y       z     vdW  Elec       q    Type
REMARK                         _______ _______ _______ _____ _____    ______ ____
ROOT
ATOM      1  C   UNL     1       2.796   5.475  18.711  0.00  0.00    +0.000 A 
ATOM      2  N   UNL     1       2.635   6.401  17.781  0.00  0.00    +0.000 NA
ATOM      3  C   UNL     1       2.241   7.502  18.491  0.00  0.00    +0.000 A 
ATOM      4  C   UNL     1       1.636   8.683  18.082  0.00  0.00    +0.000 A 
ATOM      5  C   UNL     1       1.137   9.505  19.091  0.00  0.00    +0.000 A 
ATOM      6  C   UNL     1       1.289   9.186  20.453  0.00  0.00    +0.000 A 
ATOM      7  N   UNL     1       0.665   9.961  21.399  0.00  0.00    +0.000 N 
ATOM      8  C   UNL     1       0.357   9.411  22.714  0.00  0.00    +0.000 C 
ATOM      9  C   UNL     1      -1.052   9.891  23.073  0.00  0.00    +0.000 C 
ATOM     10  C   UNL     1      -1.166  11.418  22.995  0.00  0.00    +0.000 C 
ATOM     11  C   UNL     1      -0.661  11.968  21.651  0.00  0.00    +0.000 C 
ATOM     12  C   UNL     1       0.741  11.426  21.344  0.00  0.00    +0.000 C 
ATOM     13  N   UNL     1       1.938   8.068  20.863  0.00  0.00    +0.000 NA
ATOM     14  C   UNL     1       2.360   7.289  19.855  0.00  0.00    +0.000 A 
ATOM     15  N   UNL     1       2.886   6.038  19.961  0.00  0.00    +0.000 N 
ATOM     16  H   UNL     1       2.940   5.511  20.819  0.00  0.00    +0.000 HD
ENDROOT
BRANCH  11  17
ATOM     17  C   UNL     1      -0.650  13.493  21.641  0.00  0.00    +0.000 C 
ATOM     18  O   UNL     1       0.404  14.129  21.652  0.00  0.00    +0.000 OA
ATOM     19  N   UNL     1      -1.876  14.126  21.625  0.00  0.00    +0.000 N 
ATOM     20  C   UNL     1      -3.199  13.531  21.580  0.00  0.00    +0.000 C 
ATOM     21  C   UNL     1      -4.015  14.552  20.813  0.00  0.00    +0.000 C 
ATOM     22  C   UNL     1      -3.430  15.882  21.275  0.00  0.00    +0.000 C 
ATOM     23  C   UNL     1      -1.964  15.574  21.578  0.00  0.00    +0.000 C 
ENDBRANCH  11  17
BRANCH   1  24
ATOM     24  C   UNL     1       2.617   3.963  18.458  0.00  0.00    +0.000 C 
ATOM     25  C   UNL     1       2.313   3.497  17.042  0.00  0.00    +0.000 C 
ATOM     26  C   UNL     1       1.184   3.633  17.990  0.00  0.00    +0.000 C 
BRANCH  24  32
ATOM     27  C   UNL     1       1.309   2.872  21.337  0.00  0.00    +0.000 C 
ATOM     28  N   UNL     1       2.656   2.807  20.846  0.00  0.00    +0.000 N 
ATOM     29  N   UNL     1       3.599   2.217  21.612  0.00  0.00    +0.000 NA
ATOM     30  C   UNL     1       4.558   1.976  20.723  0.00  0.00    +0.000 A 
ATOM     31  N   UNL     1       4.283   2.388  19.458  0.00  0.00    +0.000 NA
ATOM     32  C   UNL     1       3.134   3.035  19.580  0.00  0.00    +0.000 A 
ENDBRANCH  24  32
ENDBRANCH   1  24
TORSDOF 3
ENDMDL
MODEL 7
REMARK VINA RESULT:      -8.2      3.093      9.721
REMARK  Name = 
REMARK  4 active torsions:
REMARK  status: ('A' for Active; 'I' for Inactive)
REMARK    1  A    between atoms: C_1  and  N_2
REMARK    2  A    between atoms: C_6  and  C_7
REMARK    3  A    between atoms: C_7  and  C_8
REMARK    4  A    between atoms: C_18  and  C_19
REMARK                            x       y       z     vdW  Elec       q    Type
REMARK                         _______ _______ _______ _____ _____    ______ ____
ROOT
ATOM      1  C   UNL     1      -1.602  12.650  22.730  0.00  0.00    +0.000 A 
ATOM      2  N   UNL     1      -1.741  11.512  23.389  0.00  0.00    +0.000 NA
ATOM      3  C   UNL     1      -0.873  10.667  22.753  0.00  0.00    +0.000 A 
ATOM      4  C   UNL     1      -0.772   9.282  22.768  0.00  0.00    +0.000 A 
ATOM      5  C   UNL     1       0.070   8.712  21.814  0.00  0.00    +0.000 A 
ATOM      6  C   UNL     1       0.822   9.498  20.923  0.00  0.00    +0.000 A 
ATOM      7  N   UNL     1       1.531   8.885  19.918  0.00  0.00    +0.000 N 
ATOM      8  C   UNL     1       1.880   9.621  18.709  0.00  0.00    +0.000 C 
ATOM      9  C   UNL     1       1.637   8.672  17.531  0.00  0.00    +0.000 C 
ATOM     10  C   UNL     1       2.402   7.355  17.700  0.00  0.00    +0.000 C 
ATOM     11  C   UNL     1       2.139   6.704  19.069  0.00  0.00    +0.000 C 
ATOM     12  C   UNL     1       2.375   7.717  20.196  0.00  0.00    +0.000 C 
ATOM     13  N   UNL     1       0.782  10.853  20.945  0.00  0.00    +0.000 NA
ATOM     14  C   UNL     1      -0.075  11.352  21.851  0.00  0.00    +0.000 A 
ATOM     15  N   UNL     1      -0.448  12.654  21.985  0.00  0.00    +0.000 N 
ATOM     16  H   UNL     1      -0.182  13.394  21.353  0.00  0.00    +0.000 HD
ENDROOT
BRANCH  11  17
ATOM     17  C   UNL     1       3.012   5.471  19.277  0.00  0.00    +0.000 C 
ATOM     18  O   UNL     1       4.128   5.551  19.790  0.00  0.00    +0.000 OA
ATOM     19  N   UNL     1       2.494   4.262  18.859  0.00  0.00    +0.000 N 
ATOM     20  C   UNL     1       1.195   3.991  18.270  0.00  0.00    +0.000 C 
ATOM     21  C   UNL     1       0.881   2.588  18.749  0.00  0.00    +0.000 C 
ATOM     22  C   UNL     1       2.244   1.907  18.748  0.00  0.00    +0.000 C 
ATOM     23  C   UNL     1       3.236   3.030  19.050  0.00  0.00    +0.000 C 
ENDBRANCH  11  17
BRANCH   1  24
ATOM     24  C   UNL     1      -2.721  13.705  22.590  0.00  0.00    +0.000 C 
ATOM     25  C   UNL     1      -2.345  15.176  22.694  0.00  0.00    +0.000 C 
ATOM     26  C   UNL     1      -2.904  14.511  23.893  0.00  0.00    +0.000 C 
BRANCH  24  32
ATOM     27  C   UNL     1      -5.719  12.973  23.880  0.00  0.00    +0.000 C 
ATOM     28  N   UNL     1      -5.171  12.687  22.585  0.00  0.00    +0.000 N 
ATOM     29  N   UNL     1      -5.934  12.026  21.688  0.00  0.00    +0.000 NA
ATOM     30  C   UNL     1      -5.306  12.296  20.547  0.00  0.00    +0.000 A 
ATOM     31  N   UNL     1      -4.195  13.068  20.674  0.00  0.00    +0.000 NA
ATOM     32  C   UNL     1      -4.046  13.193  21.984  0.00  0.00    +0.000 A 
ENDBRANCH  24  32
ENDBRANCH   1  24
TORSDOF 3
ENDMDL
MODEL 8
REMARK VINA RESULT:      -8.2      2.427      4.314
REMARK  Name = 
REMARK  4 active torsions:
REMARK  status: ('A' for Active; 'I' for Inactive)
REMARK    1  A    between atoms: C_1  and  N_2
REMARK    2  A    between atoms: C_6  and  C_7
REMARK    3  A    between atoms: C_7  and  C_8
REMARK    4  A    between atoms: C_18  and  C_19
REMARK                            x       y       z     vdW  Elec       q    Type
REMARK                         _______ _______ _______ _____ _____    ______ ____
ROOT
ATOM      1  C   UNL     1       3.330   5.704  18.525  0.00  0.00    +0.000 A 
ATOM      2  N   UNL     1       2.606   5.708  19.631  0.00  0.00    +0.000 NA
ATOM      3  C   UNL     1       2.044   6.955  19.639  0.00  0.00    +0.000 A 
ATOM      4  C   UNL     1       1.436   7.675  20.660  0.00  0.00    +0.000 A 
ATOM      5  C   UNL     1       1.187   9.023  20.403  0.00  0.00    +0.000 A 
ATOM      6  C   UNL     1       1.479   9.609  19.158  0.00  0.00    +0.000 A 
ATOM      7  N   UNL     1       1.338  10.966  19.003  0.00  0.00    +0.000 N 
ATOM      8  C   UNL     1       2.087  11.671  17.970  0.00  0.00    +0.000 C 
ATOM      9  C   UNL     1       2.595  12.970  18.603  0.00  0.00    +0.000 C 
ATOM     10  C   UNL     1       1.450  13.789  19.209  0.00  0.00    +0.000 C 
ATOM     11  C   UNL     1       0.578  12.950  20.159  0.00  0.00    +0.000 C 
ATOM     12  C   UNL     1       0.129  11.656  19.470  0.00  0.00    +0.000 C 
ATOM     13  N   UNL     1       2.011   8.897  18.134  0.00  0.00    +0.000 NA
ATOM     14  C   UNL     1       2.272   7.617  18.445  0.00  0.00    +0.000 A 
ATOM     15  N   UNL     1       2.953   6.720  17.681  0.00  0.00    +0.000 N 
ATOM     16  H   UNL     1       3.421   6.942  16.815  0.00  0.00    +0.000 HD
ENDROOT
BRANCH  11  17
ATOM     17  C   UNL     1      -0.634  13.737  20.645  0.00  0.00    +0.000 C 
ATOM     18  O   UNL     1      -1.059  14.713  20.025  0.00  0.00    +0.000 OA
ATOM     19  N   UNL     1      -1.229  13.308  21.814  0.00  0.00    +0.000 N 
ATOM     20  C   UNL     1      -0.876  12.170  22.642  0.00  0.00    +0.000 C 
ATOM     21  C   UNL     1      -2.206  11.736  23.226  0.00  0.00    +0.000 C 
ATOM     22  C   UNL     1      -2.938  13.056  23.438  0.00  0.00    +0.000 C 
ATOM     23  C   UNL     1      -2.410  13.972  22.334  0.00  0.00    +0.000 C 
ENDBRANCH  11  17
BRANCH   1  24
ATOM     24  C   UNL     1       4.609   4.859  18.339  0.00  0.00    +0.000 C 
ATOM     25  C   UNL     1       4.861   3.706  19.300  0.00  0.00    +0.000 C 
ATOM     26  C   UNL     1       5.555   4.990  19.552  0.00  0.00    +0.000 C 
BRANCH  24  32
ATOM     27  C   UNL     1       6.796   7.078  17.121  0.00  0.00    +0.000 C 
ATOM     28  N   UNL     1       6.023   6.072  16.449  0.00  0.00    +0.000 N 
ATOM     29  N   UNL     1       6.154   5.936  15.113  0.00  0.00    +0.000 NA
ATOM     30  C   UNL     1       5.652   4.720  14.913  0.00  0.00    +0.000 A 
ATOM     31  N   UNL     1       5.203   4.096  16.033  0.00  0.00    +0.000 NA
ATOM     32  C   UNL     1       5.319   5.018  16.976  0.00  0.00    +0.000 A 
ENDBRANCH  24  32
ENDBRANCH   1  24
TORSDOF 3
ENDMDL
MODEL 9
REMARK VINA RESULT:      -8.1      2.456      4.086
REMARK  Name = 
REMARK  4 active torsions:
REMARK  status: ('A' for Active; 'I' for Inactive)
REMARK    1  A    between atoms: C_1  and  N_2
REMARK    2  A    between atoms: C_6  and  C_7
REMARK    3  A    between atoms: C_7  and  C_8
REMARK    4  A    between atoms: C_18  and  C_19
REMARK                            x       y       z     vdW  Elec       q    Type
REMARK                         _______ _______ _______ _____ _____    ______ ____
ROOT
ATOM      1  C   UNL     1       3.188   5.459  18.855  0.00  0.00    +0.000 A 
ATOM      2  N   UNL     1       2.528   5.550  19.996  0.00  0.00    +0.000 NA
ATOM      3  C   UNL     1       1.973   6.799  19.946  0.00  0.00    +0.000 A 
ATOM      4  C   UNL     1       1.428   7.596  20.944  0.00  0.00    +0.000 A 
ATOM      5  C   UNL     1       1.170   8.924  20.604  0.00  0.00    +0.000 A 
ATOM      6  C   UNL     1       1.394   9.415  19.305  0.00  0.00    +0.000 A 
ATOM      7  N   UNL     1       1.250  10.758  19.060  0.00  0.00    +0.000 N 
ATOM      8  C   UNL     1       1.941  11.380  17.937  0.00  0.00    +0.000 C 
ATOM      9  C   UNL     1       2.490  12.717  18.443  0.00  0.00    +0.000 C 
ATOM     10  C   UNL     1       1.386  13.588  19.053  0.00  0.00    +0.000 C 
ATOM     11  C   UNL     1       0.566  12.828  20.109  0.00  0.00    +0.000 C 
ATOM     12  C   UNL     1       0.072  11.491  19.543  0.00  0.00    +0.000 C 
ATOM     13  N   UNL     1       1.862   8.627  18.307  0.00  0.00    +0.000 NA
ATOM     14  C   UNL     1       2.136   7.370  18.695  0.00  0.00    +0.000 A 
ATOM     15  N   UNL     1       2.768   6.414  17.961  0.00  0.00    +0.000 N 
ATOM     16  H   UNL     1       3.186   6.569  17.056  0.00  0.00    +0.000 HD
ENDROOT
BRANCH  11  17
ATOM     17  C   UNL     1      -0.613  13.658  20.604  0.00  0.00    +0.000 C 
ATOM     18  O   UNL     1      -1.023  14.634  19.975  0.00  0.00    +0.000 OA
ATOM     19  N   UNL     1      -1.196  13.268  21.793  0.00  0.00    +0.000 N 
ATOM     20  C   UNL     1      -0.858  12.136  22.636  0.00  0.00    +0.000 C 
ATOM     21  C   UNL     1      -2.187  11.752  23.254  0.00  0.00    +0.000 C 
ATOM     22  C   UNL     1      -2.877  13.096  23.456  0.00  0.00    +0.000 C 
ATOM     23  C   UNL     1      -2.346  13.976  22.324  0.00  0.00    +0.000 C 
ENDBRANCH  11  17
BRANCH   1  24
ATOM     24  C   UNL     1       4.451   4.592  18.658  0.00  0.00    +0.000 C 
ATOM     25  C   UNL     1       4.288   3.206  18.049  0.00  0.00    +0.000 C 
ATOM     26  C   UNL     1       4.399   3.313  19.522  0.00  0.00    +0.000 C 
BRANCH  24  32
ATOM     27  C   UNL     1       5.978   6.816  16.680  0.00  0.00    +0.000 C 
ATOM     28  N   UNL     1       6.481   6.066  17.797  0.00  0.00    +0.000 N 
ATOM     29  N   UNL     1       7.766   6.243  18.172  0.00  0.00    +0.000 NA
ATOM     30  C   UNL     1       7.758   5.749  19.407  0.00  0.00    +0.000 A 
ATOM     31  N   UNL     1       6.559   5.264  19.822  0.00  0.00    +0.000 NA
ATOM     32  C   UNL     1       5.795   5.346  18.743  0.00  0.00    +0.000 A 
ENDBRANCH  24  32
ENDBRANCH   1  24
TORSDOF 3
ENDMDL
