MODEL 1
REMARK VINA RESULT:      -6.8      0.000      0.000
REMARK  Name = 
REMARK  11 active torsions:
REMARK  status: ('A' for Active; 'I' for Inactive)
REMARK    1  A    between atoms: C_1  and  C_2
REMARK    2  A    between atoms: C_2  and  O_3
REMARK    3  A    between atoms: O_3  and  C_4
REMARK    4  A    between atoms: C_8  and  C_9
REMARK    5  A    between atoms: C_9  and  N_10
REMARK    6  A    between atoms: N_10  and  C_11
REMARK    7  A    between atoms: C_11  and  C_12
REMARK    8  A    between atoms: C_12  and  O_13
REMARK    9  A    between atoms: C_12  and  C_14
REMARK   10  A    between atoms: C_21  and  O_22
REMARK   11  A    between atoms: O_22  and  C_23
REMARK                            x       y       z     vdW  Elec       q    Type
REMARK                         _______ _______ _______ _____ _____    ______ ____
ROOT
ATOM      1  C   UNL     1       4.639   7.216  17.173  0.00  0.00    +0.000 C 
ENDROOT
BRANCH   1   6
ATOM      2  C   UNL     1       1.823   4.670  19.288  0.00  0.00    +0.000 A 
ATOM      3  C   UNL     1       2.044   6.026  19.687  0.00  0.00    +0.000 A 
ATOM      4 CL   UNL     1       1.243   6.849  21.025  0.00  0.00    +0.000 Cl
ATOM      5  C   UNL     1       2.960   6.822  19.000  0.00  0.00    +0.000 A 
ATOM      6  C   UNL     1       3.675   6.326  17.912  0.00  0.00    +0.000 A 
ATOM      7  C   UNL     1       3.488   5.001  17.520  0.00  0.00    +0.000 A 
ATOM      8  C   UNL     1       2.582   4.164  18.187  0.00  0.00    +0.000 A 
BRANCH   8   9
ATOM      9  O   UNL     1       2.500   2.892  17.705  0.00  0.00    +0.000 OA
ATOM     10  C   UNL     1       3.310   1.813  17.975  0.00  0.00    +0.000 C 
ENDBRANCH   8   9
BRANCH   2  11
ATOM     11  O   UNL     1       0.922   3.841  19.894  0.00  0.00    +0.000 OA
BRANCH  11  13
ATOM     12  C   UNL     1       2.304   3.201  21.746  0.00  0.00    +0.000 C 
ATOM     13  C   UNL     1       1.175   2.824  20.800  0.00  0.00    +0.000 C 
ENDBRANCH  11  13
ENDBRANCH   2  11
ENDBRANCH   1   6
BRANCH   1  14
ATOM     14  N   UNL     1       5.330   6.454  16.123  0.00  0.00    +0.000 NA
ATOM     15  H   UNL     1       5.353   7.036  15.252  0.00  0.00    +0.000 HD
BRANCH  14  16
ATOM     16  C   UNL     1       6.710   6.175  16.538  0.00  0.00    +0.000 C 
BRANCH  16  17
ATOM     17  C   UNL     1       7.149   4.755  16.125  0.00  0.00    +0.000 C 
BRANCH  17  18
ATOM     18  C   UNL     1       7.010   4.570  14.626  0.00  0.00    +0.000 A 
ATOM     19  C   UNL     1       6.080   3.651  14.109  0.00  0.00    +0.000 A 
ATOM     20  C   UNL     1       5.968   3.460  12.728  0.00  0.00    +0.000 A 
ATOM     21  C   UNL     1       6.783   4.180  11.852  0.00  0.00    +0.000 A 
ATOM     22  C   UNL     1       7.706   5.100  12.354  0.00  0.00    +0.000 A 
ATOM     23  C   UNL     1       7.818   5.299  13.732  0.00  0.00    +0.000 A 
ENDBRANCH  17  18
BRANCH  17  24
ATOM     24  O   UNL     1       6.432   3.760  16.816  0.00  0.00    +0.000 OA
ATOM     25  H   UNL     1       6.145   4.135  17.688  0.00  0.00    +0.000 HD
ENDBRANCH  17  24
ENDBRANCH  16  17
ENDBRANCH  14  16
ENDBRANCH   1  14
TORSDOF 9
ENDMDL
MODEL 2
REMARK VINA RESULT:      -6.7      2.131      4.074
REMARK  Name = 
REMARK  11 active torsions:
REMARK  status: ('A' for Active; 'I' for Inactive)
REMARK    1  A    between atoms: C_1  and  C_2
REMARK    2  A    between atoms: C_2  and  O_3
REMARK    3  A    between atoms: O_3  and  C_4
REMARK    4  A    between atoms: C_8  and  C_9
REMARK    5  A    between atoms: C_9  and  N_10
REMARK    6  A    between atoms: N_10  and  C_11
REMARK    7  A    between atoms: C_11  and  C_12
REMARK    8  A    between atoms: C_12  and  O_13
REMARK    9  A    between atoms: C_12  and  C_14
REMARK   10  A    between atoms: C_21  and  O_22
REMARK   11  A    between atoms: O_22  and  C_23
REMARK                            x       y       z     vdW  Elec       q    Type
REMARK                         _______ _______ _______ _____ _____    ______ ____
ROOT
ATOM      1  C   UNL     1       4.318   3.342  17.353  0.00  0.00    +0.000 C 
ENDROOT
BRANCH   1   6
ATOM      2  C   UNL     1       2.106   6.052  19.931  0.00  0.00    +0.000 A 
ATOM      3  C   UNL     1       2.682   6.500  18.701  0.00  0.00    +0.000 A 
ATOM      4 CL   UNL     1       2.583   8.138  18.056  0.00  0.00    +0.000 Cl
ATOM      5  C   UNL     1       3.396   5.616  17.894  0.00  0.00    +0.000 A 
ATOM      6  C   UNL     1       3.563   4.281  18.256  0.00  0.00    +0.000 A 
ATOM      7  C   UNL     1       3.026   3.829  19.461  0.00  0.00    +0.000 A 
ATOM      8  C   UNL     1       2.307   4.686  20.306  0.00  0.00    +0.000 A 
BRANCH   8   9
ATOM      9  O   UNL     1       1.841   4.118  21.454  0.00  0.00    +0.000 OA
ATOM     10  C   UNL     1       1.777   2.785  21.792  0.00  0.00    +0.000 C 
ENDBRANCH   8   9
BRANCH   2  11
ATOM     11  O   UNL     1       1.369   6.852  20.759  0.00  0.00    +0.000 OA
BRANCH  11  13
ATOM     12  C   UNL     1       0.242   8.935  21.132  0.00  0.00    +0.000 C 
ATOM     13  C   UNL     1       1.566   8.192  21.044  0.00  0.00    +0.000 C 
ENDBRANCH  11  13
ENDBRANCH   2  11
ENDBRANCH   1   6
BRANCH   1  14
ATOM     14  N   UNL     1       4.494   3.946  16.025  0.00  0.00    +0.000 NA
ATOM     15  H   UNL     1       4.264   4.966  16.093  0.00  0.00    +0.000 HD
BRANCH  14  16
ATOM     16  C   UNL     1       5.890   3.806  15.597  0.00  0.00    +0.000 C 
BRANCH  16  17
ATOM     17  C   UNL     1       6.563   5.182  15.404  0.00  0.00    +0.000 C 
BRANCH  17  18
ATOM     18  C   UNL     1       7.117   5.692  16.719  0.00  0.00    +0.000 A 
ATOM     19  C   UNL     1       7.307   7.071  16.920  0.00  0.00    +0.000 A 
ATOM     20  C   UNL     1       7.843   7.543  18.123  0.00  0.00    +0.000 A 
ATOM     21  C   UNL     1       8.194   6.646  19.134  0.00  0.00    +0.000 A 
ATOM     22  C   UNL     1       8.005   5.275  18.948  0.00  0.00    +0.000 A 
ATOM     23  C   UNL     1       7.465   4.799  17.751  0.00  0.00    +0.000 A 
ENDBRANCH  17  18
BRANCH  17  24
ATOM     24  O   UNL     1       5.683   6.122  14.837  0.00  0.00    +0.000 OA
ATOM     25  H   UNL     1       5.410   6.758  15.548  0.00  0.00    +0.000 HD
ENDBRANCH  17  24
ENDBRANCH  16  17
ENDBRANCH  14  16
ENDBRANCH   1  14
TORSDOF 9
ENDMDL
MODEL 3
REMARK VINA RESULT:      -6.7      2.149      2.806
REMARK  Name = 
REMARK  11 active torsions:
REMARK  status: ('A' for Active; 'I' for Inactive)
REMARK    1  A    between atoms: C_1  and  C_2
REMARK    2  A    between atoms: C_2  and  O_3
REMARK    3  A    between atoms: O_3  and  C_4
REMARK    4  A    between atoms: C_8  and  C_9
REMARK    5  A    between atoms: C_9  and  N_10
REMARK    6  A    between atoms: N_10  and  C_11
REMARK    7  A    between atoms: C_11  and  C_12
REMARK    8  A    between atoms: C_12  and  O_13
REMARK    9  A    between atoms: C_12  and  C_14
REMARK   10  A    between atoms: C_21  and  O_22
REMARK   11  A    between atoms: O_22  and  C_23
REMARK                            x       y       z     vdW  Elec       q    Type
REMARK                         _______ _______ _______ _____ _____    ______ ____
ROOT
ATOM      1  C   UNL     1       7.038   4.889  18.665  0.00  0.00    +0.000 C 
ENDROOT
BRANCH   1   6
ATOM      2  C   UNL     1       2.795   4.111  19.190  0.00  0.00    +0.000 A 
ATOM      3  C   UNL     1       3.693   3.080  18.771  0.00  0.00    +0.000 A 
ATOM      4 CL   UNL     1       3.252   1.407  18.430  0.00  0.00    +0.000 Cl
ATOM      5  C   UNL     1       5.050   3.355  18.599  0.00  0.00    +0.000 A 
ATOM      6  C   UNL     1       5.565   4.628  18.834  0.00  0.00    +0.000 A 
ATOM      7  C   UNL     1       4.702   5.651  19.224  0.00  0.00    +0.000 A 
ATOM      8  C   UNL     1       3.330   5.421  19.401  0.00  0.00    +0.000 A 
BRANCH   8   9
ATOM      9  O   UNL     1       2.600   6.508  19.779  0.00  0.00    +0.000 OA
ATOM     10  C   UNL     1       2.294   7.635  19.052  0.00  0.00    +0.000 C 
ENDBRANCH   8   9
BRANCH   2  11
ATOM     11  O   UNL     1       1.461   3.911  19.407  0.00  0.00    +0.000 OA
BRANCH  11  13
ATOM     12  C   UNL     1       1.826   3.034  21.609  0.00  0.00    +0.000 C 
ATOM     13  C   UNL     1       0.861   3.226  20.450  0.00  0.00    +0.000 C 
ENDBRANCH  11  13
ENDBRANCH   2  11
ENDBRANCH   1   6
BRANCH   1  14
ATOM     14  N   UNL     1       7.458   4.559  17.296  0.00  0.00    +0.000 NA
ATOM     15  H   UNL     1       6.897   3.737  16.967  0.00  0.00    +0.000 HD
BRANCH  14  16
ATOM     16  C   UNL     1       7.193   5.696  16.407  0.00  0.00    +0.000 C 
BRANCH  16  17
ATOM     17  C   UNL     1       5.906   5.479  15.583  0.00  0.00    +0.000 C 
BRANCH  17  18
ATOM     18  C   UNL     1       6.233   4.850  14.242  0.00  0.00    +0.000 A 
ATOM     19  C   UNL     1       5.383   3.875  13.691  0.00  0.00    +0.000 A 
ATOM     20  C   UNL     1       5.696   3.274  12.467  0.00  0.00    +0.000 A 
ATOM     21  C   UNL     1       6.858   3.638  11.784  0.00  0.00    +0.000 A 
ATOM     22  C   UNL     1       7.708   4.609  12.319  0.00  0.00    +0.000 A 
ATOM     23  C   UNL     1       7.397   5.216  13.539  0.00  0.00    +0.000 A 
ENDBRANCH  17  18
BRANCH  17  24
ATOM     24  O   UNL     1       5.186   6.676  15.407  0.00  0.00    +0.000 OA
ATOM     25  H   UNL     1       4.465   6.706  16.087  0.00  0.00    +0.000 HD
ENDBRANCH  17  24
ENDBRANCH  16  17
ENDBRANCH  14  16
ENDBRANCH   1  14
TORSDOF 9
ENDMDL
MODEL 4
REMARK VINA RESULT:      -6.7      1.559      2.630
REMARK  Name = 
REMARK  11 active torsions:
REMARK  status: ('A' for Active; 'I' for Inactive)
REMARK    1  A    between atoms: C_1  and  C_2
REMARK    2  A    between atoms: C_2  and  O_3
REMARK    3  A    between atoms: O_3  and  C_4
REMARK    4  A    between atoms: C_8  and  C_9
REMARK    5  A    between atoms: C_9  and  N_10
REMARK    6  A    between atoms: N_10  and  C_11
REMARK    7  A    between atoms: C_11  and  C_12
REMARK    8  A    between atoms: C_12  and  O_13
REMARK    9  A    between atoms: C_12  and  C_14
REMARK   10  A    between atoms: C_21  and  O_22
REMARK   11  A    between atoms: O_22  and  C_23
REMARK                            x       y       z     vdW  Elec       q    Type
REMARK                         _______ _______ _______ _____ _____    ______ ____
ROOT
ATOM      1  C   UNL     1       4.563   6.598  17.003  0.00  0.00    +0.000 C 
ENDROOT
BRANCH   1   6
ATOM      2  C   UNL     1       1.768   4.393  19.495  0.00  0.00    +0.000 A 
ATOM      3  C   UNL     1       2.379   3.790  18.351  0.00  0.00    +0.000 A 
ATOM      4 CL   UNL     1       2.123   2.135  17.800  0.00  0.00    +0.000 Cl
ATOM      5  C   UNL     1       3.266   4.520  17.560  0.00  0.00    +0.000 A 
ATOM      6  C   UNL     1       3.584   5.842  17.861  0.00  0.00    +0.000 A 
ATOM      7  C   UNL     1       2.983   6.454  18.960  0.00  0.00    +0.000 A 
ATOM      8  C   UNL     1       2.080   5.760  19.779  0.00  0.00    +0.000 A 
BRANCH   8   9
ATOM      9  O   UNL     1       1.563   6.477  20.816  0.00  0.00    +0.000 OA
ATOM     10  C   UNL     1       1.338   7.832  20.900  0.00  0.00    +0.000 C 
ENDBRANCH   8   9
BRANCH   2  11
ATOM     11  O   UNL     1       0.913   3.734  20.333  0.00  0.00    +0.000 OA
BRANCH  11  13
ATOM     12  C   UNL     1       2.732   2.658  21.468  0.00  0.00    +0.000 C 
ATOM     13  C   UNL     1       1.232   2.901  21.392  0.00  0.00    +0.000 C 
ENDBRANCH  11  13
ENDBRANCH   2  11
ENDBRANCH   1   6
BRANCH   1  14
ATOM     14  N   UNL     1       5.907   6.541  17.596  0.00  0.00    +0.000 NA
ATOM     15  H   UNL     1       5.980   5.664  18.166  0.00  0.00    +0.000 HD
BRANCH  14  16
ATOM     16  C   UNL     1       6.917   6.495  16.533  0.00  0.00    +0.000 C 
BRANCH  16  17
ATOM     17  C   UNL     1       7.369   5.047  16.244  0.00  0.00    +0.000 C 
BRANCH  17  18
ATOM     18  C   UNL     1       6.989   4.643  14.833  0.00  0.00    +0.000 A 
ATOM     19  C   UNL     1       7.748   5.095  13.739  0.00  0.00    +0.000 A 
ATOM     20  C   UNL     1       7.384   4.745  12.434  0.00  0.00    +0.000 A 
ATOM     21  C   UNL     1       6.262   3.945  12.209  0.00  0.00    +0.000 A 
ATOM     22  C   UNL     1       5.504   3.486  13.288  0.00  0.00    +0.000 A 
ATOM     23  C   UNL     1       5.866   3.827  14.594  0.00  0.00    +0.000 A 
ENDBRANCH  17  18
BRANCH  17  24
ATOM     24  O   UNL     1       6.845   4.136  17.180  0.00  0.00    +0.000 OA
ATOM     25  H   UNL     1       5.855   4.209  17.162  0.00  0.00    +0.000 HD
ENDBRANCH  17  24
ENDBRANCH  16  17
ENDBRANCH  14  16
ENDBRANCH   1  14
TORSDOF 9
ENDMDL
MODEL 5
REMARK VINA RESULT:      -6.6      1.660      2.198
REMARK  Name = 
REMARK  11 active torsions:
REMARK  status: ('A' for Active; 'I' for Inactive)
REMARK    1  A    between atoms: C_1  and  C_2
REMARK    2  A    between atoms: C_2  and  O_3
REMARK    3  A    between atoms: O_3  and  C_4
REMARK    4  A    between atoms: C_8  and  C_9
REMARK    5  A    between atoms: C_9  and  N_10
REMARK    6  A    between atoms: N_10  and  C_11
REMARK    7  A    between atoms: C_11  and  C_12
REMARK    8  A    between atoms: C_12  and  O_13
REMARK    9  A    between atoms: C_12  and  C_14
REMARK   10  A    between atoms: C_21  and  O_22
REMARK   11  A    between atoms: O_22  and  C_23
REMARK                            x       y       z     vdW  Elec       q    Type
REMARK                         _______ _______ _______ _____ _____    ______ ____
ROOT
ATOM      1  C   UNL     1       5.189   5.991  15.685  0.00  0.00    +0.000 C 
ENDROOT
BRANCH   1   6
ATOM      2  C   UNL     1       3.039   5.104  19.356  0.00  0.00    +0.000 A 
ATOM      3  C   UNL     1       3.030   6.417  18.788  0.00  0.00    +0.000 A 
ATOM      4 CL   UNL     1       2.178   7.816  19.443  0.00  0.00    +0.000 Cl
ATOM      5  C   UNL     1       3.735   6.682  17.614  0.00  0.00    +0.000 A 
ATOM      6  C   UNL     1       4.457   5.683  16.964  0.00  0.00    +0.000 A 
ATOM      7  C   UNL     1       4.494   4.402  17.513  0.00  0.00    +0.000 A 
ATOM      8  C   UNL     1       3.806   4.094  18.695  0.00  0.00    +0.000 A 
BRANCH   8   9
ATOM      9  O   UNL     1       3.930   2.807  19.124  0.00  0.00    +0.000 OA
ATOM     10  C   UNL     1       3.585   1.644  18.474  0.00  0.00    +0.000 C 
ENDBRANCH   8   9
BRANCH   2  11
ATOM     11  O   UNL     1       2.349   4.763  20.486  0.00  0.00    +0.000 OA
BRANCH  11  13
ATOM     12  C   UNL     1       1.227   2.782  21.238  0.00  0.00    +0.000 C 
ATOM     13  C   UNL     1       1.113   4.146  20.576  0.00  0.00    +0.000 C 
ENDBRANCH  11  13
ENDBRANCH   2  11
ENDBRANCH   1   6
BRANCH   1  14
ATOM     14  N   UNL     1       6.640   5.923  15.902  0.00  0.00    +0.000 NA
ATOM     15  H   UNL     1       6.814   5.677  16.905  0.00  0.00    +0.000 HD
BRANCH  14  16
ATOM     16  C   UNL     1       7.220   4.876  15.054  0.00  0.00    +0.000 C 
BRANCH  16  17
ATOM     17  C   UNL     1       7.144   5.252  13.559  0.00  0.00    +0.000 C 
BRANCH  17  18
ATOM     18  C   UNL     1       6.598   4.094  12.746  0.00  0.00    +0.000 A 
ATOM     19  C   UNL     1       7.477   3.212  12.092  0.00  0.00    +0.000 A 
ATOM     20  C   UNL     1       6.976   2.158  11.321  0.00  0.00    +0.000 A 
ATOM     21  C   UNL     1       5.598   1.975  11.193  0.00  0.00    +0.000 A 
ATOM     22  C   UNL     1       4.716   2.841  11.842  0.00  0.00    +0.000 A 
ATOM     23  C   UNL     1       5.210   3.893  12.619  0.00  0.00    +0.000 A 
ENDBRANCH  17  18
BRANCH  17  24
ATOM     24  O   UNL     1       8.390   5.668  13.056  0.00  0.00    +0.000 OA
ATOM     25  H   UNL     1       9.075   5.009  13.343  0.00  0.00    +0.000 HD
ENDBRANCH  17  24
ENDBRANCH  16  17
ENDBRANCH  14  16
ENDBRANCH   1  14
TORSDOF 9
ENDMDL
MODEL 6
REMARK VINA RESULT:      -6.4      2.098      2.956
REMARK  Name = 
REMARK  11 active torsions:
REMARK  status: ('A' for Active; 'I' for Inactive)
REMARK    1  A    between atoms: C_1  and  C_2
REMARK    2  A    between atoms: C_2  and  O_3
REMARK    3  A    between atoms: O_3  and  C_4
REMARK    4  A    between atoms: C_8  and  C_9
REMARK    5  A    between atoms: C_9  and  N_10
REMARK    6  A    between atoms: N_10  and  C_11
REMARK    7  A    between atoms: C_11  and  C_12
REMARK    8  A    between atoms: C_12  and  O_13
REMARK    9  A    between atoms: C_12  and  C_14
REMARK   10  A    between atoms: C_21  and  O_22
REMARK   11  A    between atoms: O_22  and  C_23
REMARK                            x       y       z     vdW  Elec       q    Type
REMARK                         _______ _______ _______ _____ _____    ______ ____
ROOT
ATOM      1  C   UNL     1       7.123   5.166  18.746  0.00  0.00    +0.000 C 
ENDROOT
BRANCH   1   6
ATOM      2  C   UNL     1       2.865   4.367  19.087  0.00  0.00    +0.000 A 
ATOM      3  C   UNL     1       3.792   3.328  18.756  0.00  0.00    +0.000 A 
ATOM      4 CL   UNL     1       3.383   1.639  18.462  0.00  0.00    +0.000 Cl
ATOM      5  C   UNL     1       5.154   3.610  18.643  0.00  0.00    +0.000 A 
ATOM      6  C   UNL     1       5.646   4.896  18.851  0.00  0.00    +0.000 A 
ATOM      7  C   UNL     1       4.755   5.926  19.154  0.00  0.00    +0.000 A 
ATOM      8  C   UNL     1       3.378   5.689  19.271  0.00  0.00    +0.000 A 
BRANCH   8   9
ATOM      9  O   UNL     1       2.621   6.783  19.566  0.00  0.00    +0.000 OA
ATOM     10  C   UNL     1       2.233   7.812  18.738  0.00  0.00    +0.000 C 
ENDBRANCH   8   9
BRANCH   2  11
ATOM     11  O   UNL     1       1.523   4.161  19.244  0.00  0.00    +0.000 OA
BRANCH  11  13
ATOM     12  C   UNL     1       1.276   2.816  21.213  0.00  0.00    +0.000 C 
ATOM     13  C   UNL     1       0.814   4.032  20.425  0.00  0.00    +0.000 C 
ENDBRANCH  11  13
ENDBRANCH   2  11
ENDBRANCH   1   6
BRANCH   1  14
ATOM     14  N   UNL     1       7.418   5.903  17.509  0.00  0.00    +0.000 NA
ATOM     15  H   UNL     1       8.371   6.329  17.596  0.00  0.00    +0.000 HD
BRANCH  14  16
ATOM     16  C   UNL     1       7.420   4.979  16.369  0.00  0.00    +0.000 C 
BRANCH  16  17
ATOM     17  C   UNL     1       6.138   5.123  15.522  0.00  0.00    +0.000 C 
BRANCH  17  18
ATOM     18  C   UNL     1       6.368   4.601  14.117  0.00  0.00    +0.000 A 
ATOM     19  C   UNL     1       7.438   5.091  13.346  0.00  0.00    +0.000 A 
ATOM     20  C   UNL     1       7.637   4.630  12.040  0.00  0.00    +0.000 A 
ATOM     21  C   UNL     1       6.772   3.680  11.491  0.00  0.00    +0.000 A 
ATOM     22  C   UNL     1       5.710   3.183  12.250  0.00  0.00    +0.000 A 
ATOM     23  C   UNL     1       5.510   3.635  13.557  0.00  0.00    +0.000 A 
ENDBRANCH  17  18
BRANCH  17  24
ATOM     24  O   UNL     1       5.677   6.452  15.488  0.00  0.00    +0.000 OA
ATOM     25  H   UNL     1       4.930   6.537  16.134  0.00  0.00    +0.000 HD
ENDBRANCH  17  24
ENDBRANCH  16  17
ENDBRANCH  14  16
ENDBRANCH   1  14
TORSDOF 9
ENDMDL
MODEL 7
REMARK VINA RESULT:      -6.4      4.663      7.784
REMARK  Name = 
REMARK  11 active torsions:
REMARK  status: ('A' for Active; 'I' for Inactive)
REMARK    1  A    between atoms: C_1  and  C_2
REMARK    2  A    between atoms: C_2  and  O_3
REMARK    3  A    between atoms: O_3  and  C_4
REMARK    4  A    between atoms: C_8  and  C_9
REMARK    5  A    between atoms: C_9  and  N_10
REMARK    6  A    between atoms: N_10  and  C_11
REMARK    7  A    between atoms: C_11  and  C_12
REMARK    8  A    between atoms: C_12  and  O_13
REMARK    9  A    between atoms: C_12  and  C_14
REMARK   10  A    between atoms: C_21  and  O_22
REMARK   11  A    between atoms: O_22  and  C_23
REMARK                            x       y       z     vdW  Elec       q    Type
REMARK                         _______ _______ _______ _____ _____    ______ ____
ROOT
ATOM      1  C   UNL     1       0.953   8.009  20.833  0.00  0.00    +0.000 C 
ENDROOT
BRANCH   1   6
ATOM      2  C   UNL     1       3.458   4.900  19.117  0.00  0.00    +0.000 A 
ATOM      3  C   UNL     1       3.391   6.206  18.536  0.00  0.00    +0.000 A 
ATOM      4 CL   UNL     1       4.278   6.745  17.110  0.00  0.00    +0.000 Cl
ATOM      5  C   UNL     1       2.572   7.186  19.098  0.00  0.00    +0.000 A 
ATOM      6  C   UNL     1       1.808   6.925  20.233  0.00  0.00    +0.000 A 
ATOM      7  C   UNL     1       1.845   5.653  20.802  0.00  0.00    +0.000 A 
ATOM      8  C   UNL     1       2.648   4.636  20.266  0.00  0.00    +0.000 A 
BRANCH   8   9
ATOM      9  O   UNL     1       2.587   3.440  20.915  0.00  0.00    +0.000 OA
ATOM     10  C   UNL     1       1.482   2.777  21.398  0.00  0.00    +0.000 C 
ENDBRANCH   8   9
BRANCH   2  11
ATOM     11  O   UNL     1       4.258   3.900  18.640  0.00  0.00    +0.000 OA
BRANCH  11  13
ATOM     12  C   UNL     1       3.427   1.717  18.097  0.00  0.00    +0.000 C 
ATOM     13  C   UNL     1       4.002   3.031  17.593  0.00  0.00    +0.000 C 
ENDBRANCH  11  13
ENDBRANCH   2  11
ENDBRANCH   1   6
BRANCH   1  14
ATOM     14  N   UNL     1       1.175   9.279  20.129  0.00  0.00    +0.000 NA
ATOM     15  H   UNL     1       1.504   9.066  19.157  0.00  0.00    +0.000 HD
BRANCH  14  16
ATOM     16  C   UNL     1      -0.084  10.028  20.046  0.00  0.00    +0.000 C 
BRANCH  16  17
ATOM     17  C   UNL     1      -0.160  10.864  18.751  0.00  0.00    +0.000 C 
BRANCH  17  18
ATOM     18  C   UNL     1      -1.555  10.802  18.159  0.00  0.00    +0.000 A 
ATOM     19  C   UNL     1      -1.831   9.937  17.085  0.00  0.00    +0.000 A 
ATOM     20  C   UNL     1      -3.110   9.897  16.520  0.00  0.00    +0.000 A 
ATOM     21  C   UNL     1      -4.123  10.720  17.018  0.00  0.00    +0.000 A 
ATOM     22  C   UNL     1      -3.862  11.579  18.088  0.00  0.00    +0.000 A 
ATOM     23  C   UNL     1      -2.587  11.619  18.660  0.00  0.00    +0.000 A 
ENDBRANCH  17  18
BRANCH  17  24
ATOM     24  O   UNL     1       0.799  10.458  17.805  0.00  0.00    +0.000 OA
ATOM     25  H   UNL     1       0.737  11.064  17.022  0.00  0.00    +0.000 HD
ENDBRANCH  17  24
ENDBRANCH  16  17
ENDBRANCH  14  16
ENDBRANCH   1  14
TORSDOF 9
ENDMDL
MODEL 8
REMARK VINA RESULT:      -6.4      2.233      3.215
REMARK  Name = 
REMARK  11 active torsions:
REMARK  status: ('A' for Active; 'I' for Inactive)
REMARK    1  A    between atoms: C_1  and  C_2
REMARK    2  A    between atoms: C_2  and  O_3
REMARK    3  A    between atoms: O_3  and  C_4
REMARK    4  A    between atoms: C_8  and  C_9
REMARK    5  A    between atoms: C_9  and  N_10
REMARK    6  A    between atoms: N_10  and  C_11
REMARK    7  A    between atoms: C_11  and  C_12
REMARK    8  A    between atoms: C_12  and  O_13
REMARK    9  A    between atoms: C_12  and  C_14
REMARK   10  A    between atoms: C_21  and  O_22
REMARK   11  A    between atoms: O_22  and  C_23
REMARK                            x       y       z     vdW  Elec       q    Type
REMARK                         _______ _______ _______ _____ _____    ______ ____
ROOT
ATOM      1  C   UNL     1       6.758   5.815  16.782  0.00  0.00    +0.000 C 
ENDROOT
BRANCH   1   6
ATOM      2  C   UNL     1       3.204   4.962  19.133  0.00  0.00    +0.000 A 
ATOM      3  C   UNL     1       4.353   4.112  19.188  0.00  0.00    +0.000 A 
ATOM      4 CL   UNL     1       4.514   2.661  20.177  0.00  0.00    +0.000 Cl
ATOM      5  C   UNL     1       5.480   4.399  18.417  0.00  0.00    +0.000 A 
ATOM      6  C   UNL     1       5.520   5.515  17.584  0.00  0.00    +0.000 A 
ATOM      7  C   UNL     1       4.402   6.344  17.501  0.00  0.00    +0.000 A 
ATOM      8  C   UNL     1       3.246   6.088  18.253  0.00  0.00    +0.000 A 
BRANCH   8   9
ATOM      9  O   UNL     1       2.226   6.974  18.074  0.00  0.00    +0.000 OA
ATOM     10  C   UNL     1       2.183   8.314  18.386  0.00  0.00    +0.000 C 
ENDBRANCH   8   9
BRANCH   2  11
ATOM     11  O   UNL     1       2.077   4.760  19.879  0.00  0.00    +0.000 OA
BRANCH  11  13
ATOM     12  C   UNL     1       1.123   2.891  21.038  0.00  0.00    +0.000 C 
ATOM     13  C   UNL     1       1.157   3.731  19.772  0.00  0.00    +0.000 C 
ENDBRANCH  11  13
ENDBRANCH   2  11
ENDBRANCH   1   6
BRANCH   1  14
ATOM     14  N   UNL     1       6.422   5.944  15.358  0.00  0.00    +0.000 NA
ATOM     15  H   UNL     1       6.898   6.799  14.981  0.00  0.00    +0.000 HD
BRANCH  14  16
ATOM     16  C   UNL     1       6.912   4.772  14.624  0.00  0.00    +0.000 C 
BRANCH  16  17
ATOM     17  C   UNL     1       6.932   5.025  13.102  0.00  0.00    +0.000 C 
BRANCH  17  18
ATOM     18  C   UNL     1       6.615   3.749  12.346  0.00  0.00    +0.000 A 
ATOM     19  C   UNL     1       7.653   2.978  11.794  0.00  0.00    +0.000 A 
ATOM     20  C   UNL     1       7.362   1.814  11.073  0.00  0.00    +0.000 A 
ATOM     21  C   UNL     1       6.037   1.411  10.896  0.00  0.00    +0.000 A 
ATOM     22  C   UNL     1       4.999   2.167  11.445  0.00  0.00    +0.000 A 
ATOM     23  C   UNL     1       5.283   3.327  12.171  0.00  0.00    +0.000 A 
ENDBRANCH  17  18
BRANCH  17  24
ATOM     24  O   UNL     1       8.159   5.564  12.674  0.00  0.00    +0.000 OA
ATOM     25  H   UNL     1       8.111   5.702  11.693  0.00  0.00    +0.000 HD
ENDBRANCH  17  24
ENDBRANCH  16  17
ENDBRANCH  14  16
ENDBRANCH   1  14
TORSDOF 9
ENDMDL
MODEL 9
REMARK VINA RESULT:      -6.4      3.098      6.839
REMARK  Name = 
REMARK  11 active torsions:
REMARK  status: ('A' for Active; 'I' for Inactive)
REMARK    1  A    between atoms: C_1  and  C_2
REMARK    2  A    between atoms: C_2  and  O_3
REMARK    3  A    between atoms: O_3  and  C_4
REMARK    4  A    between atoms: C_8  and  C_9
REMARK    5  A    between atoms: C_9  and  N_10
REMARK    6  A    between atoms: N_10  and  C_11
REMARK    7  A    between atoms: C_11  and  C_12
REMARK    8  A    between atoms: C_12  and  O_13
REMARK    9  A    between atoms: C_12  and  C_14
REMARK   10  A    between atoms: C_21  and  O_22
REMARK   11  A    between atoms: O_22  and  C_23
REMARK                            x       y       z     vdW  Elec       q    Type
REMARK                         _______ _______ _______ _____ _____    ______ ____
ROOT
ATOM      1  C   UNL     1       3.625   2.484  18.069  0.00  0.00    +0.000 C 
ENDROOT
BRANCH   1   6
ATOM      2  C   UNL     1       6.691   5.478  17.350  0.00  0.00    +0.000 A 
ATOM      3  C   UNL     1       5.981   4.867  16.269  0.00  0.00    +0.000 A 
ATOM      4 CL   UNL     1       6.211   5.220  14.556  0.00  0.00    +0.000 Cl
ATOM      5  C   UNL     1       5.007   3.902  16.522  0.00  0.00    +0.000 A 
ATOM      6  C   UNL     1       4.698   3.511  17.823  0.00  0.00    +0.000 A 
ATOM      7  C   UNL     1       5.393   4.080  18.889  0.00  0.00    +0.000 A 
ATOM      8  C   UNL     1       6.385   5.050  18.679  0.00  0.00    +0.000 A 
BRANCH   8   9
ATOM      9  O   UNL     1       6.989   5.519  19.807  0.00  0.00    +0.000 OA
ATOM     10  C   UNL     1       8.292   5.357  20.218  0.00  0.00    +0.000 C 
ENDBRANCH   8   9
BRANCH   2  11
ATOM     11  O   UNL     1       7.636   6.451  17.181  0.00  0.00    +0.000 OA
BRANCH  11  13
ATOM     12  C   UNL     1       8.385   8.451  18.272  0.00  0.00    +0.000 C 
ATOM     13  C   UNL     1       7.465   7.824  17.236  0.00  0.00    +0.000 C 
ENDBRANCH  11  13
ENDBRANCH   2  11
ENDBRANCH   1   6
BRANCH   1  14
ATOM     14  N   UNL     1       3.644   2.056  19.474  0.00  0.00    +0.000 NA
ATOM     15  H   UNL     1       4.642   1.985  19.785  0.00  0.00    +0.000 HD
BRANCH  14  16
ATOM     16  C   UNL     1       2.962   3.054  20.306  0.00  0.00    +0.000 C 
BRANCH  16  17
ATOM     17  C   UNL     1       1.725   3.637  19.590  0.00  0.00    +0.000 C 
BRANCH  17  18
ATOM     18  C   UNL     1       1.836   5.145  19.481  0.00  0.00    +0.000 A 
ATOM     19  C   UNL     1       2.179   5.743  18.255  0.00  0.00    +0.000 A 
ATOM     20  C   UNL     1       2.308   7.133  18.158  0.00  0.00    +0.000 A 
ATOM     21  C   UNL     1       2.097   7.937  19.280  0.00  0.00    +0.000 A 
ATOM     22  C   UNL     1       1.750   7.355  20.501  0.00  0.00    +0.000 A 
ATOM     23  C   UNL     1       1.615   5.968  20.603  0.00  0.00    +0.000 A 
ENDBRANCH  17  18
BRANCH  17  24
ATOM     24  O   UNL     1       0.526   3.272  20.230  0.00  0.00    +0.000 OA
ATOM     25  H   UNL     1       0.756   2.793  21.068  0.00  0.00    +0.000 HD
ENDBRANCH  17  24
ENDBRANCH  16  17
ENDBRANCH  14  16
ENDBRANCH   1  14
TORSDOF 9
ENDMDL
