MODEL 1
REMARK VINA RESULT:      -9.1      0.000      0.000
REMARK  Name = 
REMARK  7 active torsions:
REMARK  status: ('A' for Active; 'I' for Inactive)
REMARK    1  A    between atoms: C_1  and  C_2
REMARK    2  A    between atoms: C_2  and  O_3
REMARK    3  A    between atoms: O_3  and  C_4
REMARK    4  A    between atoms: C_7  and  N_8
REMARK    5  A    between atoms: C_9  and  C_11
REMARK    6  A    between atoms: C_12  and  C_13
REMARK    7  A    between atoms: C_24  and  C_25
REMARK                            x       y       z     vdW  Elec       q    Type
REMARK                         _______ _______ _______ _____ _____    ______ ____
ROOT
ATOM      1  C   UNL     1       5.400   5.686  16.104  0.00  0.00    +0.000 A 
ATOM      2  C   UNL     1       5.539   4.748  17.043  0.00  0.00    +0.000 A 
ATOM      3  N   UNL     1       6.742   4.166  16.975  0.00  0.00    +0.000 NA
ATOM      4  N   UNL     1       7.610   4.488  15.843  0.00  0.00    +0.000 NA
ATOM      5  C   UNL     1       7.110   4.979  14.678  0.00  0.00    +0.000 A 
ATOM      6  C   UNL     1       7.728   4.877  13.407  0.00  0.00    +0.000 A 
ATOM      7  C   UNL     1       7.133   4.206  12.329  0.00  0.00    +0.000 A 
ATOM      8  C   UNL     1       5.938   3.551  12.554  0.00  0.00    +0.000 A 
ATOM      9  C   UNL     1       5.697   2.340  11.636  0.00  0.00    +0.000 C 
ATOM     10  C   UNL     1       5.233   4.017  13.733  0.00  0.00    +0.000 A 
ATOM     11  C   UNL     1       5.774   5.089  14.752  0.00  0.00    +0.000 A 
ENDROOT
BRANCH   2  12
ATOM     12  C   UNL     1       4.412   4.455  17.928  0.00  0.00    +0.000 A 
ATOM     13  C   UNL     1       3.301   3.723  17.402  0.00  0.00    +0.000 A 
ATOM     14  C   UNL     1       2.169   3.443  18.137  0.00  0.00    +0.000 A 
ATOM     15  C   UNL     1       2.108   3.876  19.454  0.00  0.00    +0.000 A 
ATOM     16  C   UNL     1       3.190   4.582  20.015  0.00  0.00    +0.000 A 
ATOM     17  C   UNL     1       4.335   4.861  19.260  0.00  0.00    +0.000 A 
ENDBRANCH   2  12
BRANCH   1  19
ATOM     18  N   UNL     1       7.262   7.681  16.980  0.00  0.00    +0.000 N 
ATOM     19  C   UNL     1       5.821   7.170  16.882  0.00  0.00    +0.000 C 
ATOM     20  O   UNL     1       4.909   7.778  17.435  0.00  0.00    +0.000 OA
ATOM     21  H   UNL     1       7.963   7.179  16.437  0.00  0.00    +0.000 HD
BRANCH  18  25
ATOM     22  C   UNL     1       9.341  11.234  19.083  0.00  0.00    +0.000 A 
ATOM     23  C   UNL     1       9.400   9.902  19.529  0.00  0.00    +0.000 A 
ATOM     24  C   UNL     1       8.736   8.749  18.897  0.00  0.00    +0.000 A 
ATOM     25  C   UNL     1       7.929   8.861  17.750  0.00  0.00    +0.000 A 
ATOM     26  C   UNL     1       7.820  10.243  17.349  0.00  0.00    +0.000 A 
ATOM     27  C   UNL     1       8.495  11.408  17.995  0.00  0.00    +0.000 A 
BRANCH  22  28
ATOM     28  O   UNL     1      10.089  12.153  19.801  0.00  0.00    +0.000 OA
BRANCH  28  30
ATOM     29  C   UNL     1      11.926  12.088  18.124  0.00  0.00    +0.000 C 
ATOM     30  C   UNL     1      11.490  12.443  19.571  0.00  0.00    +0.000 C 
ENDBRANCH  28  30
ENDBRANCH  22  28
ENDBRANCH  18  25
ENDBRANCH   1  19
TORSDOF 5
ENDMDL
MODEL 2
REMARK VINA RESULT:      -9.0      0.826      1.049
REMARK  Name = 
REMARK  7 active torsions:
REMARK  status: ('A' for Active; 'I' for Inactive)
REMARK    1  A    between atoms: C_1  and  C_2
REMARK    2  A    between atoms: C_2  and  O_3
REMARK    3  A    between atoms: O_3  and  C_4
REMARK    4  A    between atoms: C_7  and  N_8
REMARK    5  A    between atoms: C_9  and  C_11
REMARK    6  A    between atoms: C_12  and  C_13
REMARK    7  A    between atoms: C_24  and  C_25
REMARK                            x       y       z     vdW  Elec       q    Type
REMARK                         _______ _______ _______ _____ _____    ______ ____
ROOT
ATOM      1  C   UNL     1       5.413   5.667  16.159  0.00  0.00    +0.000 A 
ATOM      2  C   UNL     1       5.557   4.717  17.085  0.00  0.00    +0.000 A 
ATOM      3  N   UNL     1       6.759   4.135  17.004  0.00  0.00    +0.000 NA
ATOM      4  N   UNL     1       7.621   4.472  15.872  0.00  0.00    +0.000 NA
ATOM      5  C   UNL     1       7.116   4.978  14.716  0.00  0.00    +0.000 A 
ATOM      6  C   UNL     1       7.727   4.892  13.440  0.00  0.00    +0.000 A 
ATOM      7  C   UNL     1       7.127   4.235  12.357  0.00  0.00    +0.000 A 
ATOM      8  C   UNL     1       5.933   3.578  12.579  0.00  0.00    +0.000 A 
ATOM      9  C   UNL     1       5.686   2.379  11.647  0.00  0.00    +0.000 C 
ATOM     10  C   UNL     1       5.233   4.029  13.767  0.00  0.00    +0.000 A 
ATOM     11  C   UNL     1       5.780   5.088  14.797  0.00  0.00    +0.000 A 
ENDROOT
BRANCH   2  12
ATOM     12  C   UNL     1       4.433   4.413  17.971  0.00  0.00    +0.000 A 
ATOM     13  C   UNL     1       3.104   4.634  17.492  0.00  0.00    +0.000 A 
ATOM     14  C   UNL     1       1.982   4.432  18.267  0.00  0.00    +0.000 A 
ATOM     15  C   UNL     1       2.145   3.975  19.567  0.00  0.00    +0.000 A 
ATOM     16  C   UNL     1       3.437   3.726  20.069  0.00  0.00    +0.000 A 
ATOM     17  C   UNL     1       4.570   3.935  19.275  0.00  0.00    +0.000 A 
ENDBRANCH   2  12
BRANCH   1  19
ATOM     18  N   UNL     1       7.269   7.690  16.983  0.00  0.00    +0.000 N 
ATOM     19  C   UNL     1       5.839   7.141  16.954  0.00  0.00    +0.000 C 
ATOM     20  O   UNL     1       4.944   7.707  17.576  0.00  0.00    +0.000 OA
ATOM     21  H   UNL     1       7.949   7.223  16.386  0.00  0.00    +0.000 HD
BRANCH  18  25
ATOM     22  C   UNL     1       9.388  11.229  19.070  0.00  0.00    +0.000 A 
ATOM     23  C   UNL     1       9.405   9.904  19.539  0.00  0.00    +0.000 A 
ATOM     24  C   UNL     1       8.727   8.756  18.913  0.00  0.00    +0.000 A 
ATOM     25  C   UNL     1       7.947   8.867  17.747  0.00  0.00    +0.000 A 
ATOM     26  C   UNL     1       7.880  10.245  17.321  0.00  0.00    +0.000 A 
ATOM     27  C   UNL     1       8.570  11.404  17.961  0.00  0.00    +0.000 A 
BRANCH  22  28
ATOM     28  O   UNL     1      10.142  12.142  19.787  0.00  0.00    +0.000 OA
BRANCH  28  30
ATOM     29  C   UNL     1       9.275  12.591  22.076  0.00  0.00    +0.000 C 
ATOM     30  C   UNL     1       9.599  13.158  20.667  0.00  0.00    +0.000 C 
ENDBRANCH  28  30
ENDBRANCH  22  28
ENDBRANCH  18  25
ENDBRANCH   1  19
TORSDOF 5
ENDMDL
MODEL 3
REMARK VINA RESULT:      -8.7      4.012      5.275
REMARK  Name = 
REMARK  7 active torsions:
REMARK  status: ('A' for Active; 'I' for Inactive)
REMARK    1  A    between atoms: C_1  and  C_2
REMARK    2  A    between atoms: C_2  and  O_3
REMARK    3  A    between atoms: O_3  and  C_4
REMARK    4  A    between atoms: C_7  and  N_8
REMARK    5  A    between atoms: C_9  and  C_11
REMARK    6  A    between atoms: C_12  and  C_13
REMARK    7  A    between atoms: C_24  and  C_25
REMARK                            x       y       z     vdW  Elec       q    Type
REMARK                         _______ _______ _______ _____ _____    ______ ____
ROOT
ATOM      1  C   UNL     1       4.755   5.050  16.249  0.00  0.00    +0.000 A 
ATOM      2  C   UNL     1       5.224   4.216  17.179  0.00  0.00    +0.000 A 
ATOM      3  N   UNL     1       6.561   4.250  17.234  0.00  0.00    +0.000 NA
ATOM      4  N   UNL     1       7.281   5.008  16.213  0.00  0.00    +0.000 NA
ATOM      5  C   UNL     1       6.718   5.297  15.009  0.00  0.00    +0.000 A 
ATOM      6  C   UNL     1       7.425   5.574  13.812  0.00  0.00    +0.000 A 
ATOM      7  C   UNL     1       7.304   4.781  12.662  0.00  0.00    +0.000 A 
ATOM      8  C   UNL     1       6.529   3.641  12.740  0.00  0.00    +0.000 A 
ATOM      9  C   UNL     1       6.954   2.518  11.777  0.00  0.00    +0.000 C 
ATOM     10  C   UNL     1       5.586   3.654  13.842  0.00  0.00    +0.000 A 
ATOM     11  C   UNL     1       5.480   4.782  14.936  0.00  0.00    +0.000 A 
ENDROOT
BRANCH   2  12
ATOM     12  C   UNL     1       4.283   3.383  17.927  0.00  0.00    +0.000 A 
ATOM     13  C   UNL     1       3.087   2.946  17.275  0.00  0.00    +0.000 A 
ATOM     14  C   UNL     1       2.112   2.205  17.909  0.00  0.00    +0.000 A 
ATOM     15  C   UNL     1       2.305   1.850  19.236  0.00  0.00    +0.000 A 
ATOM     16  C   UNL     1       3.479   2.243  19.908  0.00  0.00    +0.000 A 
ATOM     17  C   UNL     1       4.463   2.995  19.256  0.00  0.00    +0.000 A 
ENDBRANCH   2  12
BRANCH   1  19
ATOM     18  N   UNL     1       3.028   6.744  17.786  0.00  0.00    +0.000 N 
ATOM     19  C   UNL     1       4.376   6.506  17.098  0.00  0.00    +0.000 C 
ATOM     20  O   UNL     1       5.219   7.397  17.063  0.00  0.00    +0.000 OA
ATOM     21  H   UNL     1       2.401   5.943  17.851  0.00  0.00    +0.000 HD
BRANCH  18  25
ATOM     22  C   UNL     1       0.908  10.324  19.801  0.00  0.00    +0.000 A 
ATOM     23  C   UNL     1       1.464  10.354  18.510  0.00  0.00    +0.000 A 
ATOM     24  C   UNL     1       2.162   9.241  17.843  0.00  0.00    +0.000 A 
ATOM     25  C   UNL     1       2.372   7.990  18.454  0.00  0.00    +0.000 A 
ATOM     26  C   UNL     1       1.860   8.002  19.803  0.00  0.00    +0.000 A 
ATOM     27  C   UNL     1       1.154   9.133  20.473  0.00  0.00    +0.000 A 
BRANCH  22  28
ATOM     28  O   UNL     1       0.247  11.470  20.209  0.00  0.00    +0.000 OA
BRANCH  28  30
ATOM     29  C   UNL     1      -0.784  11.783  22.452  0.00  0.00    +0.000 C 
ATOM     30  C   UNL     1      -1.003  11.491  20.943  0.00  0.00    +0.000 C 
ENDBRANCH  28  30
ENDBRANCH  22  28
ENDBRANCH  18  25
ENDBRANCH   1  19
TORSDOF 5
ENDMDL
MODEL 4
REMARK VINA RESULT:      -8.7      0.704      1.090
REMARK  Name = 
REMARK  7 active torsions:
REMARK  status: ('A' for Active; 'I' for Inactive)
REMARK    1  A    between atoms: C_1  and  C_2
REMARK    2  A    between atoms: C_2  and  O_3
REMARK    3  A    between atoms: O_3  and  C_4
REMARK    4  A    between atoms: C_7  and  N_8
REMARK    5  A    between atoms: C_9  and  C_11
REMARK    6  A    between atoms: C_12  and  C_13
REMARK    7  A    between atoms: C_24  and  C_25
REMARK                            x       y       z     vdW  Elec       q    Type
REMARK                         _______ _______ _______ _____ _____    ______ ____
ROOT
ATOM      1  C   UNL     1       5.391   5.631  16.141  0.00  0.00    +0.000 A 
ATOM      2  C   UNL     1       5.531   4.679  17.065  0.00  0.00    +0.000 A 
ATOM      3  N   UNL     1       6.734   4.099  16.988  0.00  0.00    +0.000 NA
ATOM      4  N   UNL     1       7.601   4.440  15.862  0.00  0.00    +0.000 NA
ATOM      5  C   UNL     1       7.101   4.949  14.705  0.00  0.00    +0.000 A 
ATOM      6  C   UNL     1       7.719   4.867  13.431  0.00  0.00    +0.000 A 
ATOM      7  C   UNL     1       7.124   4.212  12.344  0.00  0.00    +0.000 A 
ATOM      8  C   UNL     1       5.930   3.553  12.558  0.00  0.00    +0.000 A 
ATOM      9  C   UNL     1       5.689   2.356  11.621  0.00  0.00    +0.000 C 
ATOM     10  C   UNL     1       5.224   4.000  13.744  0.00  0.00    +0.000 A 
ATOM     11  C   UNL     1       5.765   5.056  14.780  0.00  0.00    +0.000 A 
ENDROOT
BRANCH   2  12
ATOM     12  C   UNL     1       4.404   4.372  17.945  0.00  0.00    +0.000 A 
ATOM     13  C   UNL     1       4.671   3.768  19.214  0.00  0.00    +0.000 A 
ATOM     14  C   UNL     1       3.677   3.390  20.092  0.00  0.00    +0.000 A 
ATOM     15  C   UNL     1       2.356   3.620  19.738  0.00  0.00    +0.000 A 
ATOM     16  C   UNL     1       2.051   4.231  18.506  0.00  0.00    +0.000 A 
ATOM     17  C   UNL     1       3.068   4.611  17.622  0.00  0.00    +0.000 A 
ENDBRANCH   2  12
BRANCH   1  19
ATOM     18  N   UNL     1       7.236   7.666  16.961  0.00  0.00    +0.000 N 
ATOM     19  C   UNL     1       5.811   7.104  16.942  0.00  0.00    +0.000 C 
ATOM     20  O   UNL     1       4.917   7.657  17.577  0.00  0.00    +0.000 OA
ATOM     21  H   UNL     1       7.915   7.209  16.354  0.00  0.00    +0.000 HD
BRANCH  18  25
ATOM     22  C   UNL     1       9.340  11.212  19.051  0.00  0.00    +0.000 A 
ATOM     23  C   UNL     1       9.391   9.881  19.501  0.00  0.00    +0.000 A 
ATOM     24  C   UNL     1       8.719   8.730  18.874  0.00  0.00    +0.000 A 
ATOM     25  C   UNL     1       7.911   8.844  17.726  0.00  0.00    +0.000 A 
ATOM     26  C   UNL     1       7.811  10.226  17.322  0.00  0.00    +0.000 A 
ATOM     27  C   UNL     1       8.494  11.388  17.963  0.00  0.00    +0.000 A 
BRANCH  22  28
ATOM     28  O   UNL     1      10.095  12.128  19.764  0.00  0.00    +0.000 OA
BRANCH  28  30
ATOM     29  C   UNL     1       9.711  14.578  19.555  0.00  0.00    +0.000 C 
ATOM     30  C   UNL     1      10.624  13.365  19.227  0.00  0.00    +0.000 C 
ENDBRANCH  28  30
ENDBRANCH  22  28
ENDBRANCH  18  25
ENDBRANCH   1  19
TORSDOF 5
ENDMDL
MODEL 5
REMARK VINA RESULT:      -8.6      0.448      1.039
REMARK  Name = 
REMARK  7 active torsions:
REMARK  status: ('A' for Active; 'I' for Inactive)
REMARK    1  A    between atoms: C_1  and  C_2
REMARK    2  A    between atoms: C_2  and  O_3
REMARK    3  A    between atoms: O_3  and  C_4
REMARK    4  A    between atoms: C_7  and  N_8
REMARK    5  A    between atoms: C_9  and  C_11
REMARK    6  A    between atoms: C_12  and  C_13
REMARK    7  A    between atoms: C_24  and  C_25
REMARK                            x       y       z     vdW  Elec       q    Type
REMARK                         _______ _______ _______ _____ _____    ______ ____
ROOT
ATOM      1  C   UNL     1       5.385   5.720  16.142  0.00  0.00    +0.000 A 
ATOM      2  C   UNL     1       5.486   4.773  17.077  0.00  0.00    +0.000 A 
ATOM      3  N   UNL     1       6.672   4.157  17.020  0.00  0.00    +0.000 NA
ATOM      4  N   UNL     1       7.562   4.460  15.901  0.00  0.00    +0.000 NA
ATOM      5  C   UNL     1       7.090   4.971  14.732  0.00  0.00    +0.000 A 
ATOM      6  C   UNL     1       7.720   4.857  13.467  0.00  0.00    +0.000 A 
ATOM      7  C   UNL     1       7.118   4.209  12.380  0.00  0.00    +0.000 A 
ATOM      8  C   UNL     1       5.903   3.588  12.587  0.00  0.00    +0.000 A 
ATOM      9  C   UNL     1       5.637   2.388  11.660  0.00  0.00    +0.000 C 
ATOM     10  C   UNL     1       5.197   4.069  13.760  0.00  0.00    +0.000 A 
ATOM     11  C   UNL     1       5.757   5.119  14.791  0.00  0.00    +0.000 A 
ENDROOT
BRANCH   2  12
ATOM     12  C   UNL     1       4.341   4.509  17.947  0.00  0.00    +0.000 A 
ATOM     13  C   UNL     1       3.129   4.030  17.357  0.00  0.00    +0.000 A 
ATOM     14  C   UNL     1       1.978   3.803  18.082  0.00  0.00    +0.000 A 
ATOM     15  C   UNL     1       1.998   4.032  19.450  0.00  0.00    +0.000 A 
ATOM     16  C   UNL     1       3.177   4.484  20.072  0.00  0.00    +0.000 A 
ATOM     17  C   UNL     1       4.341   4.712  19.328  0.00  0.00    +0.000 A 
ENDBRANCH   2  12
BRANCH   1  19
ATOM     18  N   UNL     1       7.270   7.737  16.912  0.00  0.00    +0.000 N 
ATOM     19  C   UNL     1       5.840   7.188  16.932  0.00  0.00    +0.000 C 
ATOM     20  O   UNL     1       4.970   7.747  17.592  0.00  0.00    +0.000 OA
ATOM     21  H   UNL     1       7.928   7.276  16.286  0.00  0.00    +0.000 HD
BRANCH  18  25
ATOM     22  C   UNL     1       9.251  11.163  19.302  0.00  0.00    +0.000 A 
ATOM     23  C   UNL     1       8.589  11.331  18.073  0.00  0.00    +0.000 A 
ATOM     24  C   UNL     1       7.964  10.263  17.275  0.00  0.00    +0.000 A 
ATOM     25  C   UNL     1       7.976   8.908  17.660  0.00  0.00    +0.000 A 
ATOM     26  C   UNL     1       8.722   8.745  18.884  0.00  0.00    +0.000 A 
ATOM     27  C   UNL     1       9.354   9.832  19.689  0.00  0.00    +0.000 A 
BRANCH  22  28
ATOM     28  O   UNL     1       9.718  12.317  19.908  0.00  0.00    +0.000 OA
BRANCH  28  30
ATOM     29  C   UNL     1      11.308  14.230  19.958  0.00  0.00    +0.000 C 
ATOM     30  C   UNL     1      11.114  12.691  20.017  0.00  0.00    +0.000 C 
ENDBRANCH  28  30
ENDBRANCH  22  28
ENDBRANCH  18  25
ENDBRANCH   1  19
TORSDOF 5
ENDMDL
MODEL 6
REMARK VINA RESULT:      -8.3      0.948      1.550
REMARK  Name = 
REMARK  7 active torsions:
REMARK  status: ('A' for Active; 'I' for Inactive)
REMARK    1  A    between atoms: C_1  and  C_2
REMARK    2  A    between atoms: C_2  and  O_3
REMARK    3  A    between atoms: O_3  and  C_4
REMARK    4  A    between atoms: C_7  and  N_8
REMARK    5  A    between atoms: C_9  and  C_11
REMARK    6  A    between atoms: C_12  and  C_13
REMARK    7  A    between atoms: C_24  and  C_25
REMARK                            x       y       z     vdW  Elec       q    Type
REMARK                         _______ _______ _______ _____ _____    ______ ____
ROOT
ATOM      1  C   UNL     1       5.432   5.679  16.114  0.00  0.00    +0.000 A 
ATOM      2  C   UNL     1       5.619   4.743  17.046  0.00  0.00    +0.000 A 
ATOM      3  N   UNL     1       6.828   4.180  16.936  0.00  0.00    +0.000 NA
ATOM      4  N   UNL     1       7.650   4.516  15.775  0.00  0.00    +0.000 NA
ATOM      5  C   UNL     1       7.102   5.000  14.628  0.00  0.00    +0.000 A 
ATOM      6  C   UNL     1       7.676   4.908  13.336  0.00  0.00    +0.000 A 
ATOM      7  C   UNL     1       7.054   4.227  12.279  0.00  0.00    +0.000 A 
ATOM      8  C   UNL     1       5.879   3.553  12.546  0.00  0.00    +0.000 A 
ATOM      9  C   UNL     1       5.624   2.339  11.635  0.00  0.00    +0.000 C 
ATOM     10  C   UNL     1       5.208   4.008  13.749  0.00  0.00    +0.000 A 
ATOM     11  C   UNL     1       5.767   5.089  14.749  0.00  0.00    +0.000 A 
ENDROOT
BRANCH   2  12
ATOM     12  C   UNL     1       4.528   4.432  17.970  0.00  0.00    +0.000 A 
ATOM     13  C   UNL     1       4.787   3.542  19.060  0.00  0.00    +0.000 A 
ATOM     14  C   UNL     1       3.814   3.144  19.952  0.00  0.00    +0.000 A 
ATOM     15  C   UNL     1       2.528   3.641  19.799  0.00  0.00    +0.000 A 
ATOM     16  C   UNL     1       2.238   4.535  18.751  0.00  0.00    +0.000 A 
ATOM     17  C   UNL     1       3.232   4.934  17.850  0.00  0.00    +0.000 A 
ENDBRANCH   2  12
BRANCH   1  19
ATOM     18  N   UNL     1       7.291   7.707  16.918  0.00  0.00    +0.000 N 
ATOM     19  C   UNL     1       5.857   7.170  16.877  0.00  0.00    +0.000 C 
ATOM     20  O   UNL     1       4.956   7.759  17.468  0.00  0.00    +0.000 OA
ATOM     21  H   UNL     1       7.978   7.219  16.346  0.00  0.00    +0.000 HD
BRANCH  18  25
ATOM     22  C   UNL     1       9.181  11.188  19.301  0.00  0.00    +0.000 A 
ATOM     23  C   UNL     1       8.511  11.337  18.075  0.00  0.00    +0.000 A 
ATOM     24  C   UNL     1       7.914  10.251  17.278  0.00  0.00    +0.000 A 
ATOM     25  C   UNL     1       7.966   8.898  17.663  0.00  0.00    +0.000 A 
ATOM     26  C   UNL     1       8.719   8.756  18.886  0.00  0.00    +0.000 A 
ATOM     27  C   UNL     1       9.323   9.861  19.688  0.00  0.00    +0.000 A 
BRANCH  22  28
ATOM     28  O   UNL     1       9.617  12.355  19.906  0.00  0.00    +0.000 OA
BRANCH  28  30
ATOM     29  C   UNL     1       9.412  14.426  21.270  0.00  0.00    +0.000 C 
ATOM     30  C   UNL     1       9.058  12.922  21.116  0.00  0.00    +0.000 C 
ENDBRANCH  28  30
ENDBRANCH  22  28
ENDBRANCH  18  25
ENDBRANCH   1  19
TORSDOF 5
ENDMDL
MODEL 7
REMARK VINA RESULT:      -8.2      4.640      6.564
REMARK  Name = 
REMARK  7 active torsions:
REMARK  status: ('A' for Active; 'I' for Inactive)
REMARK    1  A    between atoms: C_1  and  C_2
REMARK    2  A    between atoms: C_2  and  O_3
REMARK    3  A    between atoms: O_3  and  C_4
REMARK    4  A    between atoms: C_7  and  N_8
REMARK    5  A    between atoms: C_9  and  C_11
REMARK    6  A    between atoms: C_12  and  C_13
REMARK    7  A    between atoms: C_24  and  C_25
REMARK                            x       y       z     vdW  Elec       q    Type
REMARK                         _______ _______ _______ _____ _____    ______ ____
ROOT
ATOM      1  C   UNL     1       3.312   5.977  18.035  0.00  0.00    +0.000 A 
ATOM      2  C   UNL     1       3.679   5.213  19.065  0.00  0.00    +0.000 A 
ATOM      3  N   UNL     1       4.982   5.353  19.335  0.00  0.00    +0.000 NA
ATOM      4  N   UNL     1       5.806   6.130  18.411  0.00  0.00    +0.000 NA
ATOM      5  C   UNL     1       5.431   6.334  17.120  0.00  0.00    +0.000 A 
ATOM      6  C   UNL     1       6.305   6.626  16.042  0.00  0.00    +0.000 A 
ATOM      7  C   UNL     1       6.432   5.789  14.925  0.00  0.00    +0.000 A 
ATOM      8  C   UNL     1       5.738   4.595  14.928  0.00  0.00    +0.000 A 
ATOM      9  C   UNL     1       6.395   3.477  14.098  0.00  0.00    +0.000 C 
ATOM     10  C   UNL     1       4.626   4.571  15.860  0.00  0.00    +0.000 A 
ATOM     11  C   UNL     1       4.262   5.724  16.870  0.00  0.00    +0.000 A 
ENDROOT
BRANCH   2  12
ATOM     12  C   UNL     1       2.689   4.335  19.688  0.00  0.00    +0.000 A 
ATOM     13  C   UNL     1       2.778   4.091  21.095  0.00  0.00    +0.000 A 
ATOM     14  C   UNL     1       1.928   3.237  21.765  0.00  0.00    +0.000 A 
ATOM     15  C   UNL     1       0.927   2.597  21.048  0.00  0.00    +0.000 A 
ATOM     16  C   UNL     1       0.793   2.827  19.665  0.00  0.00    +0.000 A 
ATOM     17  C   UNL     1       1.662   3.695  18.993  0.00  0.00    +0.000 A 
ENDBRANCH   2  12
BRANCH   1  19
ATOM     18  N   UNL     1       1.978   7.454  20.098  0.00  0.00    +0.000 N 
ATOM     19  C   UNL     1       2.695   7.427  18.744  0.00  0.00    +0.000 C 
ATOM     20  O   UNL     1       2.787   8.449  18.070  0.00  0.00    +0.000 OA
ATOM     21  H   UNL     1       2.002   6.594  20.644  0.00  0.00    +0.000 HD
BRANCH  18  25
ATOM     22  C   UNL     1      -0.199  10.862  22.337  0.00  0.00    +0.000 A 
ATOM     23  C   UNL     1       0.172   9.638  22.921  0.00  0.00    +0.000 A 
ATOM     24  C   UNL     1       0.848   8.523  22.235  0.00  0.00    +0.000 A 
ATOM     25  C   UNL     1       1.193   8.556  20.871  0.00  0.00    +0.000 A 
ATOM     26  C   UNL     1       0.739   9.788  20.271  0.00  0.00    +0.000 A 
ATOM     27  C   UNL     1       0.054  10.914  20.971  0.00  0.00    +0.000 A 
BRANCH  22  28
ATOM     28  O   UNL     1      -0.777  11.793  23.183  0.00  0.00    +0.000 OA
BRANCH  28  30
ATOM     29  C   UNL     1      -3.147  12.490  23.487  0.00  0.00    +0.000 C 
ATOM     30  C   UNL     1      -1.785  12.758  22.791  0.00  0.00    +0.000 C 
ENDBRANCH  28  30
ENDBRANCH  22  28
ENDBRANCH  18  25
ENDBRANCH   1  19
TORSDOF 5
ENDMDL
MODEL 8
REMARK VINA RESULT:      -8.2      4.020      5.240
REMARK  Name = 
REMARK  7 active torsions:
REMARK  status: ('A' for Active; 'I' for Inactive)
REMARK    1  A    between atoms: C_1  and  C_2
REMARK    2  A    between atoms: C_2  and  O_3
REMARK    3  A    between atoms: O_3  and  C_4
REMARK    4  A    between atoms: C_7  and  N_8
REMARK    5  A    between atoms: C_9  and  C_11
REMARK    6  A    between atoms: C_12  and  C_13
REMARK    7  A    between atoms: C_24  and  C_25
REMARK                            x       y       z     vdW  Elec       q    Type
REMARK                         _______ _______ _______ _____ _____    ______ ____
ROOT
ATOM      1  C   UNL     1       4.670   5.097  16.297  0.00  0.00    +0.000 A 
ATOM      2  C   UNL     1       5.094   4.241  17.228  0.00  0.00    +0.000 A 
ATOM      3  N   UNL     1       6.428   4.259  17.334  0.00  0.00    +0.000 NA
ATOM      4  N   UNL     1       7.195   5.026  16.354  0.00  0.00    +0.000 NA
ATOM      5  C   UNL     1       6.681   5.343  15.136  0.00  0.00    +0.000 A 
ATOM      6  C   UNL     1       7.436   5.633  13.971  0.00  0.00    +0.000 A 
ATOM      7  C   UNL     1       7.349   4.863  12.803  0.00  0.00    +0.000 A 
ATOM      8  C   UNL     1       6.559   3.731  12.831  0.00  0.00    +0.000 A 
ATOM      9  C   UNL     1       7.007   2.620  11.864  0.00  0.00    +0.000 C 
ATOM     10  C   UNL     1       5.575   3.735  13.897  0.00  0.00    +0.000 A 
ATOM     11  C   UNL     1       5.441   4.845  15.007  0.00  0.00    +0.000 A 
ENDROOT
BRANCH   2  12
ATOM     12  C   UNL     1       4.117   3.406  17.925  0.00  0.00    +0.000 A 
ATOM     13  C   UNL     1       4.366   3.053  19.289  0.00  0.00    +0.000 A 
ATOM     14  C   UNL     1       3.535   2.227  20.016  0.00  0.00    +0.000 A 
ATOM     15  C   UNL     1       2.394   1.728  19.405  0.00  0.00    +0.000 A 
ATOM     16  C   UNL     1       2.102   2.069  18.070  0.00  0.00    +0.000 A 
ATOM     17  C   UNL     1       2.952   2.908  17.340  0.00  0.00    +0.000 A 
ENDBRANCH   2  12
BRANCH   1  19
ATOM     18  N   UNL     1       2.925   6.760  17.848  0.00  0.00    +0.000 N 
ATOM     19  C   UNL     1       4.275   6.543  17.158  0.00  0.00    +0.000 C 
ATOM     20  O   UNL     1       5.109   7.443  17.129  0.00  0.00    +0.000 OA
ATOM     21  H   UNL     1       2.307   5.952  17.906  0.00  0.00    +0.000 HD
BRANCH  18  25
ATOM     22  C   UNL     1       1.117  10.532  19.817  0.00  0.00    +0.000 A 
ATOM     23  C   UNL     1       1.237   9.284  20.452  0.00  0.00    +0.000 A 
ATOM     24  C   UNL     1       1.788   8.057  19.852  0.00  0.00    +0.000 A 
ATOM     25  C   UNL     1       2.256   7.994  18.526  0.00  0.00    +0.000 A 
ATOM     26  C   UNL     1       2.058   9.262  17.866  0.00  0.00    +0.000 A 
ATOM     27  C   UNL     1       1.498  10.502  18.481  0.00  0.00    +0.000 A 
BRANCH  22  28
ATOM     28  O   UNL     1       0.618  11.567  20.590  0.00  0.00    +0.000 OA
BRANCH  28  30
ATOM     29  C   UNL     1      -1.289  12.518  21.874  0.00  0.00    +0.000 C 
ATOM     30  C   UNL     1      -0.218  11.399  21.761  0.00  0.00    +0.000 C 
ENDBRANCH  28  30
ENDBRANCH  22  28
ENDBRANCH  18  25
ENDBRANCH   1  19
TORSDOF 5
ENDMDL
MODEL 9
REMARK VINA RESULT:      -8.1      4.667      6.732
REMARK  Name = 
REMARK  7 active torsions:
REMARK  status: ('A' for Active; 'I' for Inactive)
REMARK    1  A    between atoms: C_1  and  C_2
REMARK    2  A    between atoms: C_2  and  O_3
REMARK    3  A    between atoms: O_3  and  C_4
REMARK    4  A    between atoms: C_7  and  N_8
REMARK    5  A    between atoms: C_9  and  C_11
REMARK    6  A    between atoms: C_12  and  C_13
REMARK    7  A    between atoms: C_24  and  C_25
REMARK                            x       y       z     vdW  Elec       q    Type
REMARK                         _______ _______ _______ _____ _____    ______ ____
ROOT
ATOM      1  C   UNL     1       3.292   5.973  18.146  0.00  0.00    +0.000 A 
ATOM      2  C   UNL     1       3.729   5.250  19.179  0.00  0.00    +0.000 A 
ATOM      3  N   UNL     1       5.035   5.447  19.393  0.00  0.00    +0.000 NA
ATOM      4  N   UNL     1       5.790   6.233  18.419  0.00  0.00    +0.000 NA
ATOM      5  C   UNL     1       5.358   6.389  17.139  0.00  0.00    +0.000 A 
ATOM      6  C   UNL     1       6.177   6.687  16.021  0.00  0.00    +0.000 A 
ATOM      7  C   UNL     1       6.294   5.827  14.920  0.00  0.00    +0.000 A 
ATOM      8  C   UNL     1       5.648   4.608  14.979  0.00  0.00    +0.000 A 
ATOM      9  C   UNL     1       6.317   3.496  14.151  0.00  0.00    +0.000 C 
ATOM     10  C   UNL     1       4.576   4.564  15.955  0.00  0.00    +0.000 A 
ATOM     11  C   UNL     1       4.205   5.727  16.951  0.00  0.00    +0.000 A 
ENDROOT
BRANCH   2  12
ATOM     12  C   UNL     1       2.799   4.350  19.861  0.00  0.00    +0.000 A 
ATOM     13  C   UNL     1       1.735   3.764  19.106  0.00  0.00    +0.000 A 
ATOM     14  C   UNL     1       0.776   2.947  19.666  0.00  0.00    +0.000 A 
ATOM     15  C   UNL     1       0.854   2.664  21.022  0.00  0.00    +0.000 A 
ATOM     16  C   UNL     1       1.898   3.205  21.797  0.00  0.00    +0.000 A 
ATOM     17  C   UNL     1       2.867   4.033  21.218  0.00  0.00    +0.000 A 
ENDBRANCH   2  12
BRANCH   1  19
ATOM     18  N   UNL     1       1.927   7.437  20.197  0.00  0.00    +0.000 N 
ATOM     19  C   UNL     1       2.645   7.415  18.844  0.00  0.00    +0.000 C 
ATOM     20  O   UNL     1       2.716   8.434  18.163  0.00  0.00    +0.000 OA
ATOM     21  H   UNL     1       1.968   6.582  20.750  0.00  0.00    +0.000 HD
BRANCH  18  25
ATOM     22  C   UNL     1      -0.576  10.519  22.565  0.00  0.00    +0.000 A 
ATOM     23  C   UNL     1      -0.477  10.485  21.163  0.00  0.00    +0.000 A 
ATOM     24  C   UNL     1       0.324   9.532  20.376  0.00  0.00    +0.000 A 
ATOM     25  C   UNL     1       1.119   8.528  20.962  0.00  0.00    +0.000 A 
ATOM     26  C   UNL     1       1.063   8.625  22.401  0.00  0.00    +0.000 A 
ATOM     27  C   UNL     1       0.249   9.594  23.193  0.00  0.00    +0.000 A 
BRANCH  22  28
ATOM     28  O   UNL     1      -1.433  11.469  23.095  0.00  0.00    +0.000 OA
BRANCH  28  30
ATOM     29  C   UNL     1      -3.614  12.656  22.932  0.00  0.00    +0.000 C 
ATOM     30  C   UNL     1      -2.209  12.413  22.317  0.00  0.00    +0.000 C 
ENDBRANCH  28  30
ENDBRANCH  22  28
ENDBRANCH  18  25
ENDBRANCH   1  19
TORSDOF 5
ENDMDL
