MODEL 1
REMARK VINA RESULT:      -7.5      0.000      0.000
REMARK  Name = 
REMARK  8 active torsions:
REMARK  status: ('A' for Active; 'I' for Inactive)
REMARK    1  A    between atoms: C_1  and  C_2
REMARK    2  A    between atoms: C_9  and  C_10
REMARK    3  A    between atoms: C_11  and  C_12
REMARK    4  A    between atoms: C_14  and  N_15
REMARK    5  A    between atoms: N_16  and  N_17
REMARK    6  A    between atoms: N_17  and  C_18
REMARK    7  A    between atoms: C_29  and  C_30
REMARK    8  A    between atoms: C_29  and  C_31
REMARK                            x       y       z     vdW  Elec       q    Type
REMARK                         _______ _______ _______ _____ _____    ______ ____
ROOT
ATOM      1  C   UNL     1       0.059  11.473  18.237  0.00  0.00    +0.000 C 
ATOM      2  C   UNL     1      -1.427  11.548  18.558  0.00  0.00    +0.000 C 
ATOM      3  C   UNL     1      -1.984  12.577  19.238  0.00  0.00    +0.000 C 
ATOM      4  N   UNL     1      -1.222  13.762  19.534  0.00  0.00    +0.000 N 
ATOM      5  C   UNL     1       0.203  13.722  19.367  0.00  0.00    +0.000 C 
ATOM      6  C   UNL     1       0.821  12.673  18.763  0.00  0.00    +0.000 C 
ATOM      7  C   UNL     1       2.287  12.715  18.462  0.00  0.00    +0.000 C 
ATOM      8  O   UNL     1       2.835  11.761  17.914  0.00  0.00    +0.000 OA
ATOM      9  C   UNL     1       3.057  13.980  18.741  0.00  0.00    +0.000 C 
ATOM     10  C   UNL     1       2.554  14.683  20.000  0.00  0.00    +0.000 C 
ATOM     11  C   UNL     1       2.896  13.850  21.253  0.00  0.00    +0.000 C 
ATOM     12  C   UNL     1       3.272  16.041  20.132  0.00  0.00    +0.000 C 
ATOM     13  C   UNL     1       1.027  14.909  19.874  0.00  0.00    +0.000 C 
ENDROOT
BRANCH   1  22
ATOM     14  C   UNL     1       4.109   5.194  17.133  0.00  0.00    +0.000 C 
ATOM     15  C   UNL     1       3.355   6.134  18.026  0.00  0.00    +0.000 A 
ATOM     16  C   UNL     1       3.337   5.941  19.406  0.00  0.00    +0.000 A 
ATOM     17  C   UNL     1       2.608   6.805  20.226  0.00  0.00    +0.000 A 
ATOM     18  C   UNL     1       1.894   7.874  19.702  0.00  0.00    +0.000 A 
ATOM     19  N   UNL     1       1.202   8.651  20.543  0.00  0.00    +0.000 NA
ATOM     20  C   UNL     1       0.564   9.721  20.033  0.00  0.00    +0.000 A 
ATOM     21 CL   UNL     1      -0.217  10.637  21.270  0.00  0.00    +0.000 Cl
ATOM     22  C   UNL     1       0.589  10.108  18.690  0.00  0.00    +0.000 A 
ATOM     23  C   UNL     1       1.281   9.249  17.818  0.00  0.00    +0.000 A 
ATOM     24  C   UNL     1       1.942   8.109  18.316  0.00  0.00    +0.000 A 
ATOM     25  C   UNL     1       2.662   7.228  17.485  0.00  0.00    +0.000 A 
ENDBRANCH   1  22
BRANCH   3  26
ATOM     26  N   UNL     1      -3.307  12.458  19.657  0.00  0.00    +0.000 N 
ATOM     27  H   UNL     1      -3.797  13.317  19.895  0.00  0.00    +0.000 HD
ATOM     28  H   UNL     1      -3.450  11.733  20.350  0.00  0.00    +0.000 HD
ENDBRANCH   3  26
BRANCH   2  29
ATOM     29  C   UNL     1      -2.251  10.458  18.131  0.00  0.00    +0.000 C 
ATOM     30  N   UNL     1      -2.962   9.620  17.763  0.00  0.00    +0.000 NA
ENDBRANCH   2  29
BRANCH   4  31
ATOM     31  N   UNL     1      -1.856  14.891  20.125  0.00  0.00    +0.000 N 
ATOM     32  H   UNL     1      -2.674  15.200  19.601  0.00  0.00    +0.000 HD
BRANCH  31  33
ATOM     33  C   UNL     1      -2.260  14.994  21.492  0.00  0.00    +0.000 A 
ATOM     34  C   UNL     1      -1.477  14.334  22.452  0.00  0.00    +0.000 A 
ATOM     35  C   UNL     1      -1.840  14.343  23.801  0.00  0.00    +0.000 A 
ATOM     36  C   UNL     1      -2.978  15.035  24.208  0.00  0.00    +0.000 A 
ATOM     37  C   UNL     1      -3.748  15.719  23.267  0.00  0.00    +0.000 A 
ATOM     38  C   UNL     1      -3.383  15.712  21.916  0.00  0.00    +0.000 A 
ENDBRANCH  31  33
ENDBRANCH   4  31
TORSDOF 5
ENDMDL
MODEL 2
REMARK VINA RESULT:      -7.0      3.147      7.646
REMARK  Name = 
REMARK  8 active torsions:
REMARK  status: ('A' for Active; 'I' for Inactive)
REMARK    1  A    between atoms: C_1  and  C_2
REMARK    2  A    between atoms: C_9  and  C_10
REMARK    3  A    between atoms: C_11  and  C_12
REMARK    4  A    between atoms: C_14  and  N_15
REMARK    5  A    between atoms: N_16  and  N_17
REMARK    6  A    between atoms: N_17  and  C_18
REMARK    7  A    between atoms: C_29  and  C_30
REMARK    8  A    between atoms: C_29  and  C_31
REMARK                            x       y       z     vdW  Elec       q    Type
REMARK                         _______ _______ _______ _____ _____    ______ ____
ROOT
ATOM      1  C   UNL     1       1.190  15.200  19.567  0.00  0.00    +0.000 C 
ATOM      2  C   UNL     1       2.013  14.362  18.599  0.00  0.00    +0.000 C 
ATOM      3  C   UNL     1       1.725  13.070  18.312  0.00  0.00    +0.000 C 
ATOM      4  N   UNL     1       0.499  12.470  18.770  0.00  0.00    +0.000 N 
ATOM      5  C   UNL     1      -0.267  13.154  19.773  0.00  0.00    +0.000 C 
ATOM      6  C   UNL     1       0.030  14.423  20.156  0.00  0.00    +0.000 C 
ATOM      7  C   UNL     1      -0.867  15.173  21.091  0.00  0.00    +0.000 C 
ATOM      8  O   UNL     1      -0.589  16.322  21.430  0.00  0.00    +0.000 OA
ATOM      9  C   UNL     1      -2.166  14.544  21.525  0.00  0.00    +0.000 C 
ATOM     10  C   UNL     1      -2.031  13.033  21.704  0.00  0.00    +0.000 C 
ATOM     11  C   UNL     1      -1.132  12.715  22.918  0.00  0.00    +0.000 C 
ATOM     12  C   UNL     1      -3.425  12.439  21.986  0.00  0.00    +0.000 C 
ATOM     13  C   UNL     1      -1.455  12.421  20.402  0.00  0.00    +0.000 C 
ENDROOT
BRANCH   1  22
ATOM     14  C   UNL     1       6.586  14.771  24.835  0.00  0.00    +0.000 C 
ATOM     15  C   UNL     1       5.752  15.555  23.865  0.00  0.00    +0.000 A 
ATOM     16  C   UNL     1       6.004  16.908  23.644  0.00  0.00    +0.000 A 
ATOM     17  C   UNL     1       5.204  17.635  22.761  0.00  0.00    +0.000 A 
ATOM     18  C   UNL     1       4.150  17.043  22.078  0.00  0.00    +0.000 A 
ATOM     19  N   UNL     1       3.412  17.804  21.263  0.00  0.00    +0.000 NA
ATOM     20  C   UNL     1       2.432  17.207  20.558  0.00  0.00    +0.000 A 
ATOM     21 CL   UNL     1       1.634  18.326  19.516  0.00  0.00    +0.000 Cl
ATOM     22  C   UNL     1       2.139  15.840  20.587  0.00  0.00    +0.000 A 
ATOM     23  C   UNL     1       2.895  15.070  21.488  0.00  0.00    +0.000 A 
ATOM     24  C   UNL     1       3.913  15.668  22.256  0.00  0.00    +0.000 A 
ATOM     25  C   UNL     1       4.709  14.936  23.160  0.00  0.00    +0.000 A 
ENDBRANCH   1  22
BRANCH   3  26
ATOM     26  N   UNL     1       2.649  12.332  17.577  0.00  0.00    +0.000 N 
ATOM     27  H   UNL     1       3.485  12.819  17.261  0.00  0.00    +0.000 HD
ATOM     28  H   UNL     1       2.231  11.775  16.841  0.00  0.00    +0.000 HD
ENDBRANCH   3  26
BRANCH   2  29
ATOM     29  C   UNL     1       3.153  14.980  17.993  0.00  0.00    +0.000 C 
ATOM     30  N   UNL     1       4.114  15.440  17.536  0.00  0.00    +0.000 NA
ENDBRANCH   2  29
BRANCH   4  31
ATOM     31  N   UNL     1       0.143  11.159  18.347  0.00  0.00    +0.000 N 
ATOM     32  H   UNL     1       0.086  11.077  17.332  0.00  0.00    +0.000 HD
BRANCH  31  33
ATOM     33  C   UNL     1       0.788   9.952  18.756  0.00  0.00    +0.000 A 
ATOM     34  C   UNL     1       0.680   9.584  20.107  0.00  0.00    +0.000 A 
ATOM     35  C   UNL     1       1.329   8.447  20.593  0.00  0.00    +0.000 A 
ATOM     36  C   UNL     1       2.074   7.650  19.728  0.00  0.00    +0.000 A 
ATOM     37  C   UNL     1       2.164   7.989  18.377  0.00  0.00    +0.000 A 
ATOM     38  C   UNL     1       1.511   9.127  17.889  0.00  0.00    +0.000 A 
ENDBRANCH  31  33
ENDBRANCH   4  31
TORSDOF 5
ENDMDL
MODEL 3
REMARK VINA RESULT:      -6.9      5.923      9.887
REMARK  Name = 
REMARK  8 active torsions:
REMARK  status: ('A' for Active; 'I' for Inactive)
REMARK    1  A    between atoms: C_1  and  C_2
REMARK    2  A    between atoms: C_9  and  C_10
REMARK    3  A    between atoms: C_11  and  C_12
REMARK    4  A    between atoms: C_14  and  N_15
REMARK    5  A    between atoms: N_16  and  N_17
REMARK    6  A    between atoms: N_17  and  C_18
REMARK    7  A    between atoms: C_29  and  C_30
REMARK    8  A    between atoms: C_29  and  C_31
REMARK                            x       y       z     vdW  Elec       q    Type
REMARK                         _______ _______ _______ _____ _____    ______ ____
ROOT
ATOM      1  C   UNL     1       6.621  15.053  22.750  0.00  0.00    +0.000 C 
ATOM      2  C   UNL     1       6.850  13.664  23.331  0.00  0.00    +0.000 C 
ATOM      3  C   UNL     1       7.842  12.843  22.912  0.00  0.00    +0.000 C 
ATOM      4  N   UNL     1       8.861  13.319  22.014  0.00  0.00    +0.000 N 
ATOM      5  C   UNL     1       8.653  14.568  21.338  0.00  0.00    +0.000 C 
ATOM      6  C   UNL     1       7.624  15.393  21.666  0.00  0.00    +0.000 C 
ATOM      7  C   UNL     1       7.509  16.756  21.058  0.00  0.00    +0.000 C 
ATOM      8  O   UNL     1       6.575  17.495  21.362  0.00  0.00    +0.000 OA
ATOM      9  C   UNL     1       8.609  17.251  20.154  0.00  0.00    +0.000 C 
ATOM     10  C   UNL     1       9.193  16.124  19.304  0.00  0.00    +0.000 C 
ATOM     11  C   UNL     1       8.157  15.641  18.267  0.00  0.00    +0.000 C 
ATOM     12  C   UNL     1      10.412  16.665  18.530  0.00  0.00    +0.000 C 
ATOM     13  C   UNL     1       9.637  14.970  20.237  0.00  0.00    +0.000 C 
ENDROOT
BRANCH   1  22
ATOM     14  C   UNL     1       0.664  13.017  18.577  0.00  0.00    +0.000 C 
ATOM     15  C   UNL     1       1.266  13.721  19.756  0.00  0.00    +0.000 A 
ATOM     16  C   UNL     1       0.452  14.310  20.724  0.00  0.00    +0.000 A 
ATOM     17  C   UNL     1       1.023  14.988  21.802  0.00  0.00    +0.000 A 
ATOM     18  C   UNL     1       2.399  15.092  21.950  0.00  0.00    +0.000 A 
ATOM     19  N   UNL     1       2.878  15.772  22.997  0.00  0.00    +0.000 NA
ATOM     20  C   UNL     1       4.213  15.814  23.165  0.00  0.00    +0.000 A 
ATOM     21 CL   UNL     1       4.641  16.677  24.597  0.00  0.00    +0.000 Cl
ATOM     22  C   UNL     1       5.148  15.176  22.345  0.00  0.00    +0.000 A 
ATOM     23  C   UNL     1       4.624  14.508  21.224  0.00  0.00    +0.000 A 
ATOM     24  C   UNL     1       3.233  14.463  21.006  0.00  0.00    +0.000 A 
ATOM     25  C   UNL     1       2.659  13.793  19.908  0.00  0.00    +0.000 A 
ENDBRANCH   1  22
BRANCH   3  26
ATOM     26  N   UNL     1       7.844  11.524  23.359  0.00  0.00    +0.000 N 
ATOM     27  H   UNL     1       7.734  10.797  22.655  0.00  0.00    +0.000 HD
ATOM     28  H   UNL     1       7.252  11.367  24.165  0.00  0.00    +0.000 HD
ENDBRANCH   3  26
BRANCH   2  29
ATOM     29  C   UNL     1       5.950  13.218  24.351  0.00  0.00    +0.000 C 
ATOM     30  N   UNL     1       5.240  12.909  25.213  0.00  0.00    +0.000 NA
ENDBRANCH   2  29
BRANCH   4  31
ATOM     31  N   UNL     1       9.973  12.491  21.691  0.00  0.00    +0.000 N 
ATOM     32  H   UNL     1      10.035  11.668  22.291  0.00  0.00    +0.000 HD
BRANCH  31  33
ATOM     33  C   UNL     1      10.288  11.996  20.389  0.00  0.00    +0.000 A 
ATOM     34  C   UNL     1      11.640  11.972  20.012  0.00  0.00    +0.000 A 
ATOM     35  C   UNL     1      12.021  11.555  18.735  0.00  0.00    +0.000 A 
ATOM     36  C   UNL     1      11.054  11.132  17.827  0.00  0.00    +0.000 A 
ATOM     37  C   UNL     1       9.709  11.123  18.199  0.00  0.00    +0.000 A 
ATOM     38  C   UNL     1       9.328  11.539  19.480  0.00  0.00    +0.000 A 
ENDBRANCH  31  33
ENDBRANCH   4  31
TORSDOF 5
ENDMDL
MODEL 4
REMARK VINA RESULT:      -6.9      1.490      2.116
REMARK  Name = 
REMARK  8 active torsions:
REMARK  status: ('A' for Active; 'I' for Inactive)
REMARK    1  A    between atoms: C_1  and  C_2
REMARK    2  A    between atoms: C_9  and  C_10
REMARK    3  A    between atoms: C_11  and  C_12
REMARK    4  A    between atoms: C_14  and  N_15
REMARK    5  A    between atoms: N_16  and  N_17
REMARK    6  A    between atoms: N_17  and  C_18
REMARK    7  A    between atoms: C_29  and  C_30
REMARK    8  A    between atoms: C_29  and  C_31
REMARK                            x       y       z     vdW  Elec       q    Type
REMARK                         _______ _______ _______ _____ _____    ______ ____
ROOT
ATOM      1  C   UNL     1       0.191  11.770  18.442  0.00  0.00    +0.000 C 
ATOM      2  C   UNL     1      -1.271  11.936  18.835  0.00  0.00    +0.000 C 
ATOM      3  C   UNL     1      -1.725  12.984  19.561  0.00  0.00    +0.000 C 
ATOM      4  N   UNL     1      -0.872  14.109  19.844  0.00  0.00    +0.000 N 
ATOM      5  C   UNL     1       0.538  13.978  19.607  0.00  0.00    +0.000 C 
ATOM      6  C   UNL     1       1.055  12.905  18.954  0.00  0.00    +0.000 C 
ATOM      7  C   UNL     1       2.505  12.856  18.584  0.00  0.00    +0.000 C 
ATOM      8  O   UNL     1       2.962  11.881  17.992  0.00  0.00    +0.000 OA
ATOM      9  C   UNL     1       3.371  14.061  18.851  0.00  0.00    +0.000 C 
ATOM     10  C   UNL     1       2.975  14.767  20.146  0.00  0.00    +0.000 C 
ATOM     11  C   UNL     1       3.318  13.885  21.365  0.00  0.00    +0.000 C 
ATOM     12  C   UNL     1       3.788  16.071  20.270  0.00  0.00    +0.000 C 
ATOM     13  C   UNL     1       1.462  15.096  20.098  0.00  0.00    +0.000 C 
ENDROOT
BRANCH   1  22
ATOM     14  C   UNL     1       3.947   5.353  17.116  0.00  0.00    +0.000 C 
ATOM     15  C   UNL     1       3.228   6.290  18.040  0.00  0.00    +0.000 A 
ATOM     16  C   UNL     1       3.182   6.040  19.411  0.00  0.00    +0.000 A 
ATOM     17  C   UNL     1       2.485   6.904  20.258  0.00  0.00    +0.000 A 
ATOM     18  C   UNL     1       1.830   8.028  19.773  0.00  0.00    +0.000 A 
ATOM     19  N   UNL     1       1.166   8.801  20.638  0.00  0.00    +0.000 NA
ATOM     20  C   UNL     1       0.587   9.922  20.167  0.00  0.00    +0.000 A 
ATOM     21 CL   UNL     1      -0.165  10.822  21.433  0.00  0.00    +0.000 Cl
ATOM     22  C   UNL     1       0.648  10.363  18.842  0.00  0.00    +0.000 A 
ATOM     23  C   UNL     1       1.309   9.509  17.942  0.00  0.00    +0.000 A 
ATOM     24  C   UNL     1       1.907   8.318  18.398  0.00  0.00    +0.000 A 
ATOM     25  C   UNL     1       2.595   7.438  17.539  0.00  0.00    +0.000 A 
ENDBRANCH   1  22
BRANCH   3  26
ATOM     26  N   UNL     1      -3.032  12.943  20.040  0.00  0.00    +0.000 N 
ATOM     27  H   UNL     1      -3.752  12.629  19.393  0.00  0.00    +0.000 HD
ATOM     28  H   UNL     1      -3.308  13.778  20.543  0.00  0.00    +0.000 HD
ENDBRANCH   3  26
BRANCH   2  29
ATOM     29  C   UNL     1      -2.185  10.913  18.427  0.00  0.00    +0.000 C 
ATOM     30  N   UNL     1      -2.874  10.051  18.072  0.00  0.00    +0.000 NA
ENDBRANCH   2  29
BRANCH   4  31
ATOM     31  N   UNL     1      -1.400  15.264  20.486  0.00  0.00    +0.000 N 
ATOM     32  H   UNL     1      -0.772  15.640  21.196  0.00  0.00    +0.000 HD
BRANCH  31  33
ATOM     33  C   UNL     1      -1.908  16.423  19.822  0.00  0.00    +0.000 A 
ATOM     34  C   UNL     1      -3.224  16.814  20.112  0.00  0.00    +0.000 A 
ATOM     35  C   UNL     1      -3.808  17.903  19.461  0.00  0.00    +0.000 A 
ATOM     36  C   UNL     1      -3.071  18.630  18.530  0.00  0.00    +0.000 A 
ATOM     37  C   UNL     1      -1.752  18.269  18.255  0.00  0.00    +0.000 A 
ATOM     38  C   UNL     1      -1.166  17.179  18.909  0.00  0.00    +0.000 A 
ENDBRANCH  31  33
ENDBRANCH   4  31
TORSDOF 5
ENDMDL
MODEL 5
REMARK VINA RESULT:      -6.9      4.653      8.425
REMARK  Name = 
REMARK  8 active torsions:
REMARK  status: ('A' for Active; 'I' for Inactive)
REMARK    1  A    between atoms: C_1  and  C_2
REMARK    2  A    between atoms: C_9  and  C_10
REMARK    3  A    between atoms: C_11  and  C_12
REMARK    4  A    between atoms: C_14  and  N_15
REMARK    5  A    between atoms: N_16  and  N_17
REMARK    6  A    between atoms: N_17  and  C_18
REMARK    7  A    between atoms: C_29  and  C_30
REMARK    8  A    between atoms: C_29  and  C_31
REMARK                            x       y       z     vdW  Elec       q    Type
REMARK                         _______ _______ _______ _____ _____    ______ ____
ROOT
ATOM      1  C   UNL     1       4.978   5.710  18.375  0.00  0.00    +0.000 C 
ATOM      2  C   UNL     1       4.557   7.126  18.006  0.00  0.00    +0.000 C 
ATOM      3  C   UNL     1       3.320   7.617  18.254  0.00  0.00    +0.000 C 
ATOM      4  N   UNL     1       2.384   6.878  19.061  0.00  0.00    +0.000 N 
ATOM      5  C   UNL     1       2.662   5.499  19.348  0.00  0.00    +0.000 C 
ATOM      6  C   UNL     1       3.860   4.936  19.044  0.00  0.00    +0.000 C 
ATOM      7  C   UNL     1       4.188   3.543  19.485  0.00  0.00    +0.000 C 
ATOM      8  O   UNL     1       5.276   3.043  19.206  0.00  0.00    +0.000 OA
ATOM      9  C   UNL     1       3.212   2.803  20.364  0.00  0.00    +0.000 C 
ATOM     10  C   UNL     1       1.765   3.129  20.002  0.00  0.00    +0.000 C 
ATOM     11  C   UNL     1       1.413   2.544  18.618  0.00  0.00    +0.000 C 
ATOM     12  C   UNL     1       0.832   2.470  21.039  0.00  0.00    +0.000 C 
ATOM     13  C   UNL     1       1.573   4.666  20.029  0.00  0.00    +0.000 C 
ENDROOT
BRANCH   1  22
ATOM     14  C   UNL     1       4.539   3.130  11.290  0.00  0.00    +0.000 C 
ATOM     15  C   UNL     1       5.332   3.541  12.494  0.00  0.00    +0.000 A 
ATOM     16  C   UNL     1       6.725   3.599  12.442  0.00  0.00    +0.000 A 
ATOM     17  C   UNL     1       7.455   3.954  13.577  0.00  0.00    +0.000 A 
ATOM     18  C   UNL     1       6.830   4.266  14.776  0.00  0.00    +0.000 A 
ATOM     19  N   UNL     1       7.592   4.580  15.829  0.00  0.00    +0.000 NA
ATOM     20  C   UNL     1       6.974   4.942  16.970  0.00  0.00    +0.000 A 
ATOM     21 CL   UNL     1       8.113   5.372  18.193  0.00  0.00    +0.000 Cl
ATOM     22  C   UNL     1       5.591   5.044  17.137  0.00  0.00    +0.000 A 
ATOM     23  C   UNL     1       4.810   4.662  16.032  0.00  0.00    +0.000 A 
ATOM     24  C   UNL     1       5.424   4.258  14.831  0.00  0.00    +0.000 A 
ATOM     25  C   UNL     1       4.685   3.882  13.692  0.00  0.00    +0.000 A 
ENDBRANCH   1  22
BRANCH   3  26
ATOM     26  N   UNL     1       2.969   8.845  17.700  0.00  0.00    +0.000 N 
ATOM     27  H   UNL     1       2.217   8.846  17.015  0.00  0.00    +0.000 HD
ATOM     28  H   UNL     1       3.763   9.394  17.395  0.00  0.00    +0.000 HD
ENDBRANCH   3  26
BRANCH   2  29
ATOM     29  C   UNL     1       5.522   7.951  17.345  0.00  0.00    +0.000 C 
ATOM     30  N   UNL     1       6.351   8.582  16.837  0.00  0.00    +0.000 NA
ENDBRANCH   2  29
BRANCH   4  31
ATOM     31  N   UNL     1       1.141   7.464  19.431  0.00  0.00    +0.000 N 
ATOM     32  H   UNL     1       0.462   6.774  19.751  0.00  0.00    +0.000 HD
BRANCH  31  33
ATOM     33  C   UNL     1       0.977   8.558  20.335  0.00  0.00    +0.000 A 
ATOM     34  C   UNL     1       1.206   8.315  21.698  0.00  0.00    +0.000 A 
ATOM     35  C   UNL     1       1.012   9.320  22.648  0.00  0.00    +0.000 A 
ATOM     36  C   UNL     1       0.610  10.590  22.241  0.00  0.00    +0.000 A 
ATOM     37  C   UNL     1       0.408  10.852  20.886  0.00  0.00    +0.000 A 
ATOM     38  C   UNL     1       0.605   9.846  19.934  0.00  0.00    +0.000 A 
ENDBRANCH  31  33
ENDBRANCH   4  31
TORSDOF 5
ENDMDL
MODEL 6
REMARK VINA RESULT:      -6.8      2.030      2.826
REMARK  Name = 
REMARK  8 active torsions:
REMARK  status: ('A' for Active; 'I' for Inactive)
REMARK    1  A    between atoms: C_1  and  C_2
REMARK    2  A    between atoms: C_9  and  C_10
REMARK    3  A    between atoms: C_11  and  C_12
REMARK    4  A    between atoms: C_14  and  N_15
REMARK    5  A    between atoms: N_16  and  N_17
REMARK    6  A    between atoms: N_17  and  C_18
REMARK    7  A    between atoms: C_29  and  C_30
REMARK    8  A    between atoms: C_29  and  C_31
REMARK                            x       y       z     vdW  Elec       q    Type
REMARK                         _______ _______ _______ _____ _____    ______ ____
ROOT
ATOM      1  C   UNL     1      -1.172  11.771  18.660  0.00  0.00    +0.000 C 
ATOM      2  C   UNL     1      -2.598  11.385  18.290  0.00  0.00    +0.000 C 
ATOM      3  C   UNL     1      -3.688  11.954  18.858  0.00  0.00    +0.000 C 
ATOM      4  N   UNL     1      -3.556  13.102  19.717  0.00  0.00    +0.000 N 
ATOM      5  C   UNL     1      -2.250  13.451  20.201  0.00  0.00    +0.000 C 
ATOM      6  C   UNL     1      -1.129  12.852  19.722  0.00  0.00    +0.000 C 
ATOM      7  C   UNL     1       0.231  13.332  20.126  0.00  0.00    +0.000 C 
ATOM      8  O   UNL     1       1.239  12.784  19.686  0.00  0.00    +0.000 OA
ATOM      9  C   UNL     1       0.347  14.560  20.992  0.00  0.00    +0.000 C 
ATOM     10  C   UNL     1      -0.786  14.642  22.013  0.00  0.00    +0.000 C 
ATOM     11  C   UNL     1      -0.639  13.526  23.069  0.00  0.00    +0.000 C 
ATOM     12  C   UNL     1      -0.695  15.995  22.748  0.00  0.00    +0.000 C 
ATOM     13  C   UNL     1      -2.141  14.540  21.271  0.00  0.00    +0.000 C 
ENDROOT
BRANCH   1  22
ATOM     14  C   UNL     1       4.131   6.621  17.112  0.00  0.00    +0.000 C 
ATOM     15  C   UNL     1       3.164   7.272  18.055  0.00  0.00    +0.000 A 
ATOM     16  C   UNL     1       3.130   6.908  19.401  0.00  0.00    +0.000 A 
ATOM     17  C   UNL     1       2.206   7.499  20.265  0.00  0.00    +0.000 A 
ATOM     18  C   UNL     1       1.308   8.460  19.821  0.00  0.00    +0.000 A 
ATOM     19  N   UNL     1       0.438   8.971  20.699  0.00  0.00    +0.000 NA
ATOM     20  C   UNL     1      -0.388   9.946  20.274  0.00  0.00    +0.000 A 
ATOM     21 CL   UNL     1      -1.390  10.525  21.554  0.00  0.00    +0.000 Cl
ATOM     22  C   UNL     1      -0.390  10.494  18.988  0.00  0.00    +0.000 A 
ATOM     23  C   UNL     1       0.499   9.908  18.071  0.00  0.00    +0.000 A 
ATOM     24  C   UNL     1       1.361   8.871  18.477  0.00  0.00    +0.000 A 
ATOM     25  C   UNL     1       2.281   8.263  17.599  0.00  0.00    +0.000 A 
ENDBRANCH   1  22
BRANCH   3  26
ATOM     26  N   UNL     1      -4.937  11.394  18.602  0.00  0.00    +0.000 N 
ATOM     27  H   UNL     1      -5.440  11.737  17.786  0.00  0.00    +0.000 HD
ATOM     28  H   UNL     1      -5.532  11.337  19.420  0.00  0.00    +0.000 HD
ENDBRANCH   3  26
BRANCH   2  29
ATOM     29  C   UNL     1      -2.771  10.356  17.310  0.00  0.00    +0.000 C 
ATOM     30  N   UNL     1      -2.884   9.563  16.473  0.00  0.00    +0.000 NA
ENDBRANCH   2  29
BRANCH   4  31
ATOM     31  N   UNL     1      -4.715  13.774  20.194  0.00  0.00    +0.000 N 
ATOM     32  H   UNL     1      -5.395  13.955  19.456  0.00  0.00    +0.000 HD
BRANCH  31  33
ATOM     33  C   UNL     1      -5.512  13.364  21.307  0.00  0.00    +0.000 A 
ATOM     34  C   UNL     1      -6.869  13.092  21.071  0.00  0.00    +0.000 A 
ATOM     35  C   UNL     1      -7.722  12.740  22.118  0.00  0.00    +0.000 A 
ATOM     36  C   UNL     1      -7.222  12.632  23.413  0.00  0.00    +0.000 A 
ATOM     37  C   UNL     1      -5.869  12.870  23.657  0.00  0.00    +0.000 A 
ATOM     38  C   UNL     1      -5.013  13.221  22.606  0.00  0.00    +0.000 A 
ENDBRANCH  31  33
ENDBRANCH   4  31
TORSDOF 5
ENDMDL
MODEL 7
REMARK VINA RESULT:      -6.8      1.033      1.034
REMARK  Name = 
REMARK  8 active torsions:
REMARK  status: ('A' for Active; 'I' for Inactive)
REMARK    1  A    between atoms: C_1  and  C_2
REMARK    2  A    between atoms: C_9  and  C_10
REMARK    3  A    between atoms: C_11  and  C_12
REMARK    4  A    between atoms: C_14  and  N_15
REMARK    5  A    between atoms: N_16  and  N_17
REMARK    6  A    between atoms: N_17  and  C_18
REMARK    7  A    between atoms: C_29  and  C_30
REMARK    8  A    between atoms: C_29  and  C_31
REMARK                            x       y       z     vdW  Elec       q    Type
REMARK                         _______ _______ _______ _____ _____    ______ ____
ROOT
ATOM      1  C   UNL     1       0.153  12.079  18.457  0.00  0.00    +0.000 C 
ATOM      2  C   UNL     1      -1.312  12.313  18.801  0.00  0.00    +0.000 C 
ATOM      3  C   UNL     1      -1.745  13.399  19.485  0.00  0.00    +0.000 C 
ATOM      4  N   UNL     1      -0.856  14.497  19.761  0.00  0.00    +0.000 N 
ATOM      5  C   UNL     1       0.554  14.304  19.570  0.00  0.00    +0.000 C 
ATOM      6  C   UNL     1       1.046  13.194  18.963  0.00  0.00    +0.000 C 
ATOM      7  C   UNL     1       2.503  13.077  18.638  0.00  0.00    +0.000 C 
ATOM      8  O   UNL     1       2.938  12.068  18.087  0.00  0.00    +0.000 OA
ATOM      9  C   UNL     1       3.408  14.254  18.897  0.00  0.00    +0.000 C 
ATOM     10  C   UNL     1       3.004  15.012  20.160  0.00  0.00    +0.000 C 
ATOM     11  C   UNL     1       3.277  14.153  21.412  0.00  0.00    +0.000 C 
ATOM     12  C   UNL     1       3.864  16.287  20.271  0.00  0.00    +0.000 C 
ATOM     13  C   UNL     1       1.508  15.399  20.057  0.00  0.00    +0.000 C 
ENDROOT
BRANCH   1  22
ATOM     14  C   UNL     1       3.533   5.417  17.344  0.00  0.00    +0.000 C 
ATOM     15  C   UNL     1       2.883   6.430  18.238  0.00  0.00    +0.000 A 
ATOM     16  C   UNL     1       2.851   6.241  19.619  0.00  0.00    +0.000 A 
ATOM     17  C   UNL     1       2.218   7.176  20.441  0.00  0.00    +0.000 A 
ATOM     18  C   UNL     1       1.615   8.312  19.919  0.00  0.00    +0.000 A 
ATOM     19  N   UNL     1       1.010   9.156  20.762  0.00  0.00    +0.000 NA
ATOM     20  C   UNL     1       0.483  10.286  20.253  0.00  0.00    +0.000 A 
ATOM     21 CL   UNL     1      -0.194  11.278  21.492  0.00  0.00    +0.000 Cl
ATOM     22  C   UNL     1       0.541  10.667  18.909  0.00  0.00    +0.000 A 
ATOM     23  C   UNL     1       1.139   9.741  18.036  0.00  0.00    +0.000 A 
ATOM     24  C   UNL     1       1.681   8.539  18.532  0.00  0.00    +0.000 A 
ATOM     25  C   UNL     1       2.303   7.589  17.699  0.00  0.00    +0.000 A 
ENDBRANCH   1  22
BRANCH   3  26
ATOM     26  N   UNL     1      -3.065  13.422  19.925  0.00  0.00    +0.000 N 
ATOM     27  H   UNL     1      -3.323  12.756  20.650  0.00  0.00    +0.000 HD
ATOM     28  H   UNL     1      -3.744  13.450  19.174  0.00  0.00    +0.000 HD
ENDBRANCH   3  26
BRANCH   2  29
ATOM     29  C   UNL     1      -2.254  11.315  18.394  0.00  0.00    +0.000 C 
ATOM     30  N   UNL     1      -2.966  10.468  18.049  0.00  0.00    +0.000 NA
ENDBRANCH   2  29
BRANCH   4  31
ATOM     31  N   UNL     1      -1.356  15.689  20.355  0.00  0.00    +0.000 N 
ATOM     32  H   UNL     1      -2.319  15.888  20.084  0.00  0.00    +0.000 HD
BRANCH  31  33
ATOM     33  C   UNL     1      -1.316  16.001  21.749  0.00  0.00    +0.000 A 
ATOM     34  C   UNL     1      -1.198  14.932  22.651  0.00  0.00    +0.000 A 
ATOM     35  C   UNL     1      -1.208  15.153  24.029  0.00  0.00    +0.000 A 
ATOM     36  C   UNL     1      -1.311  16.451  24.522  0.00  0.00    +0.000 A 
ATOM     37  C   UNL     1      -1.399  17.525  23.636  0.00  0.00    +0.000 A 
ATOM     38  C   UNL     1      -1.387  17.303  22.254  0.00  0.00    +0.000 A 
ENDBRANCH  31  33
ENDBRANCH   4  31
TORSDOF 5
ENDMDL
MODEL 8
REMARK VINA RESULT:      -6.8      2.228      3.310
REMARK  Name = 
REMARK  8 active torsions:
REMARK  status: ('A' for Active; 'I' for Inactive)
REMARK    1  A    between atoms: C_1  and  C_2
REMARK    2  A    between atoms: C_9  and  C_10
REMARK    3  A    between atoms: C_11  and  C_12
REMARK    4  A    between atoms: C_14  and  N_15
REMARK    5  A    between atoms: N_16  and  N_17
REMARK    6  A    between atoms: N_17  and  C_18
REMARK    7  A    between atoms: C_29  and  C_30
REMARK    8  A    between atoms: C_29  and  C_31
REMARK                            x       y       z     vdW  Elec       q    Type
REMARK                         _______ _______ _______ _____ _____    ______ ____
ROOT
ATOM      1  C   UNL     1      -1.889  12.626  19.469  0.00  0.00    +0.000 C 
ATOM      2  C   UNL     1      -3.351  12.286  19.213  0.00  0.00    +0.000 C 
ATOM      3  C   UNL     1      -4.375  12.913  19.840  0.00  0.00    +0.000 C 
ATOM      4  N   UNL     1      -4.138  14.078  20.651  0.00  0.00    +0.000 N 
ATOM      5  C   UNL     1      -2.788  14.390  21.029  0.00  0.00    +0.000 C 
ATOM      6  C   UNL     1      -1.728  13.734  20.490  0.00  0.00    +0.000 C 
ATOM      7  C   UNL     1      -0.326  14.171  20.780  0.00  0.00    +0.000 C 
ATOM      8  O   UNL     1       0.627  13.572  20.286  0.00  0.00    +0.000 OA
ATOM      9  C   UNL     1      -0.101  15.418  21.596  0.00  0.00    +0.000 C 
ATOM     10  C   UNL     1      -1.152  15.574  22.694  0.00  0.00    +0.000 C 
ATOM     11  C   UNL     1      -0.970  14.484  23.770  0.00  0.00    +0.000 C 
ATOM     12  C   UNL     1      -0.958  16.942  23.377  0.00  0.00    +0.000 C 
ATOM     13  C   UNL     1      -2.561  15.504  22.053  0.00  0.00    +0.000 C 
ENDROOT
BRANCH   1  22
ATOM     14  C   UNL     1       3.113   7.244  17.719  0.00  0.00    +0.000 C 
ATOM     15  C   UNL     1       2.234   7.954  18.705  0.00  0.00    +0.000 A 
ATOM     16  C   UNL     1       2.277   7.625  20.059  0.00  0.00    +0.000 A 
ATOM     17  C   UNL     1       1.434   8.271  20.965  0.00  0.00    +0.000 A 
ATOM     18  C   UNL     1       0.543   9.254  20.555  0.00  0.00    +0.000 A 
ATOM     19  N   UNL     1      -0.249   9.818  21.473  0.00  0.00    +0.000 NA
ATOM     20  C   UNL     1      -1.065  10.813  21.077  0.00  0.00    +0.000 A 
ATOM     21 CL   UNL     1      -1.959  11.461  22.403  0.00  0.00    +0.000 Cl
ATOM     22  C   UNL     1      -1.133  11.329  19.780  0.00  0.00    +0.000 A 
ATOM     23  C   UNL     1      -0.327  10.687  18.822  0.00  0.00    +0.000 A 
ATOM     24  C   UNL     1       0.522   9.628  19.199  0.00  0.00    +0.000 A 
ATOM     25  C   UNL     1       1.359   8.965  18.281  0.00  0.00    +0.000 A 
ENDBRANCH   1  22
BRANCH   3  26
ATOM     26  N   UNL     1      -5.659  12.396  19.693  0.00  0.00    +0.000 N 
ATOM     27  H   UNL     1      -6.318  12.570  20.448  0.00  0.00    +0.000 HD
ATOM     28  H   UNL     1      -5.677  11.430  19.388  0.00  0.00    +0.000 HD
ENDBRANCH   3  26
BRANCH   2  29
ATOM     29  C   UNL     1      -3.633  11.236  18.282  0.00  0.00    +0.000 C 
ATOM     30  N   UNL     1      -3.800  10.393  17.504  0.00  0.00    +0.000 NA
ENDBRANCH   2  29
BRANCH   4  31
ATOM     31  N   UNL     1      -5.234  14.809  21.189  0.00  0.00    +0.000 N 
ATOM     32  H   UNL     1      -5.928  15.051  20.483  0.00  0.00    +0.000 HD
BRANCH  31  33
ATOM     33  C   UNL     1      -6.012  14.421  22.323  0.00  0.00    +0.000 A 
ATOM     34  C   UNL     1      -5.589  13.296  23.048  0.00  0.00    +0.000 A 
ATOM     35  C   UNL     1      -6.328  12.824  24.134  0.00  0.00    +0.000 A 
ATOM     36  C   UNL     1      -7.489  13.488  24.524  0.00  0.00    +0.000 A 
ATOM     37  C   UNL     1      -7.904  14.624  23.830  0.00  0.00    +0.000 A 
ATOM     38  C   UNL     1      -7.161  15.099  22.743  0.00  0.00    +0.000 A 
ENDBRANCH  31  33
ENDBRANCH   4  31
TORSDOF 5
ENDMDL
MODEL 9
REMARK VINA RESULT:      -6.7      5.745      9.666
REMARK  Name = 
REMARK  8 active torsions:
REMARK  status: ('A' for Active; 'I' for Inactive)
REMARK    1  A    between atoms: C_1  and  C_2
REMARK    2  A    between atoms: C_9  and  C_10
REMARK    3  A    between atoms: C_11  and  C_12
REMARK    4  A    between atoms: C_14  and  N_15
REMARK    5  A    between atoms: N_16  and  N_17
REMARK    6  A    between atoms: N_17  and  C_18
REMARK    7  A    between atoms: C_29  and  C_30
REMARK    8  A    between atoms: C_29  and  C_31
REMARK                            x       y       z     vdW  Elec       q    Type
REMARK                         _______ _______ _______ _____ _____    ______ ____
ROOT
ATOM      1  C   UNL     1       6.279  15.398  22.491  0.00  0.00    +0.000 C 
ATOM      2  C   UNL     1       6.689  14.107  23.187  0.00  0.00    +0.000 C 
ATOM      3  C   UNL     1       7.772  13.381  22.817  0.00  0.00    +0.000 C 
ATOM      4  N   UNL     1       8.711  13.899  21.856  0.00  0.00    +0.000 N 
ATOM      5  C   UNL     1       8.338  15.047  21.080  0.00  0.00    +0.000 C 
ATOM      6  C   UNL     1       7.217  15.762  21.358  0.00  0.00    +0.000 C 
ATOM      7  C   UNL     1       6.922  17.040  20.637  0.00  0.00    +0.000 C 
ATOM      8  O   UNL     1       5.906  17.681  20.897  0.00  0.00    +0.000 OA
ATOM      9  C   UNL     1       7.939  17.585  19.666  0.00  0.00    +0.000 C 
ATOM     10  C   UNL     1       8.650  16.469  18.905  0.00  0.00    +0.000 C 
ATOM     11  C   UNL     1       7.671  15.769  17.939  0.00  0.00    +0.000 C 
ATOM     12  C   UNL     1       9.780  17.087  18.057  0.00  0.00    +0.000 C 
ATOM     13  C   UNL     1       9.249  15.468  19.924  0.00  0.00    +0.000 C 
ENDROOT
BRANCH   1  22
ATOM     14  C   UNL     1       0.547  12.154  18.793  0.00  0.00    +0.000 C 
ATOM     15  C   UNL     1       1.078  13.077  19.849  0.00  0.00    +0.000 A 
ATOM     16  C   UNL     1       0.213  13.699  20.749  0.00  0.00    +0.000 A 
ATOM     17  C   UNL     1       0.715  14.579  21.710  0.00  0.00    +0.000 A 
ATOM     18  C   UNL     1       2.072  14.855  21.806  0.00  0.00    +0.000 A 
ATOM     19  N   UNL     1       2.481  15.722  22.738  0.00  0.00    +0.000 NA
ATOM     20  C   UNL     1       3.804  15.936  22.863  0.00  0.00    +0.000 A 
ATOM     21 CL   UNL     1       4.146  17.030  24.153  0.00  0.00    +0.000 Cl
ATOM     22  C   UNL     1       4.797  15.298  22.113  0.00  0.00    +0.000 A 
ATOM     23  C   UNL     1       4.340  14.428  21.107  0.00  0.00    +0.000 A 
ATOM     24  C   UNL     1       2.961  14.199  20.935  0.00  0.00    +0.000 A 
ATOM     25  C   UNL     1       2.456  13.324  19.953  0.00  0.00    +0.000 A 
ENDBRANCH   1  22
BRANCH   3  26
ATOM     26  N   UNL     1       7.947  12.119  23.377  0.00  0.00    +0.000 N 
ATOM     27  H   UNL     1       7.254  11.410  23.146  0.00  0.00    +0.000 HD
ATOM     28  H   UNL     1       8.155  12.139  24.368  0.00  0.00    +0.000 HD
ENDBRANCH   3  26
BRANCH   2  29
ATOM     29  C   UNL     1       5.866  13.645  24.263  0.00  0.00    +0.000 C 
ATOM     30  N   UNL     1       5.255  13.249  25.164  0.00  0.00    +0.000 NA
ENDBRANCH   2  29
BRANCH   4  31
ATOM     31  N   UNL     1       9.914  13.191  21.581  0.00  0.00    +0.000 N 
ATOM     32  H   UNL     1      10.117  12.476  22.280  0.00  0.00    +0.000 HD
BRANCH  31  33
ATOM     33  C   UNL     1      10.243  12.566  20.339  0.00  0.00    +0.000 A 
ATOM     34  C   UNL     1       9.271  11.744  19.747  0.00  0.00    +0.000 A 
ATOM     35  C   UNL     1       9.539  11.056  18.562  0.00  0.00    +0.000 A 
ATOM     36  C   UNL     1      10.776  11.203  17.940  0.00  0.00    +0.000 A 
ATOM     37  C   UNL     1      11.740  12.041  18.502  0.00  0.00    +0.000 A 
ATOM     38  C   UNL     1      11.470  12.732  19.689  0.00  0.00    +0.000 A 
ENDBRANCH  31  33
ENDBRANCH   4  31
TORSDOF 5
ENDMDL
