MODEL 1
REMARK VINA RESULT:      -8.2      0.000      0.000
REMARK  Name = 
REMARK  5 active torsions:
REMARK  status: ('A' for Active; 'I' for Inactive)
REMARK    1  A    between atoms: C_1  and  N_2
REMARK    2  A    between atoms: N_2  and  C_3
REMARK    3  A    between atoms: N_2  and  C_4
REMARK    4  A    between atoms: C_4  and  C_5
REMARK    5  A    between atoms: C_11  and  C_12
REMARK                            x       y       z     vdW  Elec       q    Type
REMARK                         _______ _______ _______ _____ _____    ______ ____
ROOT
ATOM      1  C   UNL     1       4.480   4.869  19.261  0.00  0.00    +0.000 C 
ATOM      2  C   UNL     1       4.018   3.398  19.085  0.00  0.00    +0.000 C 
ATOM      3  C   UNL     1       2.546   3.295  19.548  0.00  0.00    +0.000 C 
ATOM      4  C   UNL     1       1.771   3.962  18.405  0.00  0.00    +0.000 C 
ATOM      5  C   UNL     1       2.890   4.440  17.468  0.00  0.00    +0.000 C 
ATOM      6  C   UNL     1       3.869   3.267  17.572  0.00  0.00    +0.000 C 
ATOM      7  C   UNL     1       3.716   5.602  18.104  0.00  0.00    +0.000 C 
ENDROOT
BRANCH   7   8
ATOM      8  C   UNL     1       2.957   6.869  18.457  0.00  0.00    +0.000 A 
ATOM      9  C   UNL     1       2.715   7.887  17.525  0.00  0.00    +0.000 A 
ATOM     10  C   UNL     1       1.969   9.022  17.869  0.00  0.00    +0.000 A 
ATOM     11  C   UNL     1       1.418   9.157  19.150  0.00  0.00    +0.000 A 
ATOM     12  C   UNL     1       0.660  10.285  19.518  0.00  0.00    +0.000 A 
ATOM     13  C   UNL     1       0.111  10.387  20.796  0.00  0.00    +0.000 A 
ATOM     14  C   UNL     1       0.307   9.365  21.724  0.00  0.00    +0.000 A 
ATOM     15  C   UNL     1       1.062   8.245  21.374  0.00  0.00    +0.000 A 
ATOM     16  C   UNL     1       1.622   8.128  20.091  0.00  0.00    +0.000 A 
ATOM     17  C   UNL     1       2.379   7.002  19.730  0.00  0.00    +0.000 A 
ENDBRANCH   7   8
BRANCH   1  18
ATOM     18  C   UNL     1       6.005   5.096  19.099  0.00  0.00    +0.000 C 
BRANCH  18  20
ATOM     19  C   UNL     1       7.307   6.773  17.979  0.00  0.00    +0.000 C 
ATOM     20  N   UNL     1       6.468   5.581  17.784  0.00  0.00    +0.000 NA
ATOM     21  C   UNL     1       7.227   4.566  17.054  0.00  0.00    +0.000 C 
ENDBRANCH  18  20
ENDBRANCH   1  18
TORSDOF 3
ENDMDL
MODEL 2
REMARK VINA RESULT:      -8.1      0.838      1.069
REMARK  Name = 
REMARK  5 active torsions:
REMARK  status: ('A' for Active; 'I' for Inactive)
REMARK    1  A    between atoms: C_1  and  N_2
REMARK    2  A    between atoms: N_2  and  C_3
REMARK    3  A    between atoms: N_2  and  C_4
REMARK    4  A    between atoms: C_4  and  C_5
REMARK    5  A    between atoms: C_11  and  C_12
REMARK                            x       y       z     vdW  Elec       q    Type
REMARK                         _______ _______ _______ _____ _____    ______ ____
ROOT
ATOM      1  C   UNL     1       4.357   5.512  18.963  0.00  0.00    +0.000 C 
ATOM      2  C   UNL     1       4.019   3.999  19.041  0.00  0.00    +0.000 C 
ATOM      3  C   UNL     1       2.794   3.824  19.969  0.00  0.00    +0.000 C 
ATOM      4  C   UNL     1       1.627   4.319  19.107  0.00  0.00    +0.000 C 
ATOM      5  C   UNL     1       2.328   4.795  17.825  0.00  0.00    +0.000 C 
ATOM      6  C   UNL     1       3.404   3.717  17.673  0.00  0.00    +0.000 C 
ATOM      7  C   UNL     1       3.188   6.072  18.080  0.00  0.00    +0.000 C 
ENDROOT
BRANCH   7   8
ATOM      8  C   UNL     1       2.455   7.303  18.584  0.00  0.00    +0.000 A 
ATOM      9  C   UNL     1       2.006   8.316  17.727  0.00  0.00    +0.000 A 
ATOM     10  C   UNL     1       1.289   9.416  18.219  0.00  0.00    +0.000 A 
ATOM     11  C   UNL     1       0.977   9.517  19.581  0.00  0.00    +0.000 A 
ATOM     12  C   UNL     1       0.253  10.609  20.097  0.00  0.00    +0.000 A 
ATOM     13  C   UNL     1      -0.056  10.679  21.456  0.00  0.00    +0.000 A 
ATOM     14  C   UNL     1       0.348   9.660  22.317  0.00  0.00    +0.000 A 
ATOM     15  C   UNL     1       1.072   8.575  21.818  0.00  0.00    +0.000 A 
ATOM     16  C   UNL     1       1.392   8.492  20.453  0.00  0.00    +0.000 A 
ATOM     17  C   UNL     1       2.116   7.401  19.944  0.00  0.00    +0.000 A 
ENDBRANCH   7   8
BRANCH   1  18
ATOM     18  C   UNL     1       5.715   5.842  18.293  0.00  0.00    +0.000 C 
BRANCH  18  20
ATOM     19  C   UNL     1       7.513   4.512  17.421  0.00  0.00    +0.000 C 
ATOM     20  N   UNL     1       6.858   4.981  18.652  0.00  0.00    +0.000 NA
ATOM     21  C   UNL     1       7.836   5.675  19.488  0.00  0.00    +0.000 C 
ENDBRANCH  18  20
ENDBRANCH   1  18
TORSDOF 3
ENDMDL
MODEL 3
REMARK VINA RESULT:      -8.0      1.927      5.977
REMARK  Name = 
REMARK  5 active torsions:
REMARK  status: ('A' for Active; 'I' for Inactive)
REMARK    1  A    between atoms: C_1  and  N_2
REMARK    2  A    between atoms: N_2  and  C_3
REMARK    3  A    between atoms: N_2  and  C_4
REMARK    4  A    between atoms: C_4  and  C_5
REMARK    5  A    between atoms: C_11  and  C_12
REMARK                            x       y       z     vdW  Elec       q    Type
REMARK                         _______ _______ _______ _____ _____    ______ ____
ROOT
ATOM      1  C   UNL     1       1.814   4.865  19.699  0.00  0.00    +0.000 C 
ATOM      2  C   UNL     1       0.877   3.659  19.972  0.00  0.00    +0.000 C 
ATOM      3  C   UNL     1       1.059   2.637  18.825  0.00  0.00    +0.000 C 
ATOM      4  C   UNL     1       2.419   2.000  19.136  0.00  0.00    +0.000 C 
ATOM      5  C   UNL     1       2.890   2.787  20.368  0.00  0.00    +0.000 C 
ATOM      6  C   UNL     1       1.569   2.943  21.128  0.00  0.00    +0.000 C 
ATOM      7  C   UNL     1       3.230   4.267  20.010  0.00  0.00    +0.000 C 
ENDROOT
BRANCH   7   8
ATOM      8  C   UNL     1       4.326   4.490  18.983  0.00  0.00    +0.000 A 
ATOM      9  C   UNL     1       5.643   4.807  19.342  0.00  0.00    +0.000 A 
ATOM     10  C   UNL     1       6.642   4.958  18.372  0.00  0.00    +0.000 A 
ATOM     11  C   UNL     1       6.358   4.766  17.013  0.00  0.00    +0.000 A 
ATOM     12  C   UNL     1       7.346   4.906  16.020  0.00  0.00    +0.000 A 
ATOM     13  C   UNL     1       7.039   4.696  14.676  0.00  0.00    +0.000 A 
ATOM     14  C   UNL     1       5.743   4.341  14.303  0.00  0.00    +0.000 A 
ATOM     15  C   UNL     1       4.753   4.205  15.278  0.00  0.00    +0.000 A 
ATOM     16  C   UNL     1       5.047   4.414  16.635  0.00  0.00    +0.000 A 
ATOM     17  C   UNL     1       4.056   4.276  17.621  0.00  0.00    +0.000 A 
ENDBRANCH   7   8
BRANCH   1  18
ATOM     18  C   UNL     1       1.564   6.100  20.603  0.00  0.00    +0.000 C 
BRANCH  18  20
ATOM     19  C   UNL     1       2.184   7.389  18.676  0.00  0.00    +0.000 C 
ATOM     20  N   UNL     1       2.132   7.383  20.145  0.00  0.00    +0.000 NA
ATOM     21  C   UNL     1       1.354   8.531  20.608  0.00  0.00    +0.000 C 
ENDBRANCH  18  20
ENDBRANCH   1  18
TORSDOF 3
ENDMDL
MODEL 4
REMARK VINA RESULT:      -7.9      0.916      1.807
REMARK  Name = 
REMARK  5 active torsions:
REMARK  status: ('A' for Active; 'I' for Inactive)
REMARK    1  A    between atoms: C_1  and  N_2
REMARK    2  A    between atoms: N_2  and  C_3
REMARK    3  A    between atoms: N_2  and  C_4
REMARK    4  A    between atoms: C_4  and  C_5
REMARK    5  A    between atoms: C_11  and  C_12
REMARK                            x       y       z     vdW  Elec       q    Type
REMARK                         _______ _______ _______ _____ _____    ______ ____
ROOT
ATOM      1  C   UNL     1       4.059   4.095  19.082  0.00  0.00    +0.000 C 
ATOM      2  C   UNL     1       3.523   2.668  18.793  0.00  0.00    +0.000 C 
ATOM      3  C   UNL     1       2.163   2.508  19.512  0.00  0.00    +0.000 C 
ATOM      4  C   UNL     1       1.208   3.337  18.645  0.00  0.00    +0.000 C 
ATOM      5  C   UNL     1       2.145   3.939  17.587  0.00  0.00    +0.000 C 
ATOM      6  C   UNL     1       3.086   2.757  17.334  0.00  0.00    +0.000 C 
ATOM      7  C   UNL     1       3.115   4.991  18.209  0.00  0.00    +0.000 C 
ENDROOT
BRANCH   7   8
ATOM      8  C   UNL     1       2.480   6.199  18.876  0.00  0.00    +0.000 A 
ATOM      9  C   UNL     1       2.079   6.195  20.218  0.00  0.00    +0.000 A 
ATOM     10  C   UNL     1       1.540   7.342  20.817  0.00  0.00    +0.000 A 
ATOM     11  C   UNL     1       1.416   8.537  20.095  0.00  0.00    +0.000 A 
ATOM     12  C   UNL     1       0.884   9.704  20.676  0.00  0.00    +0.000 A 
ATOM     13  C   UNL     1       0.783  10.884  19.938  0.00  0.00    +0.000 A 
ATOM     14  C   UNL     1       1.214  10.917  18.613  0.00  0.00    +0.000 A 
ATOM     15  C   UNL     1       1.737   9.765  18.023  0.00  0.00    +0.000 A 
ATOM     16  C   UNL     1       1.844   8.569  18.753  0.00  0.00    +0.000 A 
ATOM     17  C   UNL     1       2.373   7.408  18.168  0.00  0.00    +0.000 A 
ENDBRANCH   7   8
BRANCH   1  18
ATOM     18  C   UNL     1       5.533   4.334  18.663  0.00  0.00    +0.000 C 
BRANCH  18  20
ATOM     19  C   UNL     1       6.622   6.283  17.783  0.00  0.00    +0.000 C 
ATOM     20  N   UNL     1       5.754   5.143  17.450  0.00  0.00    +0.000 NA
ATOM     21  C   UNL     1       6.363   4.369  16.369  0.00  0.00    +0.000 C 
ENDBRANCH  18  20
ENDBRANCH   1  18
TORSDOF 3
ENDMDL
MODEL 5
REMARK VINA RESULT:      -7.7      1.427      3.043
REMARK  Name = 
REMARK  5 active torsions:
REMARK  status: ('A' for Active; 'I' for Inactive)
REMARK    1  A    between atoms: C_1  and  N_2
REMARK    2  A    between atoms: N_2  and  C_3
REMARK    3  A    between atoms: N_2  and  C_4
REMARK    4  A    between atoms: C_4  and  C_5
REMARK    5  A    between atoms: C_11  and  C_12
REMARK                            x       y       z     vdW  Elec       q    Type
REMARK                         _______ _______ _______ _____ _____    ______ ____
ROOT
ATOM      1  C   UNL     1       3.699   4.671  17.089  0.00  0.00    +0.000 C 
ATOM      2  C   UNL     1       5.070   4.519  16.380  0.00  0.00    +0.000 C 
ATOM      3  C   UNL     1       5.412   5.863  15.695  0.00  0.00    +0.000 C 
ATOM      4  C   UNL     1       5.812   6.764  16.869  0.00  0.00    +0.000 C 
ATOM      5  C   UNL     1       5.572   5.861  18.088  0.00  0.00    +0.000 C 
ATOM      6  C   UNL     1       6.057   4.514  17.544  0.00  0.00    +0.000 C 
ATOM      7  C   UNL     1       4.052   5.587  18.311  0.00  0.00    +0.000 C 
ENDROOT
BRANCH   7   8
ATOM      8  C   UNL     1       3.168   6.795  18.562  0.00  0.00    +0.000 A 
ATOM      9  C   UNL     1       2.898   7.751  17.574  0.00  0.00    +0.000 A 
ATOM     10  C   UNL     1       2.038   8.829  17.824  0.00  0.00    +0.000 A 
ATOM     11  C   UNL     1       1.399   8.964  19.063  0.00  0.00    +0.000 A 
ATOM     12  C   UNL     1       0.525  10.034  19.335  0.00  0.00    +0.000 A 
ATOM     13  C   UNL     1      -0.109  10.138  20.574  0.00  0.00    +0.000 A 
ATOM     14  C   UNL     1       0.116   9.174  21.556  0.00  0.00    +0.000 A 
ATOM     15  C   UNL     1       0.984   8.111  21.300  0.00  0.00    +0.000 A 
ATOM     16  C   UNL     1       1.631   7.994  20.059  0.00  0.00    +0.000 A 
ATOM     17  C   UNL     1       2.502   6.926  19.793  0.00  0.00    +0.000 A 
ENDBRANCH   7   8
BRANCH   1  18
ATOM     18  C   UNL     1       3.079   3.344  17.598  0.00  0.00    +0.000 C 
BRANCH  18  20
ATOM     19  C   UNL     1       1.634   2.742  19.418  0.00  0.00    +0.000 C 
ATOM     20  N   UNL     1       2.995   3.169  19.060  0.00  0.00    +0.000 NA
ATOM     21  C   UNL     1       3.958   2.187  19.558  0.00  0.00    +0.000 C 
ENDBRANCH  18  20
ENDBRANCH   1  18
TORSDOF 3
ENDMDL
MODEL 6
REMARK VINA RESULT:      -7.7      0.894      1.896
REMARK  Name = 
REMARK  5 active torsions:
REMARK  status: ('A' for Active; 'I' for Inactive)
REMARK    1  A    between atoms: C_1  and  N_2
REMARK    2  A    between atoms: N_2  and  C_3
REMARK    3  A    between atoms: N_2  and  C_4
REMARK    4  A    between atoms: C_4  and  C_5
REMARK    5  A    between atoms: C_11  and  C_12
REMARK                            x       y       z     vdW  Elec       q    Type
REMARK                         _______ _______ _______ _____ _____    ______ ____
ROOT
ATOM      1  C   UNL     1       4.377   5.199  18.948  0.00  0.00    +0.000 C 
ATOM      2  C   UNL     1       4.103   3.687  18.733  0.00  0.00    +0.000 C 
ATOM      3  C   UNL     1       2.897   3.284  19.614  0.00  0.00    +0.000 C 
ATOM      4  C   UNL     1       1.700   3.885  18.868  0.00  0.00    +0.000 C 
ATOM      5  C   UNL     1       2.366   4.629  17.700  0.00  0.00    +0.000 C 
ATOM      6  C   UNL     1       3.485   3.647  17.338  0.00  0.00    +0.000 C 
ATOM      7  C   UNL     1       3.176   5.868  18.194  0.00  0.00    +0.000 C 
ENDROOT
BRANCH   7   8
ATOM      8  C   UNL     1       2.399   6.946  18.928  0.00  0.00    +0.000 A 
ATOM      9  C   UNL     1       2.075   6.849  20.288  0.00  0.00    +0.000 A 
ATOM     10  C   UNL     1       1.399   7.884  20.947  0.00  0.00    +0.000 A 
ATOM     11  C   UNL     1       1.055   9.062  20.271  0.00  0.00    +0.000 A 
ATOM     12  C   UNL     1       0.381  10.118  20.913  0.00  0.00    +0.000 A 
ATOM     13  C   UNL     1       0.062  11.285  20.219  0.00  0.00    +0.000 A 
ATOM     14  C   UNL     1       0.412  11.416  18.876  0.00  0.00    +0.000 A 
ATOM     15  C   UNL     1       1.074  10.373  18.225  0.00  0.00    +0.000 A 
ATOM     16  C   UNL     1       1.401   9.192  18.911  0.00  0.00    +0.000 A 
ATOM     17  C   UNL     1       2.071   8.141  18.265  0.00  0.00    +0.000 A 
ENDBRANCH   7   8
BRANCH   1  18
ATOM     18  C   UNL     1       5.713   5.709  18.350  0.00  0.00    +0.000 C 
BRANCH  18  20
ATOM     19  C   UNL     1       7.554   4.503  17.393  0.00  0.00    +0.000 C 
ATOM     20  N   UNL     1       6.921   4.918  18.653  0.00  0.00    +0.000 NA
ATOM     21  C   UNL     1       7.886   5.666  19.459  0.00  0.00    +0.000 C 
ENDBRANCH  18  20
ENDBRANCH   1  18
TORSDOF 3
ENDMDL
MODEL 7
REMARK VINA RESULT:      -7.5      0.915      1.321
REMARK  Name = 
REMARK  5 active torsions:
REMARK  status: ('A' for Active; 'I' for Inactive)
REMARK    1  A    between atoms: C_1  and  N_2
REMARK    2  A    between atoms: N_2  and  C_3
REMARK    3  A    between atoms: N_2  and  C_4
REMARK    4  A    between atoms: C_4  and  C_5
REMARK    5  A    between atoms: C_11  and  C_12
REMARK                            x       y       z     vdW  Elec       q    Type
REMARK                         _______ _______ _______ _____ _____    ______ ____
ROOT
ATOM      1  C   UNL     1       3.927   4.291  19.111  0.00  0.00    +0.000 C 
ATOM      2  C   UNL     1       3.374   2.968  19.703  0.00  0.00    +0.000 C 
ATOM      3  C   UNL     1       2.447   3.321  20.890  0.00  0.00    +0.000 C 
ATOM      4  C   UNL     1       1.186   3.859  20.204  0.00  0.00    +0.000 C 
ATOM      5  C   UNL     1       1.570   3.831  18.717  0.00  0.00    +0.000 C 
ATOM      6  C   UNL     1       2.362   2.521  18.652  0.00  0.00    +0.000 C 
ATOM      7  C   UNL     1       2.671   4.886  18.386  0.00  0.00    +0.000 C 
ENDROOT
BRANCH   7   8
ATOM      8  C   UNL     1       2.329   6.341  18.655  0.00  0.00    +0.000 A 
ATOM      9  C   UNL     1       2.285   7.306  17.640  0.00  0.00    +0.000 A 
ATOM     10  C   UNL     1       1.917   8.630  17.914  0.00  0.00    +0.000 A 
ATOM     11  C   UNL     1       1.554   9.020  19.210  0.00  0.00    +0.000 A 
ATOM     12  C   UNL     1       1.176  10.343  19.509  0.00  0.00    +0.000 A 
ATOM     13  C   UNL     1       0.806  10.701  20.806  0.00  0.00    +0.000 A 
ATOM     14  C   UNL     1       0.806   9.745  21.821  0.00  0.00    +0.000 A 
ATOM     15  C   UNL     1       1.185   8.432  21.539  0.00  0.00    +0.000 A 
ATOM     16  C   UNL     1       1.561   8.056  20.238  0.00  0.00    +0.000 A 
ATOM     17  C   UNL     1       1.939   6.736  19.946  0.00  0.00    +0.000 A 
ENDBRANCH   7   8
BRANCH   1  18
ATOM     18  C   UNL     1       5.080   4.114  18.088  0.00  0.00    +0.000 C 
BRANCH  18  20
ATOM     19  C   UNL     1       7.334   4.582  17.412  0.00  0.00    +0.000 C 
ATOM     20  N   UNL     1       6.444   4.405  18.569  0.00  0.00    +0.000 NA
ATOM     21  C   UNL     1       6.493   5.602  19.408  0.00  0.00    +0.000 C 
ENDBRANCH  18  20
ENDBRANCH   1  18
TORSDOF 3
ENDMDL
MODEL 8
REMARK VINA RESULT:      -7.4      1.654      3.524
REMARK  Name = 
REMARK  5 active torsions:
REMARK  status: ('A' for Active; 'I' for Inactive)
REMARK    1  A    between atoms: C_1  and  N_2
REMARK    2  A    between atoms: N_2  and  C_3
REMARK    3  A    between atoms: N_2  and  C_4
REMARK    4  A    between atoms: C_4  and  C_5
REMARK    5  A    between atoms: C_11  and  C_12
REMARK                            x       y       z     vdW  Elec       q    Type
REMARK                         _______ _______ _______ _____ _____    ______ ____
ROOT
ATOM      1  C   UNL     1       3.539   4.616  17.019  0.00  0.00    +0.000 C 
ATOM      2  C   UNL     1       4.936   4.657  16.346  0.00  0.00    +0.000 C 
ATOM      3  C   UNL     1       5.298   6.135  16.074  0.00  0.00    +0.000 C 
ATOM      4  C   UNL     1       5.652   6.672  17.465  0.00  0.00    +0.000 C 
ATOM      5  C   UNL     1       5.371   5.467  18.376  0.00  0.00    +0.000 C 
ATOM      6  C   UNL     1       5.879   4.321  17.497  0.00  0.00    +0.000 C 
ATOM      7  C   UNL     1       3.845   5.153  18.460  0.00  0.00    +0.000 C 
ENDROOT
BRANCH   7   8
ATOM      8  C   UNL     1       2.948   6.251  19.005  0.00  0.00    +0.000 A 
ATOM      9  C   UNL     1       2.414   6.214  20.300  0.00  0.00    +0.000 A 
ATOM     10  C   UNL     1       1.629   7.267  20.790  0.00  0.00    +0.000 A 
ATOM     11  C   UNL     1       1.382   8.402  20.006  0.00  0.00    +0.000 A 
ATOM     12  C   UNL     1       0.602   9.475  20.479  0.00  0.00    +0.000 A 
ATOM     13  C   UNL     1       0.382  10.599  19.682  0.00  0.00    +0.000 A 
ATOM     14  C   UNL     1       0.939  10.671  18.406  0.00  0.00    +0.000 A 
ATOM     15  C   UNL     1       1.709   9.610  17.924  0.00  0.00    +0.000 A 
ATOM     16  C   UNL     1       1.938   8.472  18.714  0.00  0.00    +0.000 A 
ATOM     17  C   UNL     1       2.715   7.403  18.237  0.00  0.00    +0.000 A 
ENDBRANCH   7   8
BRANCH   1  18
ATOM     18  C   UNL     1       2.904   3.204  17.117  0.00  0.00    +0.000 C 
BRANCH  18  20
ATOM     19  C   UNL     1       1.381   2.323  18.749  0.00  0.00    +0.000 C 
ATOM     20  N   UNL     1       2.794   2.619  18.467  0.00  0.00    +0.000 NA
ATOM     21  C   UNL     1       3.584   1.396  18.608  0.00  0.00    +0.000 C 
ENDBRANCH  18  20
ENDBRANCH   1  18
TORSDOF 3
ENDMDL
MODEL 9
REMARK VINA RESULT:      -7.2      2.496      6.525
REMARK  Name = 
REMARK  5 active torsions:
REMARK  status: ('A' for Active; 'I' for Inactive)
REMARK    1  A    between atoms: C_1  and  N_2
REMARK    2  A    between atoms: N_2  and  C_3
REMARK    3  A    between atoms: N_2  and  C_4
REMARK    4  A    between atoms: C_4  and  C_5
REMARK    5  A    between atoms: C_11  and  C_12
REMARK                            x       y       z     vdW  Elec       q    Type
REMARK                         _______ _______ _______ _____ _____    ______ ____
ROOT
ATOM      1  C   UNL     1       2.416   4.577  17.718  0.00  0.00    +0.000 C 
ATOM      2  C   UNL     1       1.927   3.338  18.514  0.00  0.00    +0.000 C 
ATOM      3  C   UNL     1       2.462   2.069  17.810  0.00  0.00    +0.000 C 
ATOM      4  C   UNL     1       3.949   2.061  18.182  0.00  0.00    +0.000 C 
ATOM      5  C   UNL     1       4.107   3.364  18.980  0.00  0.00    +0.000 C 
ATOM      6  C   UNL     1       2.795   3.376  19.769  0.00  0.00    +0.000 C 
ATOM      7  C   UNL     1       3.944   4.621  18.069  0.00  0.00    +0.000 C 
ENDROOT
BRANCH   7   8
ATOM      8  C   UNL     1       4.925   4.766  16.920  0.00  0.00    +0.000 A 
ATOM      9  C   UNL     1       6.172   5.388  17.066  0.00  0.00    +0.000 A 
ATOM     10  C   UNL     1       7.074   5.462  15.997  0.00  0.00    +0.000 A 
ATOM     11  C   UNL     1       6.766   4.889  14.756  0.00  0.00    +0.000 A 
ATOM     12  C   UNL     1       7.659   4.945  13.669  0.00  0.00    +0.000 A 
ATOM     13  C   UNL     1       7.332   4.354  12.448  0.00  0.00    +0.000 A 
ATOM     14  C   UNL     1       6.112   3.695  12.296  0.00  0.00    +0.000 A 
ATOM     15  C   UNL     1       5.216   3.638  13.365  0.00  0.00    +0.000 A 
ATOM     16  C   UNL     1       5.530   4.230  14.599  0.00  0.00    +0.000 A 
ATOM     17  C   UNL     1       4.635   4.172  15.679  0.00  0.00    +0.000 A 
ENDBRANCH   7   8
BRANCH   1  18
ATOM     18  C   UNL     1       1.753   5.917  18.127  0.00  0.00    +0.000 C 
BRANCH  18  20
ATOM     19  C   UNL     1       2.711   8.108  17.918  0.00  0.00    +0.000 C 
ATOM     20  N   UNL     1       2.622   6.917  18.776  0.00  0.00    +0.000 NA
ATOM     21  C   UNL     1       2.130   7.307  20.097  0.00  0.00    +0.000 C 
ENDBRANCH  18  20
ENDBRANCH   1  18
TORSDOF 3
ENDMDL
