MODEL 1
REMARK VINA RESULT:      -8.9      0.000      0.000
REMARK  Name = 
REMARK  6 active torsions:
REMARK  status: ('A' for Active; 'I' for Inactive)
REMARK    1  A    between atoms: C_1  and  C_2
REMARK    2  A    between atoms: C_6  and  N_7
REMARK    3  A    between atoms: C_8  and  C_10
REMARK    4  A    between atoms: C_10  and  N_11
REMARK    5  A    between atoms: C_15  and  C_16
REMARK    6  A    between atoms: C_15  and  C_17
REMARK                            x       y       z     vdW  Elec       q    Type
REMARK                         _______ _______ _______ _____ _____    ______ ____
ROOT
ATOM      1  N   UNL     1       6.429   6.095  17.662  0.00  0.00    +0.000 N 
ATOM      2  C   UNL     1       5.819   6.005  16.466  0.00  0.00    +0.000 C 
ATOM      3  O   UNL     1       6.318   6.151  15.365  0.00  0.00    +0.000 OA
ATOM      4  N   UNL     1       4.476   5.774  16.664  0.00  0.00    +0.000 N 
ATOM      5  C   UNL     1       4.169   5.467  18.048  0.00  0.00    +0.000 C 
ATOM      6  C   UNL     1       3.786   3.991  18.124  0.00  0.00    +0.000 C 
ATOM      7  C   UNL     1       5.574   5.717  18.663  0.00  0.00    +0.000 C 
ATOM      8  O   UNL     1       5.876   5.586  19.842  0.00  0.00    +0.000 OA
ATOM      9  H   UNL     1       3.850   5.614  15.884  0.00  0.00    +0.000 HD
ENDROOT
BRANCH   5  10
ATOM     10  C   UNL     1       3.144   6.402  18.684  0.00  0.00    +0.000 A 
ATOM     11  C   UNL     1       2.594   6.080  19.938  0.00  0.00    +0.000 A 
ATOM     12  C   UNL     1       1.693   6.939  20.581  0.00  0.00    +0.000 A 
ATOM     13  C   UNL     1       1.324   8.153  19.997  0.00  0.00    +0.000 A 
ATOM     14  C   UNL     1       0.433   9.032  20.638  0.00  0.00    +0.000 A 
ATOM     15  C   UNL     1       0.078  10.242  20.047  0.00  0.00    +0.000 A 
ATOM     16  C   UNL     1       0.615  10.593  18.810  0.00  0.00    +0.000 A 
ATOM     17  C   UNL     1       1.499   9.731  18.164  0.00  0.00    +0.000 A 
ATOM     18  C   UNL     1       1.865   8.501  18.740  0.00  0.00    +0.000 A 
ATOM     19  C   UNL     1       2.766   7.625  18.103  0.00  0.00    +0.000 A 
ENDBRANCH   5  10
BRANCH   1  20
ATOM     20  C   UNL     1       7.793   6.521  17.856  0.00  0.00    +0.000 C 
BRANCH  20  22
ATOM     21  N   UNL     1       8.871   8.541  18.787  0.00  0.00    +0.000 N 
ATOM     22  C   UNL     1       7.946   8.051  17.887  0.00  0.00    +0.000 C 
ATOM     23  O   UNL     1       7.203   8.760  17.207  0.00  0.00    +0.000 OA
ATOM     24  H   UNL     1       9.051   7.999  19.619  0.00  0.00    +0.000 HD
BRANCH  21  30
ATOM     25  C   UNL     1       8.963  12.010  21.983  0.00  0.00    +0.000 C 
ATOM     26  C   UNL     1       9.217  11.591  20.567  0.00  0.00    +0.000 A 
ATOM     27  C   UNL     1       9.519  12.532  19.588  0.00  0.00    +0.000 A 
ATOM     28  C   UNL     1       9.645  12.107  18.270  0.00  0.00    +0.000 A 
ATOM     29  C   UNL     1       9.417  10.771  17.961  0.00  0.00    +0.000 A 
ATOM     30  C   UNL     1       9.120   9.898  18.996  0.00  0.00    +0.000 A 
ATOM     31  N   UNL     1       9.070  10.273  20.290  0.00  0.00    +0.000 NA
ENDBRANCH  21  30
ENDBRANCH  20  22
ENDBRANCH   1  20
TORSDOF 4
ENDMDL
MODEL 2
REMARK VINA RESULT:      -8.7      4.470      5.773
REMARK  Name = 
REMARK  6 active torsions:
REMARK  status: ('A' for Active; 'I' for Inactive)
REMARK    1  A    between atoms: C_1  and  C_2
REMARK    2  A    between atoms: C_6  and  N_7
REMARK    3  A    between atoms: C_8  and  C_10
REMARK    4  A    between atoms: C_10  and  N_11
REMARK    5  A    between atoms: C_15  and  C_16
REMARK    6  A    between atoms: C_15  and  C_17
REMARK                            x       y       z     vdW  Elec       q    Type
REMARK                         _______ _______ _______ _____ _____    ______ ____
ROOT
ATOM      1  N   UNL     1       3.850   4.036  18.351  0.00  0.00    +0.000 N 
ATOM      2  C   UNL     1       2.596   3.640  18.065  0.00  0.00    +0.000 C 
ATOM      3  O   UNL     1       2.255   2.734  17.325  0.00  0.00    +0.000 OA
ATOM      4  N   UNL     1       1.705   4.473  18.703  0.00  0.00    +0.000 N 
ATOM      5  C   UNL     1       2.359   5.351  19.654  0.00  0.00    +0.000 C 
ATOM      6  C   UNL     1       1.963   4.896  21.058  0.00  0.00    +0.000 C 
ATOM      7  C   UNL     1       3.836   4.984  19.340  0.00  0.00    +0.000 C 
ATOM      8  O   UNL     1       4.825   5.450  19.889  0.00  0.00    +0.000 OA
ATOM      9  H   UNL     1       0.707   4.304  18.663  0.00  0.00    +0.000 HD
ENDROOT
BRANCH   5  10
ATOM     10  C   UNL     1       2.122   6.837  19.399  0.00  0.00    +0.000 A 
ATOM     11  C   UNL     1       2.381   7.373  18.125  0.00  0.00    +0.000 A 
ATOM     12  C   UNL     1       2.124   8.720  17.835  0.00  0.00    +0.000 A 
ATOM     13  C   UNL     1       1.586   9.569  18.805  0.00  0.00    +0.000 A 
ATOM     14  C   UNL     1       1.308  10.918  18.523  0.00  0.00    +0.000 A 
ATOM     15  C   UNL     1       0.767  11.752  19.498  0.00  0.00    +0.000 A 
ATOM     16  C   UNL     1       0.490  11.247  20.767  0.00  0.00    +0.000 A 
ATOM     17  C   UNL     1       0.761   9.911  21.059  0.00  0.00    +0.000 A 
ATOM     18  C   UNL     1       1.314   9.054  20.092  0.00  0.00    +0.000 A 
ATOM     19  C   UNL     1       1.583   7.699  20.371  0.00  0.00    +0.000 A 
ENDBRANCH   5  10
BRANCH   1  20
ATOM     20  C   UNL     1       5.037   3.526  17.711  0.00  0.00    +0.000 C 
BRANCH  20  22
ATOM     21  N   UNL     1       6.043   3.368  15.459  0.00  0.00    +0.000 N 
ATOM     22  C   UNL     1       5.274   4.128  16.315  0.00  0.00    +0.000 C 
ATOM     23  O   UNL     1       4.866   5.262  16.055  0.00  0.00    +0.000 OA
ATOM     24  H   UNL     1       6.732   2.753  15.865  0.00  0.00    +0.000 HD
BRANCH  21  30
ATOM     25  C   UNL     1       8.890   6.144  12.920  0.00  0.00    +0.000 C 
ATOM     26  C   UNL     1       7.833   5.081  12.919  0.00  0.00    +0.000 A 
ATOM     27  C   UNL     1       7.220   4.687  11.735  0.00  0.00    +0.000 A 
ATOM     28  C   UNL     1       6.174   3.773  11.798  0.00  0.00    +0.000 A 
ATOM     29  C   UNL     1       5.740   3.319  13.038  0.00  0.00    +0.000 A 
ATOM     30  C   UNL     1       6.406   3.762  14.170  0.00  0.00    +0.000 A 
ATOM     31  N   UNL     1       7.472   4.587  14.127  0.00  0.00    +0.000 NA
ENDBRANCH  21  30
ENDBRANCH  20  22
ENDBRANCH   1  20
TORSDOF 4
ENDMDL
MODEL 3
REMARK VINA RESULT:      -8.7      4.515      6.070
REMARK  Name = 
REMARK  6 active torsions:
REMARK  status: ('A' for Active; 'I' for Inactive)
REMARK    1  A    between atoms: C_1  and  C_2
REMARK    2  A    between atoms: C_6  and  N_7
REMARK    3  A    between atoms: C_8  and  C_10
REMARK    4  A    between atoms: C_10  and  N_11
REMARK    5  A    between atoms: C_15  and  C_16
REMARK    6  A    between atoms: C_15  and  C_17
REMARK                            x       y       z     vdW  Elec       q    Type
REMARK                         _______ _______ _______ _____ _____    ______ ____
ROOT
ATOM      1  N   UNL     1       3.794   4.136  18.412  0.00  0.00    +0.000 N 
ATOM      2  C   UNL     1       2.551   3.749  18.073  0.00  0.00    +0.000 C 
ATOM      3  O   UNL     1       2.235   2.854  17.309  0.00  0.00    +0.000 OA
ATOM      4  N   UNL     1       1.640   4.577  18.688  0.00  0.00    +0.000 N 
ATOM      5  C   UNL     1       2.260   5.441  19.674  0.00  0.00    +0.000 C 
ATOM      6  C   UNL     1       1.809   4.970  21.055  0.00  0.00    +0.000 C 
ATOM      7  C   UNL     1       3.746   5.071  19.411  0.00  0.00    +0.000 C 
ATOM      8  O   UNL     1       4.715   5.526  20.004  0.00  0.00    +0.000 OA
ATOM      9  H   UNL     1       0.643   4.413  18.608  0.00  0.00    +0.000 HD
ENDROOT
BRANCH   5  10
ATOM     10  C   UNL     1       2.038   6.931  19.429  0.00  0.00    +0.000 A 
ATOM     11  C   UNL     1       2.324   7.477  18.165  0.00  0.00    +0.000 A 
ATOM     12  C   UNL     1       2.082   8.828  17.884  0.00  0.00    +0.000 A 
ATOM     13  C   UNL     1       1.534   9.672  18.852  0.00  0.00    +0.000 A 
ATOM     14  C   UNL     1       1.271  11.026  18.578  0.00  0.00    +0.000 A 
ATOM     15  C   UNL     1       0.718  11.855  19.551  0.00  0.00    +0.000 A 
ATOM     16  C   UNL     1       0.415  11.340  20.811  0.00  0.00    +0.000 A 
ATOM     17  C   UNL     1       0.671   9.999  21.095  0.00  0.00    +0.000 A 
ATOM     18  C   UNL     1       1.235   9.147  20.129  0.00  0.00    +0.000 A 
ATOM     19  C   UNL     1       1.489   7.788  20.399  0.00  0.00    +0.000 A 
ENDBRANCH   5  10
BRANCH   1  20
ATOM     20  C   UNL     1       5.003   3.629  17.811  0.00  0.00    +0.000 C 
BRANCH  20  22
ATOM     21  N   UNL     1       6.122   3.480  15.612  0.00  0.00    +0.000 N 
ATOM     22  C   UNL     1       5.270   4.212  16.413  0.00  0.00    +0.000 C 
ATOM     23  O   UNL     1       4.808   5.312  16.105  0.00  0.00    +0.000 OA
ATOM     24  H   UNL     1       6.826   2.917  16.065  0.00  0.00    +0.000 HD
BRANCH  21  30
ATOM     25  C   UNL     1       6.013   2.377  11.027  0.00  0.00    +0.000 C 
ATOM     26  C   UNL     1       6.429   3.358  12.080  0.00  0.00    +0.000 A 
ATOM     27  C   UNL     1       7.253   4.434  11.764  0.00  0.00    +0.000 A 
ATOM     28  C   UNL     1       7.696   5.258  12.794  0.00  0.00    +0.000 A 
ATOM     29  C   UNL     1       7.348   4.956  14.105  0.00  0.00    +0.000 A 
ATOM     30  C   UNL     1       6.523   3.865  14.332  0.00  0.00    +0.000 A 
ATOM     31  N   UNL     1       6.019   3.099  13.344  0.00  0.00    +0.000 NA
ENDBRANCH  21  30
ENDBRANCH  20  22
ENDBRANCH   1  20
TORSDOF 4
ENDMDL
MODEL 4
REMARK VINA RESULT:      -8.7      7.413     10.986
REMARK  Name = 
REMARK  6 active torsions:
REMARK  status: ('A' for Active; 'I' for Inactive)
REMARK    1  A    between atoms: C_1  and  C_2
REMARK    2  A    between atoms: C_6  and  N_7
REMARK    3  A    between atoms: C_8  and  C_10
REMARK    4  A    between atoms: C_10  and  N_11
REMARK    5  A    between atoms: C_15  and  C_16
REMARK    6  A    between atoms: C_15  and  C_17
REMARK                            x       y       z     vdW  Elec       q    Type
REMARK                         _______ _______ _______ _____ _____    ______ ____
ROOT
ATOM      1  N   UNL     1      -4.250  13.639  22.760  0.00  0.00    +0.000 N 
ATOM      2  C   UNL     1      -5.247  12.793  23.075  0.00  0.00    +0.000 C 
ATOM      3  O   UNL     1      -5.458  12.261  24.150  0.00  0.00    +0.000 OA
ATOM      4  N   UNL     1      -6.001  12.549  21.949  0.00  0.00    +0.000 N 
ATOM      5  C   UNL     1      -5.653  13.433  20.853  0.00  0.00    +0.000 C 
ATOM      6  C   UNL     1      -6.817  14.402  20.649  0.00  0.00    +0.000 C 
ATOM      7  C   UNL     1      -4.434  14.146  21.501  0.00  0.00    +0.000 C 
ATOM      8  O   UNL     1      -3.756  15.023  20.984  0.00  0.00    +0.000 OA
ATOM      9  H   UNL     1      -6.839  11.982  21.991  0.00  0.00    +0.000 HD
ENDROOT
BRANCH   5  10
ATOM     10  C   UNL     1      -5.223  12.712  19.579  0.00  0.00    +0.000 A 
ATOM     11  C   UNL     1      -6.017  12.811  18.422  0.00  0.00    +0.000 A 
ATOM     12  C   UNL     1      -5.629  12.210  17.218  0.00  0.00    +0.000 A 
ATOM     13  C   UNL     1      -4.428  11.502  17.128  0.00  0.00    +0.000 A 
ATOM     14  C   UNL     1      -4.018  10.907  15.922  0.00  0.00    +0.000 A 
ATOM     15  C   UNL     1      -2.816  10.209  15.845  0.00  0.00    +0.000 A 
ATOM     16  C   UNL     1      -2.003  10.101  16.972  0.00  0.00    +0.000 A 
ATOM     17  C   UNL     1      -2.398  10.687  18.174  0.00  0.00    +0.000 A 
ATOM     18  C   UNL     1      -3.611  11.390  18.275  0.00  0.00    +0.000 A 
ATOM     19  C   UNL     1      -4.018  11.995  19.480  0.00  0.00    +0.000 A 
ENDBRANCH   5  10
BRANCH   1  20
ATOM     20  C   UNL     1      -3.150  13.970  23.632  0.00  0.00    +0.000 C 
BRANCH  20  22
ATOM     21  N   UNL     1      -2.037  11.969  22.702  0.00  0.00    +0.000 N 
ATOM     22  C   UNL     1      -1.861  13.205  23.290  0.00  0.00    +0.000 C 
ATOM     23  O   UNL     1      -0.765  13.661  23.624  0.00  0.00    +0.000 OA
ATOM     24  H   UNL     1      -2.882  11.461  22.919  0.00  0.00    +0.000 HD
BRANCH  21  30
ATOM     25  C   UNL     1       1.041  10.760  19.338  0.00  0.00    +0.000 C 
ATOM     26  C   UNL     1       0.549  10.542  20.737  0.00  0.00    +0.000 A 
ATOM     27  C   UNL     1       1.021   9.479  21.501  0.00  0.00    +0.000 A 
ATOM     28  C   UNL     1       0.459   9.258  22.754  0.00  0.00    +0.000 A 
ATOM     29  C   UNL     1      -0.586  10.068  23.184  0.00  0.00    +0.000 A 
ATOM     30  C   UNL     1      -0.996  11.106  22.361  0.00  0.00    +0.000 A 
ATOM     31  N   UNL     1      -0.414  11.386  21.177  0.00  0.00    +0.000 NA
ENDBRANCH  21  30
ENDBRANCH  20  22
ENDBRANCH   1  20
TORSDOF 4
ENDMDL
MODEL 5
REMARK VINA RESULT:      -8.6      0.577      1.301
REMARK  Name = 
REMARK  6 active torsions:
REMARK  status: ('A' for Active; 'I' for Inactive)
REMARK    1  A    between atoms: C_1  and  C_2
REMARK    2  A    between atoms: C_6  and  N_7
REMARK    3  A    between atoms: C_8  and  C_10
REMARK    4  A    between atoms: C_10  and  N_11
REMARK    5  A    between atoms: C_15  and  C_16
REMARK    6  A    between atoms: C_15  and  C_17
REMARK                            x       y       z     vdW  Elec       q    Type
REMARK                         _______ _______ _______ _____ _____    ______ ____
ROOT
ATOM      1  N   UNL     1       6.438   6.180  17.585  0.00  0.00    +0.000 N 
ATOM      2  C   UNL     1       5.816   6.083  16.396  0.00  0.00    +0.000 C 
ATOM      3  O   UNL     1       6.304   6.220  15.289  0.00  0.00    +0.000 OA
ATOM      4  N   UNL     1       4.474   5.856  16.609  0.00  0.00    +0.000 N 
ATOM      5  C   UNL     1       4.181   5.559  17.998  0.00  0.00    +0.000 C 
ATOM      6  C   UNL     1       3.796   4.084  18.088  0.00  0.00    +0.000 C 
ATOM      7  C   UNL     1       5.593   5.810  18.597  0.00  0.00    +0.000 C 
ATOM      8  O   UNL     1       5.906   5.687  19.773  0.00  0.00    +0.000 OA
ATOM      9  H   UNL     1       3.840   5.692  15.836  0.00  0.00    +0.000 HD
ENDROOT
BRANCH   5  10
ATOM     10  C   UNL     1       3.164   6.500  18.638  0.00  0.00    +0.000 A 
ATOM     11  C   UNL     1       2.635   6.193  19.904  0.00  0.00    +0.000 A 
ATOM     12  C   UNL     1       1.742   7.059  20.550  0.00  0.00    +0.000 A 
ATOM     13  C   UNL     1       1.361   8.264  19.956  0.00  0.00    +0.000 A 
ATOM     14  C   UNL     1       0.478   9.150  20.600  0.00  0.00    +0.000 A 
ATOM     15  C   UNL     1       0.111  10.351  19.999  0.00  0.00    +0.000 A 
ATOM     16  C   UNL     1       0.627  10.687  18.748  0.00  0.00    +0.000 A 
ATOM     17  C   UNL     1       1.504   9.818  18.100  0.00  0.00    +0.000 A 
ATOM     18  C   UNL     1       1.881   8.597  18.686  0.00  0.00    +0.000 A 
ATOM     19  C   UNL     1       2.774   7.714  18.047  0.00  0.00    +0.000 A 
ENDBRANCH   5  10
BRANCH   1  20
ATOM     20  C   UNL     1       7.805   6.605  17.762  0.00  0.00    +0.000 C 
BRANCH  20  22
ATOM     21  N   UNL     1       8.926   8.543  18.808  0.00  0.00    +0.000 N 
ATOM     22  C   UNL     1       7.943   8.127  17.933  0.00  0.00    +0.000 C 
ATOM     23  O   UNL     1       7.145   8.886  17.380  0.00  0.00    +0.000 OA
ATOM     24  H   UNL     1       9.171   7.927  19.568  0.00  0.00    +0.000 HD
BRANCH  21  30
ATOM     25  C   UNL     1      10.613  12.658  17.232  0.00  0.00    +0.000 C 
ATOM     26  C   UNL     1       9.953  11.909  18.350  0.00  0.00    +0.000 A 
ATOM     27  C   UNL     1       9.776  12.499  19.597  0.00  0.00    +0.000 A 
ATOM     28  C   UNL     1       9.252  11.730  20.630  0.00  0.00    +0.000 A 
ATOM     29  C   UNL     1       8.970  10.388  20.405  0.00  0.00    +0.000 A 
ATOM     30  C   UNL     1       9.175   9.878  19.132  0.00  0.00    +0.000 A 
ATOM     31  N   UNL     1       9.608  10.624  18.096  0.00  0.00    +0.000 NA
ENDBRANCH  21  30
ENDBRANCH  20  22
ENDBRANCH   1  20
TORSDOF 4
ENDMDL
MODEL 6
REMARK VINA RESULT:      -8.5      5.470      8.452
REMARK  Name = 
REMARK  6 active torsions:
REMARK  status: ('A' for Active; 'I' for Inactive)
REMARK    1  A    between atoms: C_1  and  C_2
REMARK    2  A    between atoms: C_6  and  N_7
REMARK    3  A    between atoms: C_8  and  C_10
REMARK    4  A    between atoms: C_10  and  N_11
REMARK    5  A    between atoms: C_15  and  C_16
REMARK    6  A    between atoms: C_15  and  C_17
REMARK                            x       y       z     vdW  Elec       q    Type
REMARK                         _______ _______ _______ _____ _____    ______ ____
ROOT
ATOM      1  N   UNL     1       0.616  10.265  21.776  0.00  0.00    +0.000 N 
ATOM      2  C   UNL     1      -0.331  10.488  22.706  0.00  0.00    +0.000 C 
ATOM      3  O   UNL     1      -0.419   9.983  23.810  0.00  0.00    +0.000 OA
ATOM      4  N   UNL     1      -1.265  11.361  22.195  0.00  0.00    +0.000 N 
ATOM      5  C   UNL     1      -0.840  11.948  20.939  0.00  0.00    +0.000 C 
ATOM      6  C   UNL     1      -0.533  13.423  21.194  0.00  0.00    +0.000 C 
ATOM      7  C   UNL     1       0.465  11.131  20.725  0.00  0.00    +0.000 C 
ATOM      8  O   UNL     1       1.238  11.246  19.784  0.00  0.00    +0.000 OA
ATOM      9  H   UNL     1      -2.029  11.704  22.765  0.00  0.00    +0.000 HD
ENDROOT
BRANCH   5  10
ATOM     10  C   UNL     1      -1.803  11.712  19.780  0.00  0.00    +0.000 A 
ATOM     11  C   UNL     1      -3.042  12.378  19.759  0.00  0.00    +0.000 A 
ATOM     12  C   UNL     1      -3.931  12.231  18.686  0.00  0.00    +0.000 A 
ATOM     13  C   UNL     1      -3.604  11.425  17.593  0.00  0.00    +0.000 A 
ATOM     14  C   UNL     1      -4.479  11.282  16.502  0.00  0.00    +0.000 A 
ATOM     15  C   UNL     1      -4.137  10.480  15.416  0.00  0.00    +0.000 A 
ATOM     16  C   UNL     1      -2.912   9.815  15.403  0.00  0.00    +0.000 A 
ATOM     17  C   UNL     1      -2.036   9.950  16.479  0.00  0.00    +0.000 A 
ATOM     18  C   UNL     1      -2.364  10.748  17.588  0.00  0.00    +0.000 A 
ATOM     19  C   UNL     1      -1.483  10.901  18.677  0.00  0.00    +0.000 A 
ENDBRANCH   5  10
BRANCH   1  20
ATOM     20  C   UNL     1       1.647   9.262  21.879  0.00  0.00    +0.000 C 
BRANCH  20  22
ATOM     21  N   UNL     1       2.288   7.257  20.584  0.00  0.00    +0.000 N 
ATOM     22  C   UNL     1       1.260   7.932  21.210  0.00  0.00    +0.000 C 
ATOM     23  O   UNL     1       0.080   7.579  21.175  0.00  0.00    +0.000 OA
ATOM     24  H   UNL     1       3.054   7.801  20.217  0.00  0.00    +0.000 HD
BRANCH  21  30
ATOM     25  C   UNL     1       1.415   2.636  20.963  0.00  0.00    +0.000 C 
ATOM     26  C   UNL     1       1.652   3.806  20.057  0.00  0.00    +0.000 A 
ATOM     27  C   UNL     1       1.834   3.624  18.690  0.00  0.00    +0.000 A 
ATOM     28  C   UNL     1       2.153   4.728  17.907  0.00  0.00    +0.000 A 
ATOM     29  C   UNL     1       2.330   5.965  18.514  0.00  0.00    +0.000 A 
ATOM     30  C   UNL     1       2.130   6.061  19.883  0.00  0.00    +0.000 A 
ATOM     31  N   UNL     1       1.744   5.021  20.650  0.00  0.00    +0.000 NA
ENDBRANCH  21  30
ENDBRANCH  20  22
ENDBRANCH   1  20
TORSDOF 4
ENDMDL
MODEL 7
REMARK VINA RESULT:      -8.4      0.601      1.433
REMARK  Name = 
REMARK  6 active torsions:
REMARK  status: ('A' for Active; 'I' for Inactive)
REMARK    1  A    between atoms: C_1  and  C_2
REMARK    2  A    between atoms: C_6  and  N_7
REMARK    3  A    between atoms: C_8  and  C_10
REMARK    4  A    between atoms: C_10  and  N_11
REMARK    5  A    between atoms: C_15  and  C_16
REMARK    6  A    between atoms: C_15  and  C_17
REMARK                            x       y       z     vdW  Elec       q    Type
REMARK                         _______ _______ _______ _____ _____    ______ ____
ROOT
ATOM      1  N   UNL     1       6.251   6.272  17.647  0.00  0.00    +0.000 N 
ATOM      2  C   UNL     1       5.710   6.174  16.419  0.00  0.00    +0.000 C 
ATOM      3  O   UNL     1       6.291   6.183  15.349  0.00  0.00    +0.000 OA
ATOM      4  N   UNL     1       4.339   6.121  16.536  0.00  0.00    +0.000 N 
ATOM      5  C   UNL     1       3.911   5.948  17.911  0.00  0.00    +0.000 C 
ATOM      6  C   UNL     1       3.344   4.537  18.049  0.00  0.00    +0.000 C 
ATOM      7  C   UNL     1       5.296   6.069  18.607  0.00  0.00    +0.000 C 
ATOM      8  O   UNL     1       5.505   5.984  19.809  0.00  0.00    +0.000 OA
ATOM      9  H   UNL     1       3.748   5.984  15.725  0.00  0.00    +0.000 HD
ENDROOT
BRANCH   5  10
ATOM     10  C   UNL     1       2.973   7.041  18.416  0.00  0.00    +0.000 A 
ATOM     11  C   UNL     1       2.604   8.091  17.556  0.00  0.00    +0.000 A 
ATOM     12  C   UNL     1       1.701   9.083  17.963  0.00  0.00    +0.000 A 
ATOM     13  C   UNL     1       1.129   9.048  19.237  0.00  0.00    +0.000 A 
ATOM     14  C   UNL     1       0.210  10.028  19.653  0.00  0.00    +0.000 A 
ATOM     15  C   UNL     1      -0.357   9.978  20.924  0.00  0.00    +0.000 A 
ATOM     16  C   UNL     1      -0.017   8.943  21.795  0.00  0.00    +0.000 A 
ATOM     17  C   UNL     1       0.892   7.966  21.394  0.00  0.00    +0.000 A 
ATOM     18  C   UNL     1       1.482   8.002  20.118  0.00  0.00    +0.000 A 
ATOM     19  C   UNL     1       2.395   7.015  19.697  0.00  0.00    +0.000 A 
ENDBRANCH   5  10
BRANCH   1  20
ATOM     20  C   UNL     1       7.643   6.544  17.910  0.00  0.00    +0.000 C 
BRANCH  20  22
ATOM     21  N   UNL     1       8.797   8.492  18.900  0.00  0.00    +0.000 N 
ATOM     22  C   UNL     1       7.978   8.044  17.884  0.00  0.00    +0.000 C 
ATOM     23  O   UNL     1       7.450   8.780  17.048  0.00  0.00    +0.000 OA
ATOM     24  H   UNL     1       8.770   7.997  19.779  0.00  0.00    +0.000 HD
BRANCH  21  30
ATOM     25  C   UNL     1       9.004  12.087  21.947  0.00  0.00    +0.000 C 
ATOM     26  C   UNL     1       9.327  11.573  20.577  0.00  0.00    +0.000 A 
ATOM     27  C   UNL     1       9.811  12.427  19.591  0.00  0.00    +0.000 A 
ATOM     28  C   UNL     1       9.998  11.926  18.308  0.00  0.00    +0.000 A 
ATOM     29  C   UNL     1       9.651  10.607  18.035  0.00  0.00    +0.000 A 
ATOM     30  C   UNL     1       9.175   9.823  19.075  0.00  0.00    +0.000 A 
ATOM     31  N   UNL     1       9.059  10.267  20.343  0.00  0.00    +0.000 NA
ENDBRANCH  21  30
ENDBRANCH  20  22
ENDBRANCH   1  20
TORSDOF 4
ENDMDL
MODEL 8
REMARK VINA RESULT:      -8.3      0.807      1.928
REMARK  Name = 
REMARK  6 active torsions:
REMARK  status: ('A' for Active; 'I' for Inactive)
REMARK    1  A    between atoms: C_1  and  C_2
REMARK    2  A    between atoms: C_6  and  N_7
REMARK    3  A    between atoms: C_8  and  C_10
REMARK    4  A    between atoms: C_10  and  N_11
REMARK    5  A    between atoms: C_15  and  C_16
REMARK    6  A    between atoms: C_15  and  C_17
REMARK                            x       y       z     vdW  Elec       q    Type
REMARK                         _______ _______ _______ _____ _____    ______ ____
ROOT
ATOM      1  N   UNL     1       6.323   6.250  17.569  0.00  0.00    +0.000 N 
ATOM      2  C   UNL     1       5.758   6.119  16.356  0.00  0.00    +0.000 C 
ATOM      3  O   UNL     1       6.316   6.123  15.273  0.00  0.00    +0.000 OA
ATOM      4  N   UNL     1       4.392   6.035  16.503  0.00  0.00    +0.000 N 
ATOM      5  C   UNL     1       3.997   5.877  17.889  0.00  0.00    +0.000 C 
ATOM      6  C   UNL     1       3.466   4.455  18.063  0.00  0.00    +0.000 C 
ATOM      7  C   UNL     1       5.393   6.041  18.553  0.00  0.00    +0.000 C 
ATOM      8  O   UNL     1       5.629   5.982  19.752  0.00  0.00    +0.000 OA
ATOM      9  H   UNL     1       3.787   5.871  15.707  0.00  0.00    +0.000 HD
ENDROOT
BRANCH   5  10
ATOM     10  C   UNL     1       3.044   6.956  18.396  0.00  0.00    +0.000 A 
ATOM     11  C   UNL     1       2.667   8.007  17.541  0.00  0.00    +0.000 A 
ATOM     12  C   UNL     1       1.752   8.986  17.949  0.00  0.00    +0.000 A 
ATOM     13  C   UNL     1       1.174   8.938  19.220  0.00  0.00    +0.000 A 
ATOM     14  C   UNL     1       0.242   9.904  19.637  0.00  0.00    +0.000 A 
ATOM     15  C   UNL     1      -0.330   9.841  20.905  0.00  0.00    +0.000 A 
ATOM     16  C   UNL     1       0.016   8.805  21.771  0.00  0.00    +0.000 A 
ATOM     17  C   UNL     1       0.938   7.841  21.369  0.00  0.00    +0.000 A 
ATOM     18  C   UNL     1       1.534   7.891  20.097  0.00  0.00    +0.000 A 
ATOM     19  C   UNL     1       2.460   6.916  19.674  0.00  0.00    +0.000 A 
ENDBRANCH   5  10
BRANCH   1  20
ATOM     20  C   UNL     1       7.713   6.558  17.798  0.00  0.00    +0.000 C 
BRANCH  20  22
ATOM     21  N   UNL     1       8.856   8.448  18.906  0.00  0.00    +0.000 N 
ATOM     22  C   UNL     1       7.984   8.068  17.907  0.00  0.00    +0.000 C 
ATOM     23  O   UNL     1       7.366   8.859  17.193  0.00  0.00    +0.000 OA
ATOM     24  H   UNL     1       8.914   7.865  19.728  0.00  0.00    +0.000 HD
BRANCH  21  30
ATOM     25  C   UNL     1      10.737  12.423  17.197  0.00  0.00    +0.000 C 
ATOM     26  C   UNL     1      10.065  11.737  18.348  0.00  0.00    +0.000 A 
ATOM     27  C   UNL     1       9.958  12.362  19.586  0.00  0.00    +0.000 A 
ATOM     28  C   UNL     1       9.419  11.646  20.650  0.00  0.00    +0.000 A 
ATOM     29  C   UNL     1       9.053  10.319  20.461  0.00  0.00    +0.000 A 
ATOM     30  C   UNL     1       9.192   9.772  19.194  0.00  0.00    +0.000 A 
ATOM     31  N   UNL     1       9.639  10.470  18.131  0.00  0.00    +0.000 NA
ENDBRANCH  21  30
ENDBRANCH  20  22
ENDBRANCH   1  20
TORSDOF 4
ENDMDL
MODEL 9
REMARK VINA RESULT:      -8.2      5.090      8.306
REMARK  Name = 
REMARK  6 active torsions:
REMARK  status: ('A' for Active; 'I' for Inactive)
REMARK    1  A    between atoms: C_1  and  C_2
REMARK    2  A    between atoms: C_6  and  N_7
REMARK    3  A    between atoms: C_8  and  C_10
REMARK    4  A    between atoms: C_10  and  N_11
REMARK    5  A    between atoms: C_15  and  C_16
REMARK    6  A    between atoms: C_15  and  C_17
REMARK                            x       y       z     vdW  Elec       q    Type
REMARK                         _______ _______ _______ _____ _____    ______ ____
ROOT
ATOM      1  N   UNL     1       0.819  10.025  21.833  0.00  0.00    +0.000 N 
ATOM      2  C   UNL     1      -0.126  10.043  22.790  0.00  0.00    +0.000 C 
ATOM      3  O   UNL     1      -0.166   9.373  23.807  0.00  0.00    +0.000 OA
ATOM      4  N   UNL     1      -1.122  10.919  22.422  0.00  0.00    +0.000 N 
ATOM      5  C   UNL     1      -0.754  11.715  21.266  0.00  0.00    +0.000 C 
ATOM      6  C   UNL     1      -0.538  13.151  21.739  0.00  0.00    +0.000 C 
ATOM      7  C   UNL     1       0.597  11.026  20.925  0.00  0.00    +0.000 C 
ATOM      8  O   UNL     1       1.348  11.332  20.009  0.00  0.00    +0.000 OA
ATOM      9  H   UNL     1      -1.898  11.122  23.040  0.00  0.00    +0.000 HD
ENDROOT
BRANCH   5  10
ATOM     10  C   UNL     1      -1.717  11.593  20.090  0.00  0.00    +0.000 A 
ATOM     11  C   UNL     1      -2.897  12.358  20.076  0.00  0.00    +0.000 A 
ATOM     12  C   UNL     1      -3.780  12.316  18.988  0.00  0.00    +0.000 A 
ATOM     13  C   UNL     1      -3.504  11.519  17.875  0.00  0.00    +0.000 A 
ATOM     14  C   UNL     1      -4.373  11.479  16.770  0.00  0.00    +0.000 A 
ATOM     15  C   UNL     1      -4.083  10.684  15.664  0.00  0.00    +0.000 A 
ATOM     16  C   UNL     1      -2.916   9.922  15.645  0.00  0.00    +0.000 A 
ATOM     17  C   UNL     1      -2.046   9.953  16.734  0.00  0.00    +0.000 A 
ATOM     18  C   UNL     1      -2.324  10.743  17.863  0.00  0.00    +0.000 A 
ATOM     19  C   UNL     1      -1.449  10.791  18.966  0.00  0.00    +0.000 A 
ENDBRANCH   5  10
BRANCH   1  20
ATOM     20  C   UNL     1       1.914   9.087  21.778  0.00  0.00    +0.000 C 
BRANCH  20  22
ATOM     21  N   UNL     1       2.029   6.706  21.127  0.00  0.00    +0.000 N 
ATOM     22  C   UNL     1       1.710   7.986  20.724  0.00  0.00    +0.000 C 
ATOM     23  O   UNL     1       1.375   8.285  19.576  0.00  0.00    +0.000 OA
ATOM     24  H   UNL     1       2.739   6.598  21.837  0.00  0.00    +0.000 HD
BRANCH  21  30
ATOM     25  C   UNL     1       3.818   4.583  17.313  0.00  0.00    +0.000 C 
ATOM     26  C   UNL     1       2.863   4.513  18.466  0.00  0.00    +0.000 A 
ATOM     27  C   UNL     1       1.932   3.483  18.558  0.00  0.00    +0.000 A 
ATOM     28  C   UNL     1       1.000   3.518  19.590  0.00  0.00    +0.000 A 
ATOM     29  C   UNL     1       0.993   4.598  20.465  0.00  0.00    +0.000 A 
ATOM     30  C   UNL     1       1.957   5.582  20.303  0.00  0.00    +0.000 A 
ATOM     31  N   UNL     1       2.917   5.530  19.358  0.00  0.00    +0.000 NA
ENDBRANCH  21  30
ENDBRANCH  20  22
ENDBRANCH   1  20
TORSDOF 4
ENDMDL
