MODEL 1
REMARK VINA RESULT:      -7.9      0.000      0.000
REMARK  Name = 
REMARK  5 active torsions:
REMARK  status: ('A' for Active; 'I' for Inactive)
REMARK    1  A    between atoms: C_1  and  C_2
REMARK    2  A    between atoms: C_11  and  O_12
REMARK    3  A    between atoms: C_13  and  C_14
REMARK    4  A    between atoms: N_16  and  C_17
REMARK    5  A    between atoms: C_17  and  C_18
REMARK                            x       y       z     vdW  Elec       q    Type
REMARK                         _______ _______ _______ _____ _____    ______ ____
ROOT
ATOM      1  C   UNL     1       2.649   2.906  21.227  0.00  0.00    +0.000 C 
ATOM      2  C   UNL     1       2.249   3.030  19.744  0.00  0.00    +0.000 C 
ATOM      3  C   UNL     1       2.778   1.792  19.008  0.00  0.00    +0.000 C 
ATOM      4  C   UNL     1       3.749   1.995  17.871  0.00  0.00    +0.000 C 
ATOM      5  C   UNL     1       4.022   3.404  17.469  0.00  0.00    +0.000 A 
ATOM      6  C   UNL     1       4.896   3.583  16.384  0.00  0.00    +0.000 A 
ATOM      7  C   UNL     1       5.206   4.853  15.948  0.00  0.00    +0.000 A 
ATOM      8  F   UNL     1       6.046   5.014  14.918  0.00  0.00    +0.000 F 
ATOM      9  C   UNL     1       4.660   5.966  16.566  0.00  0.00    +0.000 A 
ATOM     10  C   UNL     1       3.774   5.823  17.652  0.00  0.00    +0.000 A 
ATOM     11  C   UNL     1       3.177   6.990  18.340  0.00  0.00    +0.000 A 
ATOM     12  C   UNL     1       2.295   6.837  19.347  0.00  0.00    +0.000 A 
ATOM     13  C   UNL     1       1.911   5.453  19.764  0.00  0.00    +0.000 A 
ATOM     14  O   UNL     1       1.017   5.307  20.610  0.00  0.00    +0.000 OA
ATOM     15  N   UNL     1       2.572   4.362  19.201  0.00  0.00    +0.000 N 
ATOM     16  C   UNL     1       3.463   4.521  18.111  0.00  0.00    +0.000 A 
ENDROOT
BRANCH  12  17
ATOM     17  C   UNL     1       1.719   8.061  20.042  0.00  0.00    +0.000 C 
ATOM     18  O   UNL     1       1.684   8.191  21.260  0.00  0.00    +0.000 OA
ATOM     19  N   UNL     1       1.217   9.050  19.221  0.00  0.00    +0.000 N 
ATOM     20  H   UNL     1       1.373   8.984  18.218  0.00  0.00    +0.000 HD
BRANCH  19  21
ATOM     21  C   UNL     1       0.670  10.266  19.775  0.00  0.00    +0.000 C 
BRANCH  21  22
ATOM     22  C   UNL     1      -0.641  10.602  19.125  0.00  0.00    +0.000 A 
ATOM     23  C   UNL     1      -1.136  10.086  17.878  0.00  0.00    +0.000 A 
ATOM     24  C   UNL     1      -2.354  10.627  17.518  0.00  0.00    +0.000 A 
ATOM     25  S   UNL     1      -2.910  11.766  18.662  0.00  0.00    +0.000 S 
ATOM     26  C   UNL     1      -1.528  11.533  19.637  0.00  0.00    +0.000 A 
ENDBRANCH  21  22
ENDBRANCH  19  21
ENDBRANCH  12  17
BRANCH  11  27
ATOM     27  O   UNL     1       3.568   8.253  17.930  0.00  0.00    +0.000 OA
ATOM     28  H   UNL     1       3.376   8.946  18.570  0.00  0.00    +0.000 HD
ENDBRANCH  11  27
TORSDOF 4
ENDMDL
MODEL 2
REMARK VINA RESULT:      -7.8      4.450      7.219
REMARK  Name = 
REMARK  5 active torsions:
REMARK  status: ('A' for Active; 'I' for Inactive)
REMARK    1  A    between atoms: C_1  and  C_2
REMARK    2  A    between atoms: C_11  and  O_12
REMARK    3  A    between atoms: C_13  and  C_14
REMARK    4  A    between atoms: N_16  and  C_17
REMARK    5  A    between atoms: C_17  and  C_18
REMARK                            x       y       z     vdW  Elec       q    Type
REMARK                         _______ _______ _______ _____ _____    ______ ____
ROOT
ATOM      1  C   UNL     1       2.307   1.799  17.983  0.00  0.00    +0.000 C 
ATOM      2  C   UNL     1       2.895   2.633  19.138  0.00  0.00    +0.000 C 
ATOM      3  C   UNL     1       1.944   2.516  20.335  0.00  0.00    +0.000 C 
ATOM      4  C   UNL     1       1.326   3.779  20.885  0.00  0.00    +0.000 C 
ATOM      5  C   UNL     1       1.793   5.064  20.292  0.00  0.00    +0.000 A 
ATOM      6  C   UNL     1       1.243   6.236  20.837  0.00  0.00    +0.000 A 
ATOM      7  C   UNL     1       1.617   7.469  20.345  0.00  0.00    +0.000 A 
ATOM      8  F   UNL     1       1.081   8.580  20.864  0.00  0.00    +0.000 F 
ATOM      9  C   UNL     1       2.540   7.569  19.317  0.00  0.00    +0.000 A 
ATOM     10  C   UNL     1       3.117   6.415  18.753  0.00  0.00    +0.000 A 
ATOM     11  C   UNL     1       4.101   6.486  17.648  0.00  0.00    +0.000 A 
ATOM     12  C   UNL     1       4.680   5.375  17.150  0.00  0.00    +0.000 A 
ATOM     13  C   UNL     1       4.319   4.049  17.740  0.00  0.00    +0.000 A 
ATOM     14  O   UNL     1       4.932   3.039  17.365  0.00  0.00    +0.000 OA
ATOM     15  N   UNL     1       3.300   3.977  18.689  0.00  0.00    +0.000 N 
ATOM     16  C   UNL     1       2.726   5.147  19.246  0.00  0.00    +0.000 A 
ENDROOT
BRANCH  12  17
ATOM     17  C   UNL     1       5.671   5.488  16.002  0.00  0.00    +0.000 C 
ATOM     18  O   UNL     1       6.571   6.319  15.969  0.00  0.00    +0.000 OA
ATOM     19  N   UNL     1       5.510   4.592  14.966  0.00  0.00    +0.000 N 
ATOM     20  H   UNL     1       4.844   3.830  15.071  0.00  0.00    +0.000 HD
BRANCH  19  21
ATOM     21  C   UNL     1       6.411   4.594  13.837  0.00  0.00    +0.000 C 
BRANCH  21  22
ATOM     22  C   UNL     1       5.919   3.668  12.763  0.00  0.00    +0.000 A 
ATOM     23  C   UNL     1       4.609   3.664  12.169  0.00  0.00    +0.000 A 
ATOM     24  C   UNL     1       4.442   2.654  11.243  0.00  0.00    +0.000 A 
ATOM     25  S   UNL     1       5.846   1.695  11.085  0.00  0.00    +0.000 S 
ATOM     26  C   UNL     1       6.674   2.629  12.249  0.00  0.00    +0.000 A 
ENDBRANCH  21  22
ENDBRANCH  19  21
ENDBRANCH  12  17
BRANCH  11  27
ATOM     27  O   UNL     1       4.397   7.732  17.124  0.00  0.00    +0.000 OA
ATOM     28  H   UNL     1       4.959   8.269  17.692  0.00  0.00    +0.000 HD
ENDBRANCH  11  27
TORSDOF 4
ENDMDL
MODEL 3
REMARK VINA RESULT:      -7.8      4.376      7.347
REMARK  Name = 
REMARK  5 active torsions:
REMARK  status: ('A' for Active; 'I' for Inactive)
REMARK    1  A    between atoms: C_1  and  C_2
REMARK    2  A    between atoms: C_11  and  O_12
REMARK    3  A    between atoms: C_13  and  C_14
REMARK    4  A    between atoms: N_16  and  C_17
REMARK    5  A    between atoms: C_17  and  C_18
REMARK                            x       y       z     vdW  Elec       q    Type
REMARK                         _______ _______ _______ _____ _____    ______ ____
ROOT
ATOM      1  C   UNL     1       2.908   2.629  19.500  0.00  0.00    +0.000 C 
ATOM      2  C   UNL     1       3.408   3.970  20.072  0.00  0.00    +0.000 C 
ATOM      3  C   UNL     1       2.378   4.458  21.098  0.00  0.00    +0.000 C 
ATOM      4  C   UNL     1       1.712   5.792  20.866  0.00  0.00    +0.000 C 
ATOM      5  C   UNL     1       2.206   6.594  19.711  0.00  0.00    +0.000 A 
ATOM      6  C   UNL     1       1.610   7.852  19.526  0.00  0.00    +0.000 A 
ATOM      7  C   UNL     1       2.004   8.658  18.480  0.00  0.00    +0.000 A 
ATOM      8  F   UNL     1       1.424   9.851  18.306  0.00  0.00    +0.000 F 
ATOM      9  C   UNL     1       2.994   8.244  17.604  0.00  0.00    +0.000 A 
ATOM     10  C   UNL     1       3.619   6.992  17.764  0.00  0.00    +0.000 A 
ATOM     11  C   UNL     1       4.676   6.515  16.842  0.00  0.00    +0.000 A 
ATOM     12  C   UNL     1       5.298   5.335  17.036  0.00  0.00    +0.000 A 
ATOM     13  C   UNL     1       4.911   4.502  18.216  0.00  0.00    +0.000 A 
ATOM     14  O   UNL     1       5.557   3.474  18.462  0.00  0.00    +0.000 OA
ATOM     15  N   UNL     1       3.830   4.895  19.004  0.00  0.00    +0.000 N 
ATOM     16  C   UNL     1       3.208   6.156  18.830  0.00  0.00    +0.000 A 
ENDROOT
BRANCH  12  17
ATOM     17  C   UNL     1       6.364   4.872  16.055  0.00  0.00    +0.000 C 
ATOM     18  O   UNL     1       7.487   4.520  16.398  0.00  0.00    +0.000 OA
ATOM     19  N   UNL     1       6.008   4.867  14.723  0.00  0.00    +0.000 N 
ATOM     20  H   UNL     1       5.037   5.036  14.471  0.00  0.00    +0.000 HD
BRANCH  19  21
ATOM     21  C   UNL     1       6.935   4.422  13.709  0.00  0.00    +0.000 C 
BRANCH  21  22
ATOM     22  C   UNL     1       6.235   3.576  12.685  0.00  0.00    +0.000 A 
ATOM     23  C   UNL     1       4.863   3.692  12.271  0.00  0.00    +0.000 A 
ATOM     24  C   UNL     1       4.498   2.733  11.347  0.00  0.00    +0.000 A 
ATOM     25  S   UNL     1       5.789   1.680  10.976  0.00  0.00    +0.000 S 
ATOM     26  C   UNL     1       6.834   2.505  12.045  0.00  0.00    +0.000 A 
ENDBRANCH  21  22
ENDBRANCH  19  21
ENDBRANCH  12  17
BRANCH  11  27
ATOM     27  O   UNL     1       4.996   7.312  15.757  0.00  0.00    +0.000 OA
ATOM     28  H   UNL     1       4.620   8.197  15.801  0.00  0.00    +0.000 HD
ENDBRANCH  11  27
TORSDOF 4
ENDMDL
MODEL 4
REMARK VINA RESULT:      -7.6      1.546      1.839
REMARK  Name = 
REMARK  5 active torsions:
REMARK  status: ('A' for Active; 'I' for Inactive)
REMARK    1  A    between atoms: C_1  and  C_2
REMARK    2  A    between atoms: C_11  and  O_12
REMARK    3  A    between atoms: C_13  and  C_14
REMARK    4  A    between atoms: N_16  and  C_17
REMARK    5  A    between atoms: C_17  and  C_18
REMARK                            x       y       z     vdW  Elec       q    Type
REMARK                         _______ _______ _______ _____ _____    ______ ____
ROOT
ATOM      1  C   UNL     1       2.686   2.882  21.210  0.00  0.00    +0.000 C 
ATOM      2  C   UNL     1       2.265   3.044  19.736  0.00  0.00    +0.000 C 
ATOM      3  C   UNL     1       2.814   1.843  18.955  0.00  0.00    +0.000 C 
ATOM      4  C   UNL     1       3.766   2.105  17.814  0.00  0.00    +0.000 C 
ATOM      5  C   UNL     1       4.001   3.532  17.454  0.00  0.00    +0.000 A 
ATOM      6  C   UNL     1       4.856   3.767  16.365  0.00  0.00    +0.000 A 
ATOM      7  C   UNL     1       5.132   5.057  15.967  0.00  0.00    +0.000 A 
ATOM      8  F   UNL     1       5.955   5.271  14.934  0.00  0.00    +0.000 F 
ATOM      9  C   UNL     1       4.567   6.136  16.627  0.00  0.00    +0.000 A 
ATOM     10  C   UNL     1       3.698   5.937  17.718  0.00  0.00    +0.000 A 
ATOM     11  C   UNL     1       3.083   7.068  18.451  0.00  0.00    +0.000 A 
ATOM     12  C   UNL     1       2.217   6.862  19.463  0.00  0.00    +0.000 A 
ATOM     13  C   UNL     1       1.871   5.456  19.839  0.00  0.00    +0.000 A 
ATOM     14  O   UNL     1       0.991   5.263  20.690  0.00  0.00    +0.000 OA
ATOM     15  N   UNL     1       2.550   4.400  19.233  0.00  0.00    +0.000 N 
ATOM     16  C   UNL     1       3.424   4.614  18.138  0.00  0.00    +0.000 A 
ENDROOT
BRANCH  12  17
ATOM     17  C   UNL     1       1.621   8.049  20.203  0.00  0.00    +0.000 C 
ATOM     18  O   UNL     1       1.604   8.142  21.425  0.00  0.00    +0.000 OA
ATOM     19  N   UNL     1       1.080   9.048  19.420  0.00  0.00    +0.000 N 
ATOM     20  H   UNL     1       1.219   9.016  18.413  0.00  0.00    +0.000 HD
BRANCH  19  21
ATOM     21  C   UNL     1       0.511  10.232  20.019  0.00  0.00    +0.000 C 
BRANCH  21  22
ATOM     22  C   UNL     1       1.226  11.464  19.543  0.00  0.00    +0.000 A 
ATOM     23  C   UNL     1       2.007  11.590  18.343  0.00  0.00    +0.000 A 
ATOM     24  C   UNL     1       2.585  12.837  18.207  0.00  0.00    +0.000 A 
ATOM     25  S   UNL     1       2.209  13.861  19.519  0.00  0.00    +0.000 S 
ATOM     26  C   UNL     1       1.273  12.643  20.265  0.00  0.00    +0.000 A 
ENDBRANCH  21  22
ENDBRANCH  19  21
ENDBRANCH  12  17
BRANCH  11  27
ATOM     27  O   UNL     1       3.439   8.353  18.077  0.00  0.00    +0.000 OA
ATOM     28  H   UNL     1       3.943   8.393  17.258  0.00  0.00    +0.000 HD
ENDBRANCH  11  27
TORSDOF 4
ENDMDL
MODEL 5
REMARK VINA RESULT:      -7.6      4.256      7.059
REMARK  Name = 
REMARK  5 active torsions:
REMARK  status: ('A' for Active; 'I' for Inactive)
REMARK    1  A    between atoms: C_1  and  C_2
REMARK    2  A    between atoms: C_11  and  O_12
REMARK    3  A    between atoms: C_13  and  C_14
REMARK    4  A    between atoms: N_16  and  C_17
REMARK    5  A    between atoms: C_17  and  C_18
REMARK                            x       y       z     vdW  Elec       q    Type
REMARK                         _______ _______ _______ _____ _____    ______ ____
ROOT
ATOM      1  C   UNL     1       2.188   2.007  17.824  0.00  0.00    +0.000 C 
ATOM      2  C   UNL     1       2.789   2.762  19.026  0.00  0.00    +0.000 C 
ATOM      3  C   UNL     1       1.893   2.500  20.243  0.00  0.00    +0.000 C 
ATOM      4  C   UNL     1       1.248   3.682  20.925  0.00  0.00    +0.000 C 
ATOM      5  C   UNL     1       1.638   5.033  20.432  0.00  0.00    +0.000 A 
ATOM      6  C   UNL     1       1.064   6.128  21.099  0.00  0.00    +0.000 A 
ATOM      7  C   UNL     1       1.367   7.414  20.706  0.00  0.00    +0.000 A 
ATOM      8  F   UNL     1       0.809   8.451  21.341  0.00  0.00    +0.000 F 
ATOM      9  C   UNL     1       2.243   7.644  19.657  0.00  0.00    +0.000 A 
ATOM     10  C   UNL     1       2.842   6.570  18.972  0.00  0.00    +0.000 A 
ATOM     11  C   UNL     1       3.777   6.780  17.842  0.00  0.00    +0.000 A 
ATOM     12  C   UNL     1       4.380   5.743  17.226  0.00  0.00    +0.000 A 
ATOM     13  C   UNL     1       4.097   4.356  17.709  0.00  0.00    +0.000 A 
ATOM     14  O   UNL     1       4.734   3.411  17.223  0.00  0.00    +0.000 OA
ATOM     15  N   UNL     1       3.121   4.157  18.684  0.00  0.00    +0.000 N 
ATOM     16  C   UNL     1       2.523   5.248  19.364  0.00  0.00    +0.000 A 
ENDROOT
BRANCH  12  17
ATOM     17  C   UNL     1       5.318   5.999  16.057  0.00  0.00    +0.000 C 
ATOM     18  O   UNL     1       5.117   6.860  15.208  0.00  0.00    +0.000 OA
ATOM     19  N   UNL     1       6.437   5.195  15.985  0.00  0.00    +0.000 N 
ATOM     20  H   UNL     1       6.653   4.579  16.765  0.00  0.00    +0.000 HD
BRANCH  19  21
ATOM     21  C   UNL     1       7.408   5.370  14.930  0.00  0.00    +0.000 C 
BRANCH  21  22
ATOM     22  C   UNL     1       7.003   4.602  13.705  0.00  0.00    +0.000 A 
ATOM     23  C   UNL     1       7.597   4.698  12.399  0.00  0.00    +0.000 A 
ATOM     24  C   UNL     1       6.968   3.902  11.462  0.00  0.00    +0.000 A 
ATOM     25  S   UNL     1       5.656   3.041  12.135  0.00  0.00    +0.000 S 
ATOM     26  C   UNL     1       5.930   3.730  13.673  0.00  0.00    +0.000 A 
ENDBRANCH  21  22
ENDBRANCH  19  21
ENDBRANCH  12  17
BRANCH  11  27
ATOM     27  O   UNL     1       4.002   8.079  17.420  0.00  0.00    +0.000 OA
ATOM     28  H   UNL     1       3.250   8.666  17.553  0.00  0.00    +0.000 HD
ENDBRANCH  11  27
TORSDOF 4
ENDMDL
MODEL 6
REMARK VINA RESULT:      -7.4      3.978      8.550
REMARK  Name = 
REMARK  5 active torsions:
REMARK  status: ('A' for Active; 'I' for Inactive)
REMARK    1  A    between atoms: C_1  and  C_2
REMARK    2  A    between atoms: C_11  and  O_12
REMARK    3  A    between atoms: C_13  and  C_14
REMARK    4  A    between atoms: N_16  and  C_17
REMARK    5  A    between atoms: C_17  and  C_18
REMARK                            x       y       z     vdW  Elec       q    Type
REMARK                         _______ _______ _______ _____ _____    ______ ____
ROOT
ATOM      1  C   UNL     1      -0.730  10.340  23.321  0.00  0.00    +0.000 C 
ATOM      2  C   UNL     1      -0.855  11.587  22.423  0.00  0.00    +0.000 C 
ATOM      3  C   UNL     1      -1.970  12.470  22.996  0.00  0.00    +0.000 C 
ATOM      4  C   UNL     1      -3.159  12.782  22.119  0.00  0.00    +0.000 C 
ATOM      5  C   UNL     1      -3.092  12.304  20.709  0.00  0.00    +0.000 A 
ATOM      6  C   UNL     1      -4.184  12.634  19.889  0.00  0.00    +0.000 A 
ATOM      7  C   UNL     1      -4.207  12.228  18.571  0.00  0.00    +0.000 A 
ATOM      8  F   UNL     1      -5.255  12.539  17.800  0.00  0.00    +0.000 F 
ATOM      9  C   UNL     1      -3.156  11.500  18.038  0.00  0.00    +0.000 A 
ATOM     10  C   UNL     1      -2.042  11.159  18.830  0.00  0.00    +0.000 A 
ATOM     11  C   UNL     1      -0.905  10.375  18.294  0.00  0.00    +0.000 A 
ATOM     12  C   UNL     1       0.175  10.097  19.051  0.00  0.00    +0.000 A 
ATOM     13  C   UNL     1       0.219  10.603  20.457  0.00  0.00    +0.000 A 
ATOM     14  O   UNL     1       1.256  10.449  21.118  0.00  0.00    +0.000 OA
ATOM     15  N   UNL     1      -0.906  11.228  20.994  0.00  0.00    +0.000 N 
ATOM     16  C   UNL     1      -2.022  11.562  20.187  0.00  0.00    +0.000 A 
ENDROOT
BRANCH  12  17
ATOM     17  C   UNL     1       1.314   9.273  18.470  0.00  0.00    +0.000 C 
ATOM     18  O   UNL     1       1.884   9.555  17.423  0.00  0.00    +0.000 OA
ATOM     19  N   UNL     1       1.688   8.157  19.189  0.00  0.00    +0.000 N 
ATOM     20  H   UNL     1       1.295   8.012  20.116  0.00  0.00    +0.000 HD
BRANCH  19  21
ATOM     21  C   UNL     1       2.775   7.317  18.742  0.00  0.00    +0.000 C 
BRANCH  21  22
ATOM     22  C   UNL     1       2.438   5.866  18.933  0.00  0.00    +0.000 A 
ATOM     23  C   UNL     1       2.153   4.910  17.898  0.00  0.00    +0.000 A 
ATOM     24  C   UNL     1       1.825   3.664  18.393  0.00  0.00    +0.000 A 
ATOM     25  S   UNL     1       1.844   3.630  20.100  0.00  0.00    +0.000 S 
ATOM     26  C   UNL     1       2.293   5.276  20.176  0.00  0.00    +0.000 A 
ENDBRANCH  21  22
ENDBRANCH  19  21
ENDBRANCH  12  17
BRANCH  11  27
ATOM     27  O   UNL     1      -0.992   9.916  16.991  0.00  0.00    +0.000 OA
ATOM     28  H   UNL     1      -1.699  10.326  16.482  0.00  0.00    +0.000 HD
ENDBRANCH  11  27
TORSDOF 4
ENDMDL
MODEL 7
REMARK VINA RESULT:      -7.4      4.273      8.154
REMARK  Name = 
REMARK  5 active torsions:
REMARK  status: ('A' for Active; 'I' for Inactive)
REMARK    1  A    between atoms: C_1  and  C_2
REMARK    2  A    between atoms: C_11  and  O_12
REMARK    3  A    between atoms: C_13  and  C_14
REMARK    4  A    between atoms: N_16  and  C_17
REMARK    5  A    between atoms: C_17  and  C_18
REMARK                            x       y       z     vdW  Elec       q    Type
REMARK                         _______ _______ _______ _____ _____    ______ ____
ROOT
ATOM      1  C   UNL     1       2.531  12.246  18.015  0.00  0.00    +0.000 C 
ATOM      2  C   UNL     1       1.173  11.655  18.444  0.00  0.00    +0.000 C 
ATOM      3  C   UNL     1       0.410  12.738  19.216  0.00  0.00    +0.000 C 
ATOM      4  C   UNL     1       0.010  12.454  20.643  0.00  0.00    +0.000 C 
ATOM      5  C   UNL     1       0.281  11.079  21.151  0.00  0.00    +0.000 A 
ATOM      6  C   UNL     1      -0.132  10.810  22.467  0.00  0.00    +0.000 A 
ATOM      7  C   UNL     1       0.083   9.565  23.018  0.00  0.00    +0.000 A 
ATOM      8  F   UNL     1      -0.306   9.320  24.275  0.00  0.00    +0.000 F 
ATOM      9  C   UNL     1       0.700   8.564  22.285  0.00  0.00    +0.000 A 
ATOM     10  C   UNL     1       1.119   8.797  20.961  0.00  0.00    +0.000 A 
ATOM     11  C   UNL     1       1.788   7.753  20.151  0.00  0.00    +0.000 A 
ATOM     12  C   UNL     1       2.142   7.976  18.870  0.00  0.00    +0.000 A 
ATOM     13  C   UNL     1       1.839   9.307  18.261  0.00  0.00    +0.000 A 
ATOM     14  O   UNL     1       2.057   9.478  17.053  0.00  0.00    +0.000 OA
ATOM     15  N   UNL     1       1.328  10.326  19.064  0.00  0.00    +0.000 N 
ATOM     16  C   UNL     1       0.912  10.078  20.396  0.00  0.00    +0.000 A 
ENDROOT
BRANCH  12  17
ATOM     17  C   UNL     1       2.844   6.884  18.078  0.00  0.00    +0.000 C 
ATOM     18  O   UNL     1       2.483   5.713  18.078  0.00  0.00    +0.000 OA
ATOM     19  N   UNL     1       3.942   7.276  17.339  0.00  0.00    +0.000 N 
ATOM     20  H   UNL     1       4.147   8.268  17.248  0.00  0.00    +0.000 HD
BRANCH  19  21
ATOM     21  C   UNL     1       4.668   6.325  16.530  0.00  0.00    +0.000 C 
BRANCH  21  22
ATOM     22  C   UNL     1       5.916   5.874  17.233  0.00  0.00    +0.000 A 
ATOM     23  C   UNL     1       6.698   4.707  16.926  0.00  0.00    +0.000 A 
ATOM     24  C   UNL     1       7.762   4.531  17.788  0.00  0.00    +0.000 A 
ATOM     25  S   UNL     1       7.828   5.753  18.978  0.00  0.00    +0.000 S 
ATOM     26  C   UNL     1       6.440   6.517  18.341  0.00  0.00    +0.000 A 
ENDBRANCH  21  22
ENDBRANCH  19  21
ENDBRANCH  12  17
BRANCH  11  27
ATOM     27  O   UNL     1       2.060   6.539  20.758  0.00  0.00    +0.000 OA
ATOM     28  H   UNL     1       1.452   6.316  21.470  0.00  0.00    +0.000 HD
ENDBRANCH  11  27
TORSDOF 4
ENDMDL
MODEL 8
REMARK VINA RESULT:      -7.2      4.368      9.099
REMARK  Name = 
REMARK  5 active torsions:
REMARK  status: ('A' for Active; 'I' for Inactive)
REMARK    1  A    between atoms: C_1  and  C_2
REMARK    2  A    between atoms: C_11  and  O_12
REMARK    3  A    between atoms: C_13  and  C_14
REMARK    4  A    between atoms: N_16  and  C_17
REMARK    5  A    between atoms: C_17  and  C_18
REMARK                            x       y       z     vdW  Elec       q    Type
REMARK                         _______ _______ _______ _____ _____    ______ ____
ROOT
ATOM      1  C   UNL     1      -3.514  11.146  15.899  0.00  0.00    +0.000 C 
ATOM      2  C   UNL     1      -3.748  10.715  17.361  0.00  0.00    +0.000 C 
ATOM      3  C   UNL     1      -5.149  11.184  17.772  0.00  0.00    +0.000 C 
ATOM      4  C   UNL     1      -5.273  12.134  18.938  0.00  0.00    +0.000 C 
ATOM      5  C   UNL     1      -4.020  12.444  19.683  0.00  0.00    +0.000 A 
ATOM      6  C   UNL     1      -4.150  13.297  20.792  0.00  0.00    +0.000 A 
ATOM      7  C   UNL     1      -3.041  13.639  21.536  0.00  0.00    +0.000 A 
ATOM      8  F   UNL     1      -3.173  14.459  22.585  0.00  0.00    +0.000 F 
ATOM      9  C   UNL     1      -1.789  13.145  21.206  0.00  0.00    +0.000 A 
ATOM     10  C   UNL     1      -1.624  12.282  20.106  0.00  0.00    +0.000 A 
ATOM     11  C   UNL     1      -0.299  11.741  19.721  0.00  0.00    +0.000 A 
ATOM     12  C   UNL     1      -0.163  10.879  18.694  0.00  0.00    +0.000 A 
ATOM     13  C   UNL     1      -1.384  10.459  17.940  0.00  0.00    +0.000 A 
ATOM     14  O   UNL     1      -1.281   9.582  17.071  0.00  0.00    +0.000 OA
ATOM     15  N   UNL     1      -2.606  11.069  18.223  0.00  0.00    +0.000 N 
ATOM     16  C   UNL     1      -2.758  11.939  19.332  0.00  0.00    +0.000 A 
ENDROOT
BRANCH  12  17
ATOM     17  C   UNL     1       1.216  10.361  18.318  0.00  0.00    +0.000 C 
ATOM     18  O   UNL     1       2.186  11.091  18.146  0.00  0.00    +0.000 OA
ATOM     19  N   UNL     1       1.337   8.995  18.170  0.00  0.00    +0.000 N 
ATOM     20  H   UNL     1       0.559   8.398  18.444  0.00  0.00    +0.000 HD
BRANCH  19  21
ATOM     21  C   UNL     1       2.608   8.395  17.840  0.00  0.00    +0.000 C 
BRANCH  21  22
ATOM     22  C   UNL     1       2.737   7.041  18.476  0.00  0.00    +0.000 A 
ATOM     23  C   UNL     1       2.270   6.660  19.782  0.00  0.00    +0.000 A 
ATOM     24  C   UNL     1       2.586   5.355  20.106  0.00  0.00    +0.000 A 
ATOM     25  S   UNL     1       3.453   4.579  18.857  0.00  0.00    +0.000 S 
ATOM     26  C   UNL     1       3.404   5.982  17.885  0.00  0.00    +0.000 A 
ENDBRANCH  21  22
ENDBRANCH  19  21
ENDBRANCH  12  17
BRANCH  11  27
ATOM     27  O   UNL     1       0.806  12.164  20.439  0.00  0.00    +0.000 OA
ATOM     28  H   UNL     1       0.793  13.102  20.656  0.00  0.00    +0.000 HD
ENDBRANCH  11  27
TORSDOF 4
ENDMDL
MODEL 9
REMARK VINA RESULT:      -7.1      3.998      8.432
REMARK  Name = 
REMARK  5 active torsions:
REMARK  status: ('A' for Active; 'I' for Inactive)
REMARK    1  A    between atoms: C_1  and  C_2
REMARK    2  A    between atoms: C_11  and  O_12
REMARK    3  A    between atoms: C_13  and  C_14
REMARK    4  A    between atoms: N_16  and  C_17
REMARK    5  A    between atoms: C_17  and  C_18
REMARK                            x       y       z     vdW  Elec       q    Type
REMARK                         _______ _______ _______ _____ _____    ______ ____
ROOT
ATOM      1  C   UNL     1       2.762  12.971  18.239  0.00  0.00    +0.000 C 
ATOM      2  C   UNL     1       1.264  12.624  18.345  0.00  0.00    +0.000 C 
ATOM      3  C   UNL     1       0.514  13.895  18.764  0.00  0.00    +0.000 C 
ATOM      4  C   UNL     1      -0.273  13.870  20.052  0.00  0.00    +0.000 C 
ATOM      5  C   UNL     1      -0.362  12.560  20.756  0.00  0.00    +0.000 A 
ATOM      6  C   UNL     1      -1.129  12.536  21.932  0.00  0.00    +0.000 A 
ATOM      7  C   UNL     1      -1.262  11.366  22.649  0.00  0.00    +0.000 A 
ATOM      8  F   UNL     1      -1.988  11.355  23.773  0.00  0.00    +0.000 F 
ATOM      9  C   UNL     1      -0.648  10.201  22.219  0.00  0.00    +0.000 A 
ATOM     10  C   UNL     1       0.123  10.187  21.040  0.00  0.00    +0.000 A 
ATOM     11  C   UNL     1       0.798   8.961  20.555  0.00  0.00    +0.000 A 
ATOM     12  C   UNL     1       1.494   8.952  19.400  0.00  0.00    +0.000 A 
ATOM     13  C   UNL     1       1.571  10.210  18.596  0.00  0.00    +0.000 A 
ATOM     14  O   UNL     1       2.110  10.176  17.481  0.00  0.00    +0.000 OA
ATOM     15  N   UNL     1       1.043  11.389  19.119  0.00  0.00    +0.000 N 
ATOM     16  C   UNL     1       0.272  11.389  20.309  0.00  0.00    +0.000 A 
ENDROOT
BRANCH  12  17
ATOM     17  C   UNL     1       2.190   7.678  18.947  0.00  0.00    +0.000 C 
ATOM     18  O   UNL     1       2.174   7.277  17.789  0.00  0.00    +0.000 OA
ATOM     19  N   UNL     1       2.858   6.966  19.922  0.00  0.00    +0.000 N 
ATOM     20  H   UNL     1       2.970   7.379  20.845  0.00  0.00    +0.000 HD
BRANCH  19  21
ATOM     21  C   UNL     1       3.574   5.755  19.596  0.00  0.00    +0.000 C 
BRANCH  21  22
ATOM     22  C   UNL     1       2.677   4.558  19.722  0.00  0.00    +0.000 A 
ATOM     23  C   UNL     1       1.642   4.362  20.701  0.00  0.00    +0.000 A 
ATOM     24  C   UNL     1       1.024   3.132  20.592  0.00  0.00    +0.000 A 
ATOM     25  S   UNL     1       1.685   2.196  19.326  0.00  0.00    +0.000 S 
ATOM     26  C   UNL     1       2.791   3.434  18.924  0.00  0.00    +0.000 A 
ENDBRANCH  21  22
ENDBRANCH  19  21
ENDBRANCH  12  17
BRANCH  11  27
ATOM     27  O   UNL     1       0.711   7.822  21.337  0.00  0.00    +0.000 OA
ATOM     28  H   UNL     1       0.307   7.072  20.887  0.00  0.00    +0.000 HD
ENDBRANCH  11  27
TORSDOF 4
ENDMDL
