MODEL 1
REMARK VINA RESULT:      -8.4      0.000      0.000
REMARK  Name = 
REMARK  10 active torsions:
REMARK  status: ('A' for Active; 'I' for Inactive)
REMARK    1  A    between atoms: C_1  and  O_2
REMARK    2  A    between atoms: O_2  and  C_3
REMARK    3  A    between atoms: C_7  and  C_8
REMARK    4  A    between atoms: C_8  and  N_9
REMARK    5  A    between atoms: N_9  and  C_10
REMARK    6  A    between atoms: C_13  and  S_14
REMARK    7  A    between atoms: S_14  and  N_17
REMARK    8  A    between atoms: N_17  and  C_18
REMARK    9  A    between atoms: C_22  and  C_23
REMARK   10  A    between atoms: C_32  and  O_33
REMARK                            x       y       z     vdW  Elec       q    Type
REMARK                         _______ _______ _______ _____ _____    ______ ____
ROOT
ATOM      1  C   UNL     1       2.633   5.615  18.951  0.00  0.00    +0.000 A 
ATOM      2  C   UNL     1       2.142   5.432  20.248  0.00  0.00    +0.000 A 
ATOM      3  C   UNL     1       1.566   6.478  20.947  0.00  0.00    +0.000 A 
ATOM      4  C   UNL     1       1.529   7.751  20.390  0.00  0.00    +0.000 A 
ATOM      5  C   UNL     1       2.034   7.980  19.106  0.00  0.00    +0.000 A 
ATOM      6  C   UNL     1       2.619   6.911  18.409  0.00  0.00    +0.000 A 
ENDROOT
BRANCH   4   7
ATOM      7  S   UNL     1       0.888   9.062  21.407  0.00  0.00    +0.000 S 
ATOM      8  O   UNL     1      -0.458   8.712  21.758  0.00  0.00    +0.000 OA
ATOM      9  O   UNL     1       1.894   9.340  22.423  0.00  0.00    +0.000 OA
BRANCH   7  10
ATOM     10  N   UNL     1       0.825  10.396  20.346  0.00  0.00    +0.000 N 
ATOM     11  H   UNL     1       1.413  11.152  20.694  0.00  0.00    +0.000 HD
BRANCH  10  12
ATOM     12  C   UNL     1      -0.457  10.778  19.854  0.00  0.00    +0.000 A 
ATOM     13  C   UNL     1      -0.930  10.199  18.677  0.00  0.00    +0.000 A 
ATOM     14  C   UNL     1      -2.111  10.653  18.111  0.00  0.00    +0.000 A 
ATOM     15  C   UNL     1      -2.832  11.671  18.720  0.00  0.00    +0.000 A 
ATOM     16  C   UNL     1      -2.391  12.273  19.906  0.00  0.00    +0.000 A 
ATOM     17  C   UNL     1      -1.186  11.807  20.459  0.00  0.00    +0.000 A 
BRANCH  16  18
ATOM     18  C   UNL     1      -3.148  13.418  20.575  0.00  0.00    +0.000 C 
ATOM     19  C   UNL     1      -2.888  13.540  22.086  0.00  0.00    +0.000 C 
ATOM     20  C   UNL     1      -3.701  12.559  22.931  0.00  0.00    +0.000 C 
ATOM     21  N   UNL     1      -5.131  12.572  22.621  0.00  0.00    +0.000 NA
ATOM     22  C   UNL     1      -5.430  12.423  21.195  0.00  0.00    +0.000 C 
ATOM     23  C   UNL     1      -4.661  13.403  20.309  0.00  0.00    +0.000 C 
ATOM     24  H   UNL     1      -5.527  13.454  22.946  0.00  0.00    +0.000 HD
ENDBRANCH  16  18
ENDBRANCH  10  12
ENDBRANCH   7  10
ENDBRANCH   4   7
BRANCH   1  25
ATOM     25  N   UNL     1       3.217   4.559  18.245  0.00  0.00    +0.000 N 
ATOM     26  H   UNL     1       3.659   3.894  18.875  0.00  0.00    +0.000 HD
BRANCH  25  27
ATOM     27  C   UNL     1       4.152   4.902  17.157  0.00  0.00    +0.000 C 
BRANCH  27  32
ATOM     28  C   UNL     1       7.346   7.016  17.587  0.00  0.00    +0.000 A 
ATOM     29  C   UNL     1       7.847   6.449  18.764  0.00  0.00    +0.000 A 
ATOM     30  C   UNL     1       7.184   5.395  19.392  0.00  0.00    +0.000 A 
ATOM     31  C   UNL     1       5.994   4.904  18.858  0.00  0.00    +0.000 A 
ATOM     32  C   UNL     1       5.447   5.473  17.696  0.00  0.00    +0.000 A 
ATOM     33  C   UNL     1       6.154   6.512  17.057  0.00  0.00    +0.000 A 
BRANCH  28  35
ATOM     34  C   UNL     1       8.111   9.272  17.840  0.00  0.00    +0.000 C 
ATOM     35  O   UNL     1       8.106   8.052  17.107  0.00  0.00    +0.000 OA
ENDBRANCH  28  35
BRANCH  33  36
ATOM     36  O   UNL     1       5.635   7.057  15.911  0.00  0.00    +0.000 OA
ATOM     37  H   UNL     1       4.810   7.496  16.201  0.00  0.00    +0.000 HD
ENDBRANCH  33  36
ENDBRANCH  27  32
ENDBRANCH  25  27
ENDBRANCH   1  25
TORSDOF 9
ENDMDL
MODEL 2
REMARK VINA RESULT:      -8.3      1.963      3.024
REMARK  Name = 
REMARK  10 active torsions:
REMARK  status: ('A' for Active; 'I' for Inactive)
REMARK    1  A    between atoms: C_1  and  O_2
REMARK    2  A    between atoms: O_2  and  C_3
REMARK    3  A    between atoms: C_7  and  C_8
REMARK    4  A    between atoms: C_8  and  N_9
REMARK    5  A    between atoms: N_9  and  C_10
REMARK    6  A    between atoms: C_13  and  S_14
REMARK    7  A    between atoms: S_14  and  N_17
REMARK    8  A    between atoms: N_17  and  C_18
REMARK    9  A    between atoms: C_22  and  C_23
REMARK   10  A    between atoms: C_32  and  O_33
REMARK                            x       y       z     vdW  Elec       q    Type
REMARK                         _______ _______ _______ _____ _____    ______ ____
ROOT
ATOM      1  C   UNL     1       2.528   5.011  18.974  0.00  0.00    +0.000 A 
ATOM      2  C   UNL     1       2.009   4.934  20.270  0.00  0.00    +0.000 A 
ATOM      3  C   UNL     1       1.513   6.056  20.909  0.00  0.00    +0.000 A 
ATOM      4  C   UNL     1       1.587   7.299  20.291  0.00  0.00    +0.000 A 
ATOM      5  C   UNL     1       2.123   7.423  19.005  0.00  0.00    +0.000 A 
ATOM      6  C   UNL     1       2.626   6.276  18.369  0.00  0.00    +0.000 A 
ENDROOT
BRANCH   4   7
ATOM      7  S   UNL     1       1.044   8.706  21.232  0.00  0.00    +0.000 S 
ATOM      8  O   UNL     1      -0.350   8.520  21.516  0.00  0.00    +0.000 OA
ATOM      9  O   UNL     1       2.019   8.906  22.296  0.00  0.00    +0.000 OA
BRANCH   7  10
ATOM     10  N   UNL     1       1.189  10.003  20.133  0.00  0.00    +0.000 N 
ATOM     11  H   UNL     1       1.957  10.613  20.406  0.00  0.00    +0.000 HD
BRANCH  10  12
ATOM     12  C   UNL     1      -0.014  10.654  19.732  0.00  0.00    +0.000 A 
ATOM     13  C   UNL     1      -0.332  11.891  20.290  0.00  0.00    +0.000 A 
ATOM     14  C   UNL     1      -1.557  12.478  20.017  0.00  0.00    +0.000 A 
ATOM     15  C   UNL     1      -2.463  11.845  19.176  0.00  0.00    +0.000 A 
ATOM     16  C   UNL     1      -2.176  10.603  18.593  0.00  0.00    +0.000 A 
ATOM     17  C   UNL     1      -0.934  10.019  18.891  0.00  0.00    +0.000 A 
BRANCH  16  18
ATOM     18  C   UNL     1      -3.171   9.871  17.694  0.00  0.00    +0.000 C 
ATOM     19  C   UNL     1      -2.722   9.761  16.227  0.00  0.00    +0.000 C 
ATOM     20  C   UNL     1      -2.975  11.027  15.410  0.00  0.00    +0.000 C 
ATOM     21  N   UNL     1      -4.344  11.530  15.526  0.00  0.00    +0.000 NA
ATOM     22  C   UNL     1      -4.805  11.686  16.907  0.00  0.00    +0.000 C 
ATOM     23  C   UNL     1      -4.600  10.433  17.759  0.00  0.00    +0.000 C 
ATOM     24  H   UNL     1      -4.970  10.884  15.045  0.00  0.00    +0.000 HD
ENDBRANCH  16  18
ENDBRANCH  10  12
ENDBRANCH   7  10
ENDBRANCH   4   7
BRANCH   1  25
ATOM     25  N   UNL     1       3.032   3.878  18.329  0.00  0.00    +0.000 N 
ATOM     26  H   UNL     1       2.445   3.065  18.500  0.00  0.00    +0.000 HD
BRANCH  25  27
ATOM     27  C   UNL     1       4.443   3.527  18.572  0.00  0.00    +0.000 C 
BRANCH  27  32
ATOM     28  C   UNL     1       7.129   6.183  17.808  0.00  0.00    +0.000 A 
ATOM     29  C   UNL     1       7.071   6.180  16.411  0.00  0.00    +0.000 A 
ATOM     30  C   UNL     1       6.172   5.360  15.730  0.00  0.00    +0.000 A 
ATOM     31  C   UNL     1       5.328   4.511  16.443  0.00  0.00    +0.000 A 
ATOM     32  C   UNL     1       5.383   4.465  17.846  0.00  0.00    +0.000 A 
ATOM     33  C   UNL     1       6.273   5.332  18.514  0.00  0.00    +0.000 A 
BRANCH  28  35
ATOM     34  C   UNL     1       8.091   8.376  17.850  0.00  0.00    +0.000 C 
ATOM     35  O   UNL     1       8.077   7.032  18.320  0.00  0.00    +0.000 OA
ENDBRANCH  28  35
BRANCH  33  36
ATOM     36  O   UNL     1       6.316   5.306  19.883  0.00  0.00    +0.000 OA
ATOM     37  H   UNL     1       7.270   5.342  20.099  0.00  0.00    +0.000 HD
ENDBRANCH  33  36
ENDBRANCH  27  32
ENDBRANCH  25  27
ENDBRANCH   1  25
TORSDOF 9
ENDMDL
MODEL 3
REMARK VINA RESULT:      -8.2      6.048      8.748
REMARK  Name = 
REMARK  10 active torsions:
REMARK  status: ('A' for Active; 'I' for Inactive)
REMARK    1  A    between atoms: C_1  and  O_2
REMARK    2  A    between atoms: O_2  and  C_3
REMARK    3  A    between atoms: C_7  and  C_8
REMARK    4  A    between atoms: C_8  and  N_9
REMARK    5  A    between atoms: N_9  and  C_10
REMARK    6  A    between atoms: C_13  and  S_14
REMARK    7  A    between atoms: S_14  and  N_17
REMARK    8  A    between atoms: N_17  and  C_18
REMARK    9  A    between atoms: C_22  and  C_23
REMARK   10  A    between atoms: C_32  and  O_33
REMARK                            x       y       z     vdW  Elec       q    Type
REMARK                         _______ _______ _______ _____ _____    ______ ____
ROOT
ATOM      1  C   UNL     1       8.497   8.680  18.718  0.00  0.00    +0.000 A 
ATOM      2  C   UNL     1       7.861   8.774  17.475  0.00  0.00    +0.000 A 
ATOM      3  C   UNL     1       7.251   7.674  16.900  0.00  0.00    +0.000 A 
ATOM      4  C   UNL     1       7.322   6.433  17.524  0.00  0.00    +0.000 A 
ATOM      5  C   UNL     1       7.972   6.292  18.754  0.00  0.00    +0.000 A 
ATOM      6  C   UNL     1       8.590   7.416  19.325  0.00  0.00    +0.000 A 
ENDROOT
BRANCH   4   7
ATOM      7  S   UNL     1       6.621   5.049  16.656  0.00  0.00    +0.000 S 
ATOM      8  O   UNL     1       7.450   4.797  15.512  0.00  0.00    +0.000 OA
ATOM      9  O   UNL     1       6.356   4.016  17.648  0.00  0.00    +0.000 OA
BRANCH   7  10
ATOM     10  N   UNL     1       5.123   5.643  16.099  0.00  0.00    +0.000 N 
ATOM     11  H   UNL     1       5.265   6.451  15.495  0.00  0.00    +0.000 HD
BRANCH  10  12
ATOM     12  C   UNL     1       4.070   5.755  17.053  0.00  0.00    +0.000 A 
ATOM     13  C   UNL     1       3.766   7.010  17.580  0.00  0.00    +0.000 A 
ATOM     14  C   UNL     1       2.841   7.122  18.606  0.00  0.00    +0.000 A 
ATOM     15  C   UNL     1       2.204   5.991  19.099  0.00  0.00    +0.000 A 
ATOM     16  C   UNL     1       2.480   4.714  18.591  0.00  0.00    +0.000 A 
ATOM     17  C   UNL     1       3.429   4.619  17.560  0.00  0.00    +0.000 A 
BRANCH  16  18
ATOM     18  C   UNL     1       1.819   3.452  19.142  0.00  0.00    +0.000 C 
ATOM     19  C   UNL     1       1.096   3.661  20.483  0.00  0.00    +0.000 C 
ATOM     20  C   UNL     1       2.029   3.655  21.692  0.00  0.00    +0.000 C 
ATOM     21  N   UNL     1       2.924   2.497  21.730  0.00  0.00    +0.000 NA
ATOM     22  C   UNL     1       3.663   2.278  20.485  0.00  0.00    +0.000 C 
ATOM     23  C   UNL     1       2.768   2.248  19.246  0.00  0.00    +0.000 C 
ATOM     24  H   UNL     1       2.371   1.665  21.931  0.00  0.00    +0.000 HD
ENDBRANCH  16  18
ENDBRANCH  10  12
ENDBRANCH   7  10
ENDBRANCH   4   7
BRANCH   1  25
ATOM     25  N   UNL     1       9.117   9.791  19.298  0.00  0.00    +0.000 N 
ATOM     26  H   UNL     1       8.481  10.285  19.919  0.00  0.00    +0.000 HD
BRANCH  25  27
ATOM     27  C   UNL     1       9.771  10.755  18.394  0.00  0.00    +0.000 C 
BRANCH  27  32
ATOM     28  C   UNL     1       9.143  14.521  18.920  0.00  0.00    +0.000 A 
ATOM     29  C   UNL     1       9.832  14.708  20.122  0.00  0.00    +0.000 A 
ATOM     30  C   UNL     1      10.503  13.652  20.738  0.00  0.00    +0.000 A 
ATOM     31  C   UNL     1      10.477  12.383  20.166  0.00  0.00    +0.000 A 
ATOM     32  C   UNL     1       9.767  12.153  18.975  0.00  0.00    +0.000 A 
ATOM     33  C   UNL     1       9.128  13.244  18.351  0.00  0.00    +0.000 A 
BRANCH  28  35
ATOM     34  C   UNL     1       8.152  16.647  19.405  0.00  0.00    +0.000 C 
ATOM     35  O   UNL     1       8.524  15.654  18.456  0.00  0.00    +0.000 OA
ENDBRANCH  28  35
BRANCH  33  36
ATOM     36  O   UNL     1       8.451  13.029  17.179  0.00  0.00    +0.000 OA
ATOM     37  H   UNL     1       8.996  13.470  16.496  0.00  0.00    +0.000 HD
ENDBRANCH  33  36
ENDBRANCH  27  32
ENDBRANCH  25  27
ENDBRANCH   1  25
TORSDOF 9
ENDMDL
MODEL 4
REMARK VINA RESULT:      -8.0      5.883      8.768
REMARK  Name = 
REMARK  10 active torsions:
REMARK  status: ('A' for Active; 'I' for Inactive)
REMARK    1  A    between atoms: C_1  and  O_2
REMARK    2  A    between atoms: O_2  and  C_3
REMARK    3  A    between atoms: C_7  and  C_8
REMARK    4  A    between atoms: C_8  and  N_9
REMARK    5  A    between atoms: N_9  and  C_10
REMARK    6  A    between atoms: C_13  and  S_14
REMARK    7  A    between atoms: S_14  and  N_17
REMARK    8  A    between atoms: N_17  and  C_18
REMARK    9  A    between atoms: C_22  and  C_23
REMARK   10  A    between atoms: C_32  and  O_33
REMARK                            x       y       z     vdW  Elec       q    Type
REMARK                         _______ _______ _______ _____ _____    ______ ____
ROOT
ATOM      1  C   UNL     1       8.609   8.692  18.811  0.00  0.00    +0.000 A 
ATOM      2  C   UNL     1       7.959   8.924  17.594  0.00  0.00    +0.000 A 
ATOM      3  C   UNL     1       7.265   7.913  16.952  0.00  0.00    +0.000 A 
ATOM      4  C   UNL     1       7.263   6.627  17.479  0.00  0.00    +0.000 A 
ATOM      5  C   UNL     1       7.924   6.349  18.680  0.00  0.00    +0.000 A 
ATOM      6  C   UNL     1       8.627   7.383  19.319  0.00  0.00    +0.000 A 
ENDROOT
BRANCH   4   7
ATOM      7  S   UNL     1       6.456   5.362  16.524  0.00  0.00    +0.000 S 
ATOM      8  O   UNL     1       7.162   5.248  15.281  0.00  0.00    +0.000 OA
ATOM      9  O   UNL     1       6.274   4.218  17.406  0.00  0.00    +0.000 OA
BRANCH   7  10
ATOM     10  N   UNL     1       4.920   6.028  16.198  0.00  0.00    +0.000 N 
ATOM     11  H   UNL     1       5.012   6.862  15.621  0.00  0.00    +0.000 HD
BRANCH  10  12
ATOM     12  C   UNL     1       4.004   6.119  17.287  0.00  0.00    +0.000 A 
ATOM     13  C   UNL     1       3.460   7.361  17.610  0.00  0.00    +0.000 A 
ATOM     14  C   UNL     1       2.675   7.497  18.744  0.00  0.00    +0.000 A 
ATOM     15  C   UNL     1       2.416   6.397  19.551  0.00  0.00    +0.000 A 
ATOM     16  C   UNL     1       2.942   5.132  19.254  0.00  0.00    +0.000 A 
ATOM     17  C   UNL     1       3.744   5.016  18.107  0.00  0.00    +0.000 A 
BRANCH  16  18
ATOM     18  C   UNL     1       2.700   3.915  20.146  0.00  0.00    +0.000 C 
ATOM     19  C   UNL     1       3.603   2.713  19.819  0.00  0.00    +0.000 C 
ATOM     20  C   UNL     1       3.120   1.889  18.626  0.00  0.00    +0.000 C 
ATOM     21  N   UNL     1       1.711   1.504  18.718  0.00  0.00    +0.000 NA
ATOM     22  C   UNL     1       0.807   2.622  18.993  0.00  0.00    +0.000 C 
ATOM     23  C   UNL     1       1.232   3.463  20.197  0.00  0.00    +0.000 C 
ATOM     24  H   UNL     1       1.610   0.813  19.461  0.00  0.00    +0.000 HD
ENDBRANCH  16  18
ENDBRANCH  10  12
ENDBRANCH   7  10
ENDBRANCH   4   7
BRANCH   1  25
ATOM     25  N   UNL     1       9.312   9.712  19.460  0.00  0.00    +0.000 N 
ATOM     26  H   UNL     1       9.534   9.455  20.418  0.00  0.00    +0.000 HD
BRANCH  25  27
ATOM     27  C   UNL     1       8.726  11.065  19.436  0.00  0.00    +0.000 C 
BRANCH  27  32
ATOM     28  C   UNL     1      10.413  14.354  18.343  0.00  0.00    +0.000 A 
ATOM     29  C   UNL     1      11.436  13.838  17.541  0.00  0.00    +0.000 A 
ATOM     30  C   UNL     1      11.566  12.464  17.338  0.00  0.00    +0.000 A 
ATOM     31  C   UNL     1      10.681  11.582  17.954  0.00  0.00    +0.000 A 
ATOM     32  C   UNL     1       9.662  12.065  18.792  0.00  0.00    +0.000 A 
ATOM     33  C   UNL     1       9.526  13.460  18.952  0.00  0.00    +0.000 A 
BRANCH  28  35
ATOM     34  C   UNL     1       9.581  16.473  17.598  0.00  0.00    +0.000 C 
ATOM     35  O   UNL     1      10.435  15.721  18.454  0.00  0.00    +0.000 OA
ENDBRANCH  28  35
BRANCH  33  36
ATOM     36  O   UNL     1       8.521  13.938  19.752  0.00  0.00    +0.000 OA
ATOM     37  H   UNL     1       8.863  14.790  20.092  0.00  0.00    +0.000 HD
ENDBRANCH  33  36
ENDBRANCH  27  32
ENDBRANCH  25  27
ENDBRANCH   1  25
TORSDOF 9
ENDMDL
MODEL 5
REMARK VINA RESULT:      -8.0      0.794      1.296
REMARK  Name = 
REMARK  10 active torsions:
REMARK  status: ('A' for Active; 'I' for Inactive)
REMARK    1  A    between atoms: C_1  and  O_2
REMARK    2  A    between atoms: O_2  and  C_3
REMARK    3  A    between atoms: C_7  and  C_8
REMARK    4  A    between atoms: C_8  and  N_9
REMARK    5  A    between atoms: N_9  and  C_10
REMARK    6  A    between atoms: C_13  and  S_14
REMARK    7  A    between atoms: S_14  and  N_17
REMARK    8  A    between atoms: N_17  and  C_18
REMARK    9  A    between atoms: C_22  and  C_23
REMARK   10  A    between atoms: C_32  and  O_33
REMARK                            x       y       z     vdW  Elec       q    Type
REMARK                         _______ _______ _______ _____ _____    ______ ____
ROOT
ATOM      1  C   UNL     1       2.831   6.000  18.306  0.00  0.00    +0.000 A 
ATOM      2  C   UNL     1       2.679   7.366  18.050  0.00  0.00    +0.000 A 
ATOM      3  C   UNL     1       2.138   8.215  19.000  0.00  0.00    +0.000 A 
ATOM      4  C   UNL     1       1.670   7.703  20.205  0.00  0.00    +0.000 A 
ATOM      5  C   UNL     1       1.780   6.338  20.488  0.00  0.00    +0.000 A 
ATOM      6  C   UNL     1       2.329   5.487  19.514  0.00  0.00    +0.000 A 
ENDROOT
BRANCH   4   7
ATOM      7  S   UNL     1       0.874   8.842  21.314  0.00  0.00    +0.000 S 
ATOM      8  O   UNL     1      -0.485   8.408  21.471  0.00  0.00    +0.000 OA
ATOM      9  O   UNL     1       1.759   9.006  22.459  0.00  0.00    +0.000 OA
BRANCH   7  10
ATOM     10  N   UNL     1       0.861  10.307  20.441  0.00  0.00    +0.000 N 
ATOM     11  H   UNL     1       1.409  11.014  20.929  0.00  0.00    +0.000 HD
BRANCH  10  12
ATOM     12  C   UNL     1      -0.390  10.741  19.914  0.00  0.00    +0.000 A 
ATOM     13  C   UNL     1      -0.800  10.267  18.668  0.00  0.00    +0.000 A 
ATOM     14  C   UNL     1      -1.945  10.777  18.078  0.00  0.00    +0.000 A 
ATOM     15  C   UNL     1      -2.695  11.747  18.730  0.00  0.00    +0.000 A 
ATOM     16  C   UNL     1      -2.317  12.244  19.985  0.00  0.00    +0.000 A 
ATOM     17  C   UNL     1      -1.147  11.723  20.563  0.00  0.00    +0.000 A 
BRANCH  16  18
ATOM     18  C   UNL     1      -3.105  13.336  20.706  0.00  0.00    +0.000 C 
ATOM     19  C   UNL     1      -2.224  14.422  21.346  0.00  0.00    +0.000 C 
ATOM     20  C   UNL     1      -1.629  14.015  22.694  0.00  0.00    +0.000 C 
ATOM     21  N   UNL     1      -2.622  13.494  23.633  0.00  0.00    +0.000 NA
ATOM     22  C   UNL     1      -3.463  12.431  23.080  0.00  0.00    +0.000 C 
ATOM     23  C   UNL     1      -4.105  12.802  21.742  0.00  0.00    +0.000 C 
ATOM     24  H   UNL     1      -3.222  14.262  23.932  0.00  0.00    +0.000 HD
ENDBRANCH  16  18
ENDBRANCH  10  12
ENDBRANCH   7  10
ENDBRANCH   4   7
BRANCH   1  25
ATOM     25  N   UNL     1       3.376   5.141  17.346  0.00  0.00    +0.000 N 
ATOM     26  H   UNL     1       2.660   4.549  16.933  0.00  0.00    +0.000 HD
BRANCH  25  27
ATOM     27  C   UNL     1       4.528   4.313  17.748  0.00  0.00    +0.000 C 
BRANCH  27  32
ATOM     28  C   UNL     1       7.324   6.962  17.633  0.00  0.00    +0.000 A 
ATOM     29  C   UNL     1       7.972   6.672  18.838  0.00  0.00    +0.000 A 
ATOM     30  C   UNL     1       7.533   5.633  19.658  0.00  0.00    +0.000 A 
ATOM     31  C   UNL     1       6.422   4.878  19.290  0.00  0.00    +0.000 A 
ATOM     32  C   UNL     1       5.728   5.164  18.102  0.00  0.00    +0.000 A 
ATOM     33  C   UNL     1       6.213   6.195  17.270  0.00  0.00    +0.000 A 
BRANCH  28  35
ATOM     34  C   UNL     1       8.178   9.199  17.693  0.00  0.00    +0.000 C 
ATOM     35  O   UNL     1       7.869   8.023  16.954  0.00  0.00    +0.000 OA
ENDBRANCH  28  35
BRANCH  33  36
ATOM     36  O   UNL     1       5.552   6.464  16.100  0.00  0.00    +0.000 OA
ATOM     37  H   UNL     1       6.105   7.140  15.657  0.00  0.00    +0.000 HD
ENDBRANCH  33  36
ENDBRANCH  27  32
ENDBRANCH  25  27
ENDBRANCH   1  25
TORSDOF 9
ENDMDL
MODEL 6
REMARK VINA RESULT:      -8.0      2.612      3.514
REMARK  Name = 
REMARK  10 active torsions:
REMARK  status: ('A' for Active; 'I' for Inactive)
REMARK    1  A    between atoms: C_1  and  O_2
REMARK    2  A    between atoms: O_2  and  C_3
REMARK    3  A    between atoms: C_7  and  C_8
REMARK    4  A    between atoms: C_8  and  N_9
REMARK    5  A    between atoms: N_9  and  C_10
REMARK    6  A    between atoms: C_13  and  S_14
REMARK    7  A    between atoms: S_14  and  N_17
REMARK    8  A    between atoms: N_17  and  C_18
REMARK    9  A    between atoms: C_22  and  C_23
REMARK   10  A    between atoms: C_32  and  O_33
REMARK                            x       y       z     vdW  Elec       q    Type
REMARK                         _______ _______ _______ _____ _____    ______ ____
ROOT
ATOM      1  C   UNL     1       1.781   7.660  20.400  0.00  0.00    +0.000 A 
ATOM      2  C   UNL     1       1.118   8.088  21.554  0.00  0.00    +0.000 A 
ATOM      3  C   UNL     1       0.461   9.306  21.591  0.00  0.00    +0.000 A 
ATOM      4  C   UNL     1       0.511  10.156  20.492  0.00  0.00    +0.000 A 
ATOM      5  C   UNL     1       1.186   9.776  19.328  0.00  0.00    +0.000 A 
ATOM      6  C   UNL     1       1.851   8.540  19.306  0.00  0.00    +0.000 A 
ENDROOT
BRANCH   4   7
ATOM      7  S   UNL     1      -0.251  11.753  20.669  0.00  0.00    +0.000 S 
ATOM      8  O   UNL     1      -1.377  11.596  21.544  0.00  0.00    +0.000 OA
ATOM      9  O   UNL     1       0.815  12.701  20.961  0.00  0.00    +0.000 OA
BRANCH   7  10
ATOM     10  N   UNL     1      -0.843  12.089  19.105  0.00  0.00    +0.000 N 
ATOM     11  H   UNL     1      -0.748  13.082  18.897  0.00  0.00    +0.000 HD
BRANCH  10  12
ATOM     12  C   UNL     1      -2.082  11.489  18.734  0.00  0.00    +0.000 A 
ATOM     13  C   UNL     1      -2.067  10.320  17.976  0.00  0.00    +0.000 A 
ATOM     14  C   UNL     1      -3.255   9.795  17.492  0.00  0.00    +0.000 A 
ATOM     15  C   UNL     1      -4.461  10.422  17.773  0.00  0.00    +0.000 A 
ATOM     16  C   UNL     1      -4.516  11.596  18.537  0.00  0.00    +0.000 A 
ATOM     17  C   UNL     1      -3.301  12.119  19.009  0.00  0.00    +0.000 A 
BRANCH  16  18
ATOM     18  C   UNL     1      -5.828  12.323  18.829  0.00  0.00    +0.000 C 
ATOM     19  C   UNL     1      -5.775  13.231  20.070  0.00  0.00    +0.000 C 
ATOM     20  C   UNL     1      -5.941  12.478  21.389  0.00  0.00    +0.000 C 
ATOM     21  N   UNL     1      -7.107  11.593  21.410  0.00  0.00    +0.000 NA
ATOM     22  C   UNL     1      -7.182  10.684  20.265  0.00  0.00    +0.000 C 
ATOM     23  C   UNL     1      -7.048  11.394  18.918  0.00  0.00    +0.000 C 
ATOM     24  H   UNL     1      -7.950  12.166  21.427  0.00  0.00    +0.000 HD
ENDBRANCH  16  18
ENDBRANCH  10  12
ENDBRANCH   7  10
ENDBRANCH   4   7
BRANCH   1  25
ATOM     25  N   UNL     1       2.447   6.431  20.363  0.00  0.00    +0.000 N 
ATOM     26  H   UNL     1       3.195   6.438  19.674  0.00  0.00    +0.000 HD
BRANCH  25  27
ATOM     27  C   UNL     1       1.628   5.217  20.190  0.00  0.00    +0.000 C 
BRANCH  27  32
ATOM     28  C   UNL     1       3.701   3.572  17.388  0.00  0.00    +0.000 A 
ATOM     29  C   UNL     1       3.565   2.229  17.754  0.00  0.00    +0.000 A 
ATOM     30  C   UNL     1       2.805   1.859  18.863  0.00  0.00    +0.000 A 
ATOM     31  C   UNL     1       2.183   2.836  19.637  0.00  0.00    +0.000 A 
ATOM     32  C   UNL     1       2.325   4.196  19.317  0.00  0.00    +0.000 A 
ATOM     33  C   UNL     1       3.067   4.544  18.168  0.00  0.00    +0.000 A 
BRANCH  28  35
ATOM     34  C   UNL     1       5.834   4.197  16.495  0.00  0.00    +0.000 C 
ATOM     35  O   UNL     1       4.493   3.767  16.285  0.00  0.00    +0.000 OA
ENDBRANCH  28  35
BRANCH  33  36
ATOM     36  O   UNL     1       3.192   5.869  17.840  0.00  0.00    +0.000 OA
ATOM     37  H   UNL     1       4.009   6.158  18.295  0.00  0.00    +0.000 HD
ENDBRANCH  33  36
ENDBRANCH  27  32
ENDBRANCH  25  27
ENDBRANCH   1  25
TORSDOF 9
ENDMDL
MODEL 7
REMARK VINA RESULT:      -7.9      2.212      2.950
REMARK  Name = 
REMARK  10 active torsions:
REMARK  status: ('A' for Active; 'I' for Inactive)
REMARK    1  A    between atoms: C_1  and  O_2
REMARK    2  A    between atoms: O_2  and  C_3
REMARK    3  A    between atoms: C_7  and  C_8
REMARK    4  A    between atoms: C_8  and  N_9
REMARK    5  A    between atoms: N_9  and  C_10
REMARK    6  A    between atoms: C_13  and  S_14
REMARK    7  A    between atoms: S_14  and  N_17
REMARK    8  A    between atoms: N_17  and  C_18
REMARK    9  A    between atoms: C_22  and  C_23
REMARK   10  A    between atoms: C_32  and  O_33
REMARK                            x       y       z     vdW  Elec       q    Type
REMARK                         _______ _______ _______ _____ _____    ______ ____
ROOT
ATOM      1  C   UNL     1       2.438   6.755  19.205  0.00  0.00    +0.000 A 
ATOM      2  C   UNL     1       1.879   7.168  20.418  0.00  0.00    +0.000 A 
ATOM      3  C   UNL     1       1.321   8.427  20.556  0.00  0.00    +0.000 A 
ATOM      4  C   UNL     1       1.372   9.329  19.500  0.00  0.00    +0.000 A 
ATOM      5  C   UNL     1       1.947   8.964  18.278  0.00  0.00    +0.000 A 
ATOM      6  C   UNL     1       2.512   7.684  18.153  0.00  0.00    +0.000 A 
ENDROOT
BRANCH   4   7
ATOM      7  S   UNL     1       0.747  10.966  19.803  0.00  0.00    +0.000 S 
ATOM      8  O   UNL     1       1.383  11.454  20.993  0.00  0.00    +0.000 OA
ATOM      9  O   UNL     1       0.829  11.691  18.542  0.00  0.00    +0.000 OA
BRANCH   7  10
ATOM     10  N   UNL     1      -0.901  10.706  20.157  0.00  0.00    +0.000 N 
ATOM     11  H   UNL     1      -1.003   9.936  20.816  0.00  0.00    +0.000 HD
BRANCH  10  12
ATOM     12  C   UNL     1      -1.812  10.714  19.060  0.00  0.00    +0.000 A 
ATOM     13  C   UNL     1      -1.435  10.107  17.863  0.00  0.00    +0.000 A 
ATOM     14  C   UNL     1      -2.247  10.220  16.746  0.00  0.00    +0.000 A 
ATOM     15  C   UNL     1      -3.443  10.922  16.819  0.00  0.00    +0.000 A 
ATOM     16  C   UNL     1      -3.858  11.540  18.007  0.00  0.00    +0.000 A 
ATOM     17  C   UNL     1      -3.015  11.425  19.126  0.00  0.00    +0.000 A 
BRANCH  16  18
ATOM     18  C   UNL     1      -5.151  12.348  18.103  0.00  0.00    +0.000 C 
ATOM     19  C   UNL     1      -5.362  13.028  19.466  0.00  0.00    +0.000 C 
ATOM     20  C   UNL     1      -5.912  12.091  20.542  0.00  0.00    +0.000 C 
ATOM     21  N   UNL     1      -7.097  11.347  20.114  0.00  0.00    +0.000 NA
ATOM     22  C   UNL     1      -6.931  10.652  18.836  0.00  0.00    +0.000 C 
ATOM     23  C   UNL     1      -6.410  11.555  17.718  0.00  0.00    +0.000 C 
ATOM     24  H   UNL     1      -7.878  11.997  20.032  0.00  0.00    +0.000 HD
ENDBRANCH  16  18
ENDBRANCH  10  12
ENDBRANCH   7  10
ENDBRANCH   4   7
BRANCH   1  25
ATOM     25  N   UNL     1       3.004   5.484  19.066  0.00  0.00    +0.000 N 
ATOM     26  H   UNL     1       2.449   4.779  19.544  0.00  0.00    +0.000 HD
BRANCH  25  27
ATOM     27  C   UNL     1       4.423   5.326  19.435  0.00  0.00    +0.000 C 
BRANCH  27  32
ATOM     28  C   UNL     1       6.022   4.323  16.075  0.00  0.00    +0.000 A 
ATOM     29  C   UNL     1       7.030   5.290  15.997  0.00  0.00    +0.000 A 
ATOM     30  C   UNL     1       7.205   6.229  17.012  0.00  0.00    +0.000 A 
ATOM     31  C   UNL     1       6.357   6.225  18.118  0.00  0.00    +0.000 A 
ATOM     32  C   UNL     1       5.315   5.288  18.213  0.00  0.00    +0.000 A 
ATOM     33  C   UNL     1       5.181   4.324  17.192  0.00  0.00    +0.000 A 
BRANCH  28  35
ATOM     34  C   UNL     1       6.367   4.012  13.725  0.00  0.00    +0.000 C 
ATOM     35  O   UNL     1       5.973   3.487  14.989  0.00  0.00    +0.000 OA
ENDBRANCH  28  35
BRANCH  33  36
ATOM     36  O   UNL     1       4.178   3.395  17.290  0.00  0.00    +0.000 OA
ATOM     37  H   UNL     1       3.699   3.637  18.108  0.00  0.00    +0.000 HD
ENDBRANCH  33  36
ENDBRANCH  27  32
ENDBRANCH  25  27
ENDBRANCH   1  25
TORSDOF 9
ENDMDL
MODEL 8
REMARK VINA RESULT:      -7.8      3.083      4.130
REMARK  Name = 
REMARK  10 active torsions:
REMARK  status: ('A' for Active; 'I' for Inactive)
REMARK    1  A    between atoms: C_1  and  O_2
REMARK    2  A    between atoms: O_2  and  C_3
REMARK    3  A    between atoms: C_7  and  C_8
REMARK    4  A    between atoms: C_8  and  N_9
REMARK    5  A    between atoms: N_9  and  C_10
REMARK    6  A    between atoms: C_13  and  S_14
REMARK    7  A    between atoms: S_14  and  N_17
REMARK    8  A    between atoms: N_17  and  C_18
REMARK    9  A    between atoms: C_22  and  C_23
REMARK   10  A    between atoms: C_32  and  O_33
REMARK                            x       y       z     vdW  Elec       q    Type
REMARK                         _______ _______ _______ _____ _____    ______ ____
ROOT
ATOM      1  C   UNL     1       1.472   8.635  20.686  0.00  0.00    +0.000 A 
ATOM      2  C   UNL     1       1.602   9.064  19.361  0.00  0.00    +0.000 A 
ATOM      3  C   UNL     1       1.173  10.321  18.972  0.00  0.00    +0.000 A 
ATOM      4  C   UNL     1       0.540  11.154  19.886  0.00  0.00    +0.000 A 
ATOM      5  C   UNL     1       0.366  10.751  21.214  0.00  0.00    +0.000 A 
ATOM      6  C   UNL     1       0.803   9.472  21.595  0.00  0.00    +0.000 A 
ENDROOT
BRANCH   4   7
ATOM      7  S   UNL     1      -0.093  12.698  19.272  0.00  0.00    +0.000 S 
ATOM      8  O   UNL     1      -1.107  13.139  20.186  0.00  0.00    +0.000 OA
ATOM      9  O   UNL     1       1.058  13.530  18.951  0.00  0.00    +0.000 OA
BRANCH   7  10
ATOM     10  N   UNL     1      -0.856  12.264  17.810  0.00  0.00    +0.000 N 
ATOM     11  H   UNL     1      -0.865  13.055  17.168  0.00  0.00    +0.000 HD
BRANCH  10  12
ATOM     12  C   UNL     1      -2.069  11.521  17.903  0.00  0.00    +0.000 A 
ATOM     13  C   UNL     1      -2.072  10.180  17.524  0.00  0.00    +0.000 A 
ATOM     14  C   UNL     1      -3.265   9.477  17.479  0.00  0.00    +0.000 A 
ATOM     15  C   UNL     1      -4.457  10.100  17.824  0.00  0.00    +0.000 A 
ATOM     16  C   UNL     1      -4.492  11.446  18.215  0.00  0.00    +0.000 A 
ATOM     17  C   UNL     1      -3.274  12.145  18.244  0.00  0.00    +0.000 A 
BRANCH  16  18
ATOM     18  C   UNL     1      -5.795  12.164  18.565  0.00  0.00    +0.000 C 
ATOM     19  C   UNL     1      -5.688  13.090  19.789  0.00  0.00    +0.000 C 
ATOM     20  C   UNL     1      -5.777  12.355  21.125  0.00  0.00    +0.000 C 
ATOM     21  N   UNL     1      -6.929  11.458  21.220  0.00  0.00    +0.000 NA
ATOM     22  C   UNL     1      -7.054  10.531  20.093  0.00  0.00    +0.000 C 
ATOM     23  C   UNL     1      -6.999  11.223  18.731  0.00  0.00    +0.000 C 
ATOM     24  H   UNL     1      -7.777  12.022  21.273  0.00  0.00    +0.000 HD
ENDBRANCH  16  18
ENDBRANCH  10  12
ENDBRANCH   7  10
ENDBRANCH   4   7
BRANCH   1  25
ATOM     25  N   UNL     1       1.902   7.364  21.080  0.00  0.00    +0.000 N 
ATOM     26  H   UNL     1       2.870   7.204  20.812  0.00  0.00    +0.000 HD
BRANCH  25  27
ATOM     27  C   UNL     1       1.081   6.210  20.670  0.00  0.00    +0.000 C 
BRANCH  27  32
ATOM     28  C   UNL     1       3.785   3.841  19.280  0.00  0.00    +0.000 A 
ATOM     29  C   UNL     1       3.441   2.668  19.960  0.00  0.00    +0.000 A 
ATOM     30  C   UNL     1       2.351   2.634  20.829  0.00  0.00    +0.000 A 
ATOM     31  C   UNL     1       1.596   3.785  21.044  0.00  0.00    +0.000 A 
ATOM     32  C   UNL     1       1.934   4.988  20.402  0.00  0.00    +0.000 A 
ATOM     33  C   UNL     1       3.017   4.989  19.499  0.00  0.00    +0.000 A 
BRANCH  28  35
ATOM     34  C   UNL     1       4.689   3.636  17.071  0.00  0.00    +0.000 C 
ATOM     35  O   UNL     1       4.890   3.711  18.479  0.00  0.00    +0.000 OA
ENDBRANCH  28  35
BRANCH  33  36
ATOM     36  O   UNL     1       3.338   6.155  18.854  0.00  0.00    +0.000 OA
ATOM     37  H   UNL     1       2.604   6.295  18.222  0.00  0.00    +0.000 HD
ENDBRANCH  33  36
ENDBRANCH  27  32
ENDBRANCH  25  27
ENDBRANCH   1  25
TORSDOF 9
ENDMDL
MODEL 9
REMARK VINA RESULT:      -7.8      2.993      4.418
REMARK  Name = 
REMARK  10 active torsions:
REMARK  status: ('A' for Active; 'I' for Inactive)
REMARK    1  A    between atoms: C_1  and  O_2
REMARK    2  A    between atoms: O_2  and  C_3
REMARK    3  A    between atoms: C_7  and  C_8
REMARK    4  A    between atoms: C_8  and  N_9
REMARK    5  A    between atoms: N_9  and  C_10
REMARK    6  A    between atoms: C_13  and  S_14
REMARK    7  A    between atoms: S_14  and  N_17
REMARK    8  A    between atoms: N_17  and  C_18
REMARK    9  A    between atoms: C_22  and  C_23
REMARK   10  A    between atoms: C_32  and  O_33
REMARK                            x       y       z     vdW  Elec       q    Type
REMARK                         _______ _______ _______ _____ _____    ______ ____
ROOT
ATOM      1  C   UNL     1       1.053   9.098  21.396  0.00  0.00    +0.000 A 
ATOM      2  C   UNL     1       1.134  10.367  20.814  0.00  0.00    +0.000 A 
ATOM      3  C   UNL     1       0.375  11.422  21.290  0.00  0.00    +0.000 A 
ATOM      4  C   UNL     1      -0.536  11.214  22.319  0.00  0.00    +0.000 A 
ATOM      5  C   UNL     1      -0.666   9.953  22.911  0.00  0.00    +0.000 A 
ATOM      6  C   UNL     1       0.107   8.891  22.415  0.00  0.00    +0.000 A 
ENDROOT
BRANCH   4   7
ATOM      7  S   UNL     1      -1.560  12.591  22.784  0.00  0.00    +0.000 S 
ATOM      8  O   UNL     1      -2.799  12.058  23.272  0.00  0.00    +0.000 OA
ATOM      9  O   UNL     1      -0.737  13.475  23.599  0.00  0.00    +0.000 OA
BRANCH   7  10
ATOM     10  N   UNL     1      -1.872  13.376  21.302  0.00  0.00    +0.000 N 
ATOM     11  H   UNL     1      -1.985  14.377  21.450  0.00  0.00    +0.000 HD
BRANCH  10  12
ATOM     12  C   UNL     1      -2.814  12.763  20.426  0.00  0.00    +0.000 A 
ATOM     13  C   UNL     1      -2.347  12.038  19.331  0.00  0.00    +0.000 A 
ATOM     14  C   UNL     1      -3.244  11.549  18.394  0.00  0.00    +0.000 A 
ATOM     15  C   UNL     1      -4.606  11.765  18.551  0.00  0.00    +0.000 A 
ATOM     16  C   UNL     1      -5.113  12.484  19.642  0.00  0.00    +0.000 A 
ATOM     17  C   UNL     1      -4.188  12.982  20.575  0.00  0.00    +0.000 A 
BRANCH  16  18
ATOM     18  C   UNL     1      -6.604  12.766  19.817  0.00  0.00    +0.000 C 
ATOM     19  C   UNL     1      -6.967  13.386  21.177  0.00  0.00    +0.000 C 
ATOM     20  C   UNL     1      -7.064  12.366  22.311  0.00  0.00    +0.000 C 
ATOM     21  N   UNL     1      -7.915  11.220  21.990  0.00  0.00    +0.000 NA
ATOM     22  C   UNL     1      -7.585  10.573  20.719  0.00  0.00    +0.000 C 
ATOM     23  C   UNL     1      -7.503  11.549  19.545  0.00  0.00    +0.000 C 
ATOM     24  H   UNL     1      -8.885  11.534  21.953  0.00  0.00    +0.000 HD
ENDBRANCH  16  18
ENDBRANCH  10  12
ENDBRANCH   7  10
ENDBRANCH   4   7
BRANCH   1  25
ATOM     25  N   UNL     1       1.817   8.031  20.913  0.00  0.00    +0.000 N 
ATOM     26  H   UNL     1       2.757   8.046  21.302  0.00  0.00    +0.000 HD
BRANCH  25  27
ATOM     27  C   UNL     1       1.892   7.854  19.451  0.00  0.00    +0.000 C 
BRANCH  27  32
ATOM     28  C   UNL     1       3.261   4.252  19.356  0.00  0.00    +0.000 A 
ATOM     29  C   UNL     1       4.205   4.388  18.334  0.00  0.00    +0.000 A 
ATOM     30  C   UNL     1       4.413   5.614  17.704  0.00  0.00    +0.000 A 
ATOM     31  C   UNL     1       3.661   6.725  18.080  0.00  0.00    +0.000 A 
ATOM     32  C   UNL     1       2.681   6.617  19.081  0.00  0.00    +0.000 A 
ATOM     33  C   UNL     1       2.515   5.375  19.729  0.00  0.00    +0.000 A 
BRANCH  28  35
ATOM     34  C   UNL     1       4.361   2.209  19.948  0.00  0.00    +0.000 C 
ATOM     35  O   UNL     1       3.167   2.979  19.857  0.00  0.00    +0.000 OA
ENDBRANCH  28  35
BRANCH  33  36
ATOM     36  O   UNL     1       1.575   5.269  20.721  0.00  0.00    +0.000 OA
ATOM     37  H   UNL     1       2.095   5.123  21.537  0.00  0.00    +0.000 HD
ENDBRANCH  33  36
ENDBRANCH  27  32
ENDBRANCH  25  27
ENDBRANCH   1  25
TORSDOF 9
ENDMDL
