MODEL 1
REMARK VINA RESULT:      -6.9      0.000      0.000
REMARK  Name = 
REMARK  10 active torsions:
REMARK  status: ('A' for Active; 'I' for Inactive)
REMARK    1  A    between atoms: C_1  and  O_2
REMARK    2  A    between atoms: O_2  and  C_3
REMARK    3  A    between atoms: C_6  and  C_7
REMARK    4  A    between atoms: N_9  and  C_10
REMARK    5  A    between atoms: N_9  and  S_18
REMARK    6  A    between atoms: C_13  and  O_14
REMARK    7  A    between atoms: O_14  and  C_15
REMARK    8  A    between atoms: S_18  and  C_21
REMARK    9  A    between atoms: N_27  and  C_28
REMARK   10  A    between atoms: N_31  and  C_32
REMARK                            x       y       z     vdW  Elec       q    Type
REMARK                         _______ _______ _______ _____ _____    ______ ____
ROOT
ATOM      1  C   UNL     1      -1.710  10.784  19.180  0.00  0.00    +0.000 C 
ATOM      2  O   UNL     1      -1.701   9.567  19.238  0.00  0.00    +0.000 OA
ATOM      3  N   UNL     1      -0.585  11.553  19.628  0.00  0.00    +0.000 N 
ENDROOT
BRANCH   1   7
ATOM      4  C   UNL     1      -5.400  12.220  17.418  0.00  0.00    +0.000 A 
ATOM      5  C   UNL     1      -4.395  11.640  16.650  0.00  0.00    +0.000 A 
ATOM      6  C   UNL     1      -3.200  11.221  17.248  0.00  0.00    +0.000 A 
ATOM      7  C   UNL     1      -2.968  11.406  18.624  0.00  0.00    +0.000 A 
ATOM      8  C   UNL     1      -3.935  12.110  19.349  0.00  0.00    +0.000 A 
ATOM      9  C   UNL     1      -5.158  12.474  18.764  0.00  0.00    +0.000 A 
BRANCH   4  11
ATOM     10  C   UNL     1      -7.299  13.624  17.311  0.00  0.00    +0.000 C 
ATOM     11  O   UNL     1      -6.542  12.557  16.747  0.00  0.00    +0.000 OA
ENDBRANCH   4  11
ENDBRANCH   1   7
BRANCH   3  12
ATOM     12  C   UNL     1      -0.656  12.982  19.753  0.00  0.00    +0.000 A 
ATOM     13  C   UNL     1      -0.229  13.752  18.667  0.00  0.00    +0.000 A 
ATOM     14  C   UNL     1      -0.381  15.138  18.687  0.00  0.00    +0.000 A 
ATOM     15  C   UNL     1      -0.978  15.765  19.782  0.00  0.00    +0.000 A 
ATOM     16  C   UNL     1      -1.331  15.012  20.899  0.00  0.00    +0.000 A 
ATOM     17  C   UNL     1      -1.146  13.620  20.899  0.00  0.00    +0.000 A 
BRANCH  15  18
ATOM     18  O   UNL     1      -1.118  17.121  19.656  0.00  0.00    +0.000 OA
ATOM     19  C   UNL     1      -1.010  17.635  18.334  0.00  0.00    +0.000 C 
ENDBRANCH  15  18
ENDBRANCH   3  12
BRANCH   3  20
ATOM     20  S   UNL     1       0.610  10.826  20.633  0.00  0.00    +0.000 S 
ATOM     21  O   UNL     1       1.742  11.724  20.764  0.00  0.00    +0.000 OA
ATOM     22  O   UNL     1      -0.052  10.325  21.811  0.00  0.00    +0.000 OA
BRANCH  20  23
ATOM     23  C   UNL     1       1.229   9.433  19.690  0.00  0.00    +0.000 A 
ATOM     24  C   UNL     1       1.620   9.629  18.344  0.00  0.00    +0.000 A 
ATOM     25  C   UNL     1       2.386   8.662  17.680  0.00  0.00    +0.000 A 
ATOM     26  C   UNL     1       2.740   7.547  18.409  0.00  0.00    +0.000 A 
ATOM     27  C   UNL     1       2.192   7.276  19.665  0.00  0.00    +0.000 A 
ATOM     28  C   UNL     1       1.428   8.207  20.344  0.00  0.00    +0.000 A 
ATOM     29  N   UNL     1       2.698   6.029  20.135  0.00  0.00    +0.000 N 
ATOM     30  C   UNL     1       1.796   4.890  19.954  0.00  0.00    +0.000 C 
ATOM     31  C   UNL     1       3.853   5.773  19.317  0.00  0.00    +0.000 A 
ATOM     32  O   UNL     1       4.695   4.910  19.514  0.00  0.00    +0.000 OA
ATOM     33  N   UNL     1       3.702   6.566  18.167  0.00  0.00    +0.000 N 
ATOM     34  C   UNL     1       4.285   6.198  16.920  0.00  0.00    +0.000 C 
ENDBRANCH  20  23
ENDBRANCH   3  20
TORSDOF 6
ENDMDL
MODEL 2
REMARK VINA RESULT:      -6.7      3.130      8.391
REMARK  Name = 
REMARK  10 active torsions:
REMARK  status: ('A' for Active; 'I' for Inactive)
REMARK    1  A    between atoms: C_1  and  O_2
REMARK    2  A    between atoms: O_2  and  C_3
REMARK    3  A    between atoms: C_6  and  C_7
REMARK    4  A    between atoms: N_9  and  C_10
REMARK    5  A    between atoms: N_9  and  S_18
REMARK    6  A    between atoms: C_13  and  O_14
REMARK    7  A    between atoms: O_14  and  C_15
REMARK    8  A    between atoms: S_18  and  C_21
REMARK    9  A    between atoms: N_27  and  C_28
REMARK   10  A    between atoms: N_31  and  C_32
REMARK                            x       y       z     vdW  Elec       q    Type
REMARK                         _______ _______ _______ _____ _____    ______ ____
ROOT
ATOM      1  C   UNL     1       0.011  12.929  18.630  0.00  0.00    +0.000 C 
ATOM      2  O   UNL     1      -0.761  13.848  18.424  0.00  0.00    +0.000 OA
ATOM      3  N   UNL     1      -0.384  11.569  18.403  0.00  0.00    +0.000 N 
ENDROOT
BRANCH   1   7
ATOM      4  C   UNL     1       3.913  14.361  19.857  0.00  0.00    +0.000 A 
ATOM      5  C   UNL     1       3.601  14.130  18.521  0.00  0.00    +0.000 A 
ATOM      6  C   UNL     1       2.342  13.632  18.164  0.00  0.00    +0.000 A 
ATOM      7  C   UNL     1       1.377  13.319  19.140  0.00  0.00    +0.000 A 
ATOM      8  C   UNL     1       1.760  13.432  20.480  0.00  0.00    +0.000 A 
ATOM      9  C   UNL     1       2.998  13.991  20.837  0.00  0.00    +0.000 A 
BRANCH   4  11
ATOM     10  C   UNL     1       5.584  15.891  19.183  0.00  0.00    +0.000 C 
ATOM     11  O   UNL     1       5.151  14.887  20.096  0.00  0.00    +0.000 OA
ENDBRANCH   4  11
ENDBRANCH   1   7
BRANCH   3  12
ATOM     12  C   UNL     1       0.437  10.469  18.828  0.00  0.00    +0.000 A 
ATOM     13  C   UNL     1       0.340  10.063  20.162  0.00  0.00    +0.000 A 
ATOM     14  C   UNL     1       1.025   8.931  20.603  0.00  0.00    +0.000 A 
ATOM     15  C   UNL     1       1.797   8.184  19.711  0.00  0.00    +0.000 A 
ATOM     16  C   UNL     1       1.961   8.629  18.401  0.00  0.00    +0.000 A 
ATOM     17  C   UNL     1       1.304   9.790  17.963  0.00  0.00    +0.000 A 
BRANCH  15  18
ATOM     18  O   UNL     1       2.374   7.068  20.253  0.00  0.00    +0.000 OA
ATOM     19  C   UNL     1       2.945   6.153  19.327  0.00  0.00    +0.000 C 
ENDBRANCH  15  18
ENDBRANCH   3  12
BRANCH   3  20
ATOM     20  S   UNL     1      -2.053  11.171  18.247  0.00  0.00    +0.000 S 
ATOM     21  O   UNL     1      -2.575  11.752  17.023  0.00  0.00    +0.000 OA
ATOM     22  O   UNL     1      -2.193   9.758  18.489  0.00  0.00    +0.000 OA
BRANCH  20  23
ATOM     23  C   UNL     1      -2.871  12.060  19.570  0.00  0.00    +0.000 A 
ATOM     24  C   UNL     1      -4.188  12.539  19.370  0.00  0.00    +0.000 A 
ATOM     25  C   UNL     1      -4.964  12.955  20.460  0.00  0.00    +0.000 A 
ATOM     26  C   UNL     1      -4.384  12.853  21.706  0.00  0.00    +0.000 A 
ATOM     27  C   UNL     1      -3.028  12.564  21.873  0.00  0.00    +0.000 A 
ATOM     28  C   UNL     1      -2.234  12.155  20.818  0.00  0.00    +0.000 A 
ATOM     29  N   UNL     1      -2.713  12.591  23.263  0.00  0.00    +0.000 N 
ATOM     30  C   UNL     1      -2.082  13.828  23.728  0.00  0.00    +0.000 C 
ATOM     31  C   UNL     1      -3.987  12.505  23.927  0.00  0.00    +0.000 A 
ATOM     32  O   UNL     1      -4.162  12.299  25.117  0.00  0.00    +0.000 OA
ATOM     33  N   UNL     1      -4.948  12.899  22.981  0.00  0.00    +0.000 N 
ATOM     34  C   UNL     1      -6.189  13.482  23.372  0.00  0.00    +0.000 C 
ENDBRANCH  20  23
ENDBRANCH   3  20
TORSDOF 6
ENDMDL
MODEL 3
REMARK VINA RESULT:      -6.7      2.818      7.928
REMARK  Name = 
REMARK  10 active torsions:
REMARK  status: ('A' for Active; 'I' for Inactive)
REMARK    1  A    between atoms: C_1  and  O_2
REMARK    2  A    between atoms: O_2  and  C_3
REMARK    3  A    between atoms: C_6  and  C_7
REMARK    4  A    between atoms: N_9  and  C_10
REMARK    5  A    between atoms: N_9  and  S_18
REMARK    6  A    between atoms: C_13  and  O_14
REMARK    7  A    between atoms: O_14  and  C_15
REMARK    8  A    between atoms: S_18  and  C_21
REMARK    9  A    between atoms: N_27  and  C_28
REMARK   10  A    between atoms: N_31  and  C_32
REMARK                            x       y       z     vdW  Elec       q    Type
REMARK                         _______ _______ _______ _____ _____    ______ ____
ROOT
ATOM      1  C   UNL     1       0.510  11.219  20.357  0.00  0.00    +0.000 C 
ATOM      2  O   UNL     1       1.111  11.641  21.329  0.00  0.00    +0.000 OA
ATOM      3  N   UNL     1      -0.648  11.898  19.852  0.00  0.00    +0.000 N 
ENDROOT
BRANCH   1   7
ATOM      4  C   UNL     1       2.387   7.790  18.485  0.00  0.00    +0.000 A 
ATOM      5  C   UNL     1       2.127   8.962  17.781  0.00  0.00    +0.000 A 
ATOM      6  C   UNL     1       1.485  10.037  18.409  0.00  0.00    +0.000 A 
ATOM      7  C   UNL     1       1.056   9.951  19.747  0.00  0.00    +0.000 A 
ATOM      8  C   UNL     1       1.208   8.719  20.391  0.00  0.00    +0.000 A 
ATOM      9  C   UNL     1       1.908   7.663  19.784  0.00  0.00    +0.000 A 
BRANCH   4  11
ATOM     10  C   UNL     1       3.563   5.742  18.577  0.00  0.00    +0.000 C 
ATOM     11  O   UNL     1       3.054   6.818  17.794  0.00  0.00    +0.000 OA
ENDBRANCH   4  11
ENDBRANCH   1   7
BRANCH   3  12
ATOM     12  C   UNL     1      -1.481  11.310  18.840  0.00  0.00    +0.000 A 
ATOM     13  C   UNL     1      -1.543  11.948  17.598  0.00  0.00    +0.000 A 
ATOM     14  C   UNL     1      -2.243  11.363  16.543  0.00  0.00    +0.000 A 
ATOM     15  C   UNL     1      -2.870  10.127  16.715  0.00  0.00    +0.000 A 
ATOM     16  C   UNL     1      -2.879   9.527  17.971  0.00  0.00    +0.000 A 
ATOM     17  C   UNL     1      -2.207  10.131  19.046  0.00  0.00    +0.000 A 
BRANCH  15  18
ATOM     18  O   UNL     1      -3.476   9.635  15.590  0.00  0.00    +0.000 OA
ATOM     19  C   UNL     1      -3.017  10.169  14.355  0.00  0.00    +0.000 C 
ENDBRANCH  15  18
ENDBRANCH   3  12
BRANCH   3  20
ATOM     20  S   UNL     1      -1.459  13.061  20.831  0.00  0.00    +0.000 S 
ATOM     21  O   UNL     1      -2.709  13.438  20.197  0.00  0.00    +0.000 OA
ATOM     22  O   UNL     1      -1.459  12.572  22.186  0.00  0.00    +0.000 OA
BRANCH  20  23
ATOM     23  C   UNL     1      -0.437  14.531  20.755  0.00  0.00    +0.000 A 
ATOM     24  C   UNL     1       0.047  15.099  21.957  0.00  0.00    +0.000 A 
ATOM     25  C   UNL     1       1.084  16.042  21.929  0.00  0.00    +0.000 A 
ATOM     26  C   UNL     1       1.598  16.356  20.690  0.00  0.00    +0.000 A 
ATOM     27  C   UNL     1       0.989  15.939  19.504  0.00  0.00    +0.000 A 
ATOM     28  C   UNL     1      -0.037  15.014  19.498  0.00  0.00    +0.000 A 
ATOM     29  N   UNL     1       1.711  16.472  18.397  0.00  0.00    +0.000 N 
ATOM     30  C   UNL     1       1.119  17.668  17.794  0.00  0.00    +0.000 C 
ATOM     31  C   UNL     1       2.978  16.874  18.946  0.00  0.00    +0.000 A 
ATOM     32  O   UNL     1       3.967  17.198  18.307  0.00  0.00    +0.000 OA
ATOM     33  N   UNL     1       2.780  17.005  20.331  0.00  0.00    +0.000 N 
ATOM     34  C   UNL     1       3.568  17.893  21.120  0.00  0.00    +0.000 C 
ENDBRANCH  20  23
ENDBRANCH   3  20
TORSDOF 6
ENDMDL
MODEL 4
REMARK VINA RESULT:      -6.7      2.292      4.652
REMARK  Name = 
REMARK  10 active torsions:
REMARK  status: ('A' for Active; 'I' for Inactive)
REMARK    1  A    between atoms: C_1  and  O_2
REMARK    2  A    between atoms: O_2  and  C_3
REMARK    3  A    between atoms: C_6  and  C_7
REMARK    4  A    between atoms: N_9  and  C_10
REMARK    5  A    between atoms: N_9  and  S_18
REMARK    6  A    between atoms: C_13  and  O_14
REMARK    7  A    between atoms: O_14  and  C_15
REMARK    8  A    between atoms: S_18  and  C_21
REMARK    9  A    between atoms: N_27  and  C_28
REMARK   10  A    between atoms: N_31  and  C_32
REMARK                            x       y       z     vdW  Elec       q    Type
REMARK                         _______ _______ _______ _____ _____    ______ ____
ROOT
ATOM      1  C   UNL     1       0.550  10.883  20.665  0.00  0.00    +0.000 C 
ATOM      2  O   UNL     1       1.670  10.809  21.138  0.00  0.00    +0.000 OA
ATOM      3  N   UNL     1       0.211  10.189  19.456  0.00  0.00    +0.000 N 
ENDROOT
BRANCH   1   7
ATOM      4  C   UNL     1      -2.127  13.197  23.168  0.00  0.00    +0.000 A 
ATOM      5  C   UNL     1      -2.115  11.805  23.192  0.00  0.00    +0.000 A 
ATOM      6  C   UNL     1      -1.262  11.090  22.342  0.00  0.00    +0.000 A 
ATOM      7  C   UNL     1      -0.427  11.750  21.422  0.00  0.00    +0.000 A 
ATOM      8  C   UNL     1      -0.554  13.139  21.322  0.00  0.00    +0.000 A 
ATOM      9  C   UNL     1      -1.360  13.861  22.215  0.00  0.00    +0.000 A 
BRANCH   4  11
ATOM     10  C   UNL     1      -4.038  12.997  24.544  0.00  0.00    +0.000 C 
ATOM     11  O   UNL     1      -2.964  13.800  24.064  0.00  0.00    +0.000 OA
ENDBRANCH   4  11
ENDBRANCH   1   7
BRANCH   3  12
ATOM     12  C   UNL     1      -1.034  10.425  18.779  0.00  0.00    +0.000 A 
ATOM     13  C   UNL     1      -1.200  11.654  18.134  0.00  0.00    +0.000 A 
ATOM     14  C   UNL     1      -2.340  11.895  17.367  0.00  0.00    +0.000 A 
ATOM     15  C   UNL     1      -3.312  10.904  17.221  0.00  0.00    +0.000 A 
ATOM     16  C   UNL     1      -3.189   9.709  17.926  0.00  0.00    +0.000 A 
ATOM     17  C   UNL     1      -2.063   9.477  18.731  0.00  0.00    +0.000 A 
BRANCH  15  18
ATOM     18  O   UNL     1      -4.353  11.244  16.400  0.00  0.00    +0.000 OA
ATOM     19  C   UNL     1      -5.364  12.056  16.983  0.00  0.00    +0.000 C 
ENDBRANCH  15  18
ENDBRANCH   3  12
BRANCH   3  20
ATOM     20  S   UNL     1       1.458   9.590  18.428  0.00  0.00    +0.000 S 
ATOM     21  O   UNL     1       0.878   9.149  17.173  0.00  0.00    +0.000 OA
ATOM     22  O   UNL     1       2.528  10.555  18.427  0.00  0.00    +0.000 OA
BRANCH  20  23
ATOM     23  C   UNL     1       2.040   8.094  19.224  0.00  0.00    +0.000 A 
ATOM     24  C   UNL     1       1.410   7.654  20.412  0.00  0.00    +0.000 A 
ATOM     25  C   UNL     1       1.620   6.351  20.885  0.00  0.00    +0.000 A 
ATOM     26  C   UNL     1       2.441   5.544  20.128  0.00  0.00    +0.000 A 
ATOM     27  C   UNL     1       3.204   6.043  19.070  0.00  0.00    +0.000 A 
ATOM     28  C   UNL     1       3.025   7.324  18.583  0.00  0.00    +0.000 A 
ATOM     29  N   UNL     1       3.994   4.989  18.527  0.00  0.00    +0.000 N 
ATOM     30  C   UNL     1       5.388   4.969  18.978  0.00  0.00    +0.000 C 
ATOM     31  C   UNL     1       3.385   3.784  19.023  0.00  0.00    +0.000 A 
ATOM     32  O   UNL     1       3.626   2.649  18.641  0.00  0.00    +0.000 OA
ATOM     33  N   UNL     1       2.626   4.161  20.143  0.00  0.00    +0.000 N 
ATOM     34  C   UNL     1       2.355   3.251  21.206  0.00  0.00    +0.000 C 
ENDBRANCH  20  23
ENDBRANCH   3  20
TORSDOF 6
ENDMDL
MODEL 5
REMARK VINA RESULT:      -6.7      0.532      1.053
REMARK  Name = 
REMARK  10 active torsions:
REMARK  status: ('A' for Active; 'I' for Inactive)
REMARK    1  A    between atoms: C_1  and  O_2
REMARK    2  A    between atoms: O_2  and  C_3
REMARK    3  A    between atoms: C_6  and  C_7
REMARK    4  A    between atoms: N_9  and  C_10
REMARK    5  A    between atoms: N_9  and  S_18
REMARK    6  A    between atoms: C_13  and  O_14
REMARK    7  A    between atoms: O_14  and  C_15
REMARK    8  A    between atoms: S_18  and  C_21
REMARK    9  A    between atoms: N_27  and  C_28
REMARK   10  A    between atoms: N_31  and  C_32
REMARK                            x       y       z     vdW  Elec       q    Type
REMARK                         _______ _______ _______ _____ _____    ______ ____
ROOT
ATOM      1  C   UNL     1      -1.696  10.761  19.183  0.00  0.00    +0.000 C 
ATOM      2  O   UNL     1      -1.728   9.548  19.297  0.00  0.00    +0.000 OA
ATOM      3  N   UNL     1      -0.536  11.509  19.572  0.00  0.00    +0.000 N 
ENDROOT
BRANCH   1   7
ATOM      4  C   UNL     1      -5.384  12.242  17.454  0.00  0.00    +0.000 A 
ATOM      5  C   UNL     1      -4.454  11.529  16.704  0.00  0.00    +0.000 A 
ATOM      6  C   UNL     1      -3.256  11.098  17.287  0.00  0.00    +0.000 A 
ATOM      7  C   UNL     1      -2.944  11.401  18.625  0.00  0.00    +0.000 A 
ATOM      8  C   UNL     1      -3.831  12.231  19.318  0.00  0.00    +0.000 A 
ATOM      9  C   UNL     1      -5.060  12.611  18.756  0.00  0.00    +0.000 A 
BRANCH   4  11
ATOM     10  C   UNL     1      -6.825  13.975  16.742  0.00  0.00    +0.000 C 
ATOM     11  O   UNL     1      -6.538  12.581  16.806  0.00  0.00    +0.000 OA
ENDBRANCH   4  11
ENDBRANCH   1   7
BRANCH   3  12
ATOM     12  C   UNL     1      -0.554  12.944  19.633  0.00  0.00    +0.000 A 
ATOM     13  C   UNL     1      -0.969  13.538  20.828  0.00  0.00    +0.000 A 
ATOM     14  C   UNL     1      -0.900  14.922  20.984  0.00  0.00    +0.000 A 
ATOM     15  C   UNL     1      -0.397  15.722  19.957  0.00  0.00    +0.000 A 
ATOM     16  C   UNL     1      -0.057  15.143  18.736  0.00  0.00    +0.000 A 
ATOM     17  C   UNL     1      -0.162  13.754  18.561  0.00  0.00    +0.000 A 
BRANCH  15  18
ATOM     18  O   UNL     1      -0.329  17.057  20.254  0.00  0.00    +0.000 OA
ATOM     19  C   UNL     1       0.076  17.376  21.579  0.00  0.00    +0.000 C 
ENDBRANCH  15  18
ENDBRANCH   3  12
BRANCH   3  20
ATOM     20  S   UNL     1       0.656  10.785  20.585  0.00  0.00    +0.000 S 
ATOM     21  O   UNL     1       1.798  11.673  20.697  0.00  0.00    +0.000 OA
ATOM     22  O   UNL     1      -0.007  10.312  21.774  0.00  0.00    +0.000 OA
BRANCH  20  23
ATOM     23  C   UNL     1       1.255   9.370  19.663  0.00  0.00    +0.000 A 
ATOM     24  C   UNL     1       1.645   9.540  18.314  0.00  0.00    +0.000 A 
ATOM     25  C   UNL     1       2.398   8.552  17.664  0.00  0.00    +0.000 A 
ATOM     26  C   UNL     1       2.740   7.446  18.410  0.00  0.00    +0.000 A 
ATOM     27  C   UNL     1       2.192   7.201  19.671  0.00  0.00    +0.000 A 
ATOM     28  C   UNL     1       1.442   8.152  20.337  0.00  0.00    +0.000 A 
ATOM     29  N   UNL     1       2.684   5.956  20.161  0.00  0.00    +0.000 N 
ATOM     30  C   UNL     1       1.768   4.825  20.000  0.00  0.00    +0.000 C 
ATOM     31  C   UNL     1       3.834   5.672  19.344  0.00  0.00    +0.000 A 
ATOM     32  O   UNL     1       4.666   4.803  19.553  0.00  0.00    +0.000 OA
ATOM     33  N   UNL     1       3.690   6.449  18.182  0.00  0.00    +0.000 N 
ATOM     34  C   UNL     1       4.266   6.053  16.940  0.00  0.00    +0.000 C 
ENDBRANCH  20  23
ENDBRANCH   3  20
TORSDOF 6
ENDMDL
MODEL 6
REMARK VINA RESULT:      -6.5      2.822      8.399
REMARK  Name = 
REMARK  10 active torsions:
REMARK  status: ('A' for Active; 'I' for Inactive)
REMARK    1  A    between atoms: C_1  and  O_2
REMARK    2  A    between atoms: O_2  and  C_3
REMARK    3  A    between atoms: C_6  and  C_7
REMARK    4  A    between atoms: N_9  and  C_10
REMARK    5  A    between atoms: N_9  and  S_18
REMARK    6  A    between atoms: C_13  and  O_14
REMARK    7  A    between atoms: O_14  and  C_15
REMARK    8  A    between atoms: S_18  and  C_21
REMARK    9  A    between atoms: N_27  and  C_28
REMARK   10  A    between atoms: N_31  and  C_32
REMARK                            x       y       z     vdW  Elec       q    Type
REMARK                         _______ _______ _______ _____ _____    ______ ____
ROOT
ATOM      1  C   UNL     1       0.901  11.356  20.304  0.00  0.00    +0.000 C 
ATOM      2  O   UNL     1       1.603  11.810  21.190  0.00  0.00    +0.000 OA
ATOM      3  N   UNL     1      -0.181  12.120  19.754  0.00  0.00    +0.000 N 
ENDROOT
BRANCH   1   7
ATOM      4  C   UNL     1       2.213   7.492  18.844  0.00  0.00    +0.000 A 
ATOM      5  C   UNL     1       2.105   8.597  18.006  0.00  0.00    +0.000 A 
ATOM      6  C   UNL     1       1.642   9.821  18.504  0.00  0.00    +0.000 A 
ATOM      7  C   UNL     1       1.242   9.958  19.847  0.00  0.00    +0.000 A 
ATOM      8  C   UNL     1       1.232   8.803  20.635  0.00  0.00    +0.000 A 
ATOM      9  C   UNL     1       1.755   7.592  20.154  0.00  0.00    +0.000 A 
BRANCH   4  11
ATOM     10  C   UNL     1       4.040   6.455  17.762  0.00  0.00    +0.000 C 
ATOM     11  O   UNL     1       2.713   6.357  18.271  0.00  0.00    +0.000 OA
ENDBRANCH   4  11
ENDBRANCH   1   7
BRANCH   3  12
ATOM     12  C   UNL     1      -1.137  11.530  18.858  0.00  0.00    +0.000 A 
ATOM     13  C   UNL     1      -1.382  12.184  17.647  0.00  0.00    +0.000 A 
ATOM     14  C   UNL     1      -2.212  11.600  16.691  0.00  0.00    +0.000 A 
ATOM     15  C   UNL     1      -2.788  10.350  16.927  0.00  0.00    +0.000 A 
ATOM     16  C   UNL     1      -2.611   9.732  18.163  0.00  0.00    +0.000 A 
ATOM     17  C   UNL     1      -1.807  10.334  19.143  0.00  0.00    +0.000 A 
BRANCH  15  18
ATOM     18  O   UNL     1      -3.536   9.862  15.889  0.00  0.00    +0.000 OA
ATOM     19  C   UNL     1      -3.056  10.161  14.585  0.00  0.00    +0.000 C 
ENDBRANCH  15  18
ENDBRANCH   3  12
BRANCH   3  20
ATOM     20  S   UNL     1      -0.780  13.497  20.599  0.00  0.00    +0.000 S 
ATOM     21  O   UNL     1       0.041  13.738  21.773  0.00  0.00    +0.000 OA
ATOM     22  O   UNL     1      -0.985  14.549  19.637  0.00  0.00    +0.000 OA
BRANCH  20  23
ATOM     23  C   UNL     1      -2.374  12.993  21.243  0.00  0.00    +0.000 A 
ATOM     24  C   UNL     1      -2.456  12.475  22.558  0.00  0.00    +0.000 A 
ATOM     25  C   UNL     1      -3.696  12.365  23.201  0.00  0.00    +0.000 A 
ATOM     26  C   UNL     1      -4.798  12.800  22.496  0.00  0.00    +0.000 A 
ATOM     27  C   UNL     1      -4.731  13.126  21.139  0.00  0.00    +0.000 A 
ATOM     28  C   UNL     1      -3.524  13.239  20.475  0.00  0.00    +0.000 A 
ATOM     29  N   UNL     1      -6.034  13.474  20.679  0.00  0.00    +0.000 N 
ATOM     30  C   UNL     1      -6.739  12.409  19.962  0.00  0.00    +0.000 C 
ATOM     31  C   UNL     1      -6.788  13.732  21.877  0.00  0.00    +0.000 A 
ATOM     32  O   UNL     1      -7.892  14.250  21.932  0.00  0.00    +0.000 OA
ATOM     33  N   UNL     1      -6.093  13.096  22.920  0.00  0.00    +0.000 N 
ATOM     34  C   UNL     1      -6.760  12.637  24.093  0.00  0.00    +0.000 C 
ENDBRANCH  20  23
ENDBRANCH   3  20
TORSDOF 6
ENDMDL
MODEL 7
REMARK VINA RESULT:      -6.5      2.457      3.750
REMARK  Name = 
REMARK  10 active torsions:
REMARK  status: ('A' for Active; 'I' for Inactive)
REMARK    1  A    between atoms: C_1  and  O_2
REMARK    2  A    between atoms: O_2  and  C_3
REMARK    3  A    between atoms: C_6  and  C_7
REMARK    4  A    between atoms: N_9  and  C_10
REMARK    5  A    between atoms: N_9  and  S_18
REMARK    6  A    between atoms: C_13  and  O_14
REMARK    7  A    between atoms: O_14  and  C_15
REMARK    8  A    between atoms: S_18  and  C_21
REMARK    9  A    between atoms: N_27  and  C_28
REMARK   10  A    between atoms: N_31  and  C_32
REMARK                            x       y       z     vdW  Elec       q    Type
REMARK                         _______ _______ _______ _____ _____    ______ ____
ROOT
ATOM      1  C   UNL     1      -1.187  11.737  21.812  0.00  0.00    +0.000 C 
ATOM      2  O   UNL     1      -0.561  11.919  22.841  0.00  0.00    +0.000 OA
ATOM      3  N   UNL     1      -0.582  11.089  20.684  0.00  0.00    +0.000 N 
ENDROOT
BRANCH   1   7
ATOM      4  C   UNL     1      -5.165  13.432  22.100  0.00  0.00    +0.000 A 
ATOM      5  C   UNL     1      -4.526  12.865  23.198  0.00  0.00    +0.000 A 
ATOM      6  C   UNL     1      -3.255  12.293  23.059  0.00  0.00    +0.000 A 
ATOM      7  C   UNL     1      -2.609  12.243  21.810  0.00  0.00    +0.000 A 
ATOM      8  C   UNL     1      -3.326  12.698  20.698  0.00  0.00    +0.000 A 
ATOM      9  C   UNL     1      -4.572  13.328  20.846  0.00  0.00    +0.000 A 
BRANCH   4  11
ATOM     10  C   UNL     1      -6.850  13.898  23.691  0.00  0.00    +0.000 C 
ATOM     11  O   UNL     1      -6.383  13.999  22.349  0.00  0.00    +0.000 OA
ENDBRANCH   4  11
ENDBRANCH   1   7
BRANCH   3  12
ATOM     12  C   UNL     1      -1.234  11.047  19.405  0.00  0.00    +0.000 A 
ATOM     13  C   UNL     1      -1.084  12.153  18.562  0.00  0.00    +0.000 A 
ATOM     14  C   UNL     1      -1.598  12.122  17.266  0.00  0.00    +0.000 A 
ATOM     15  C   UNL     1      -2.248  10.981  16.794  0.00  0.00    +0.000 A 
ATOM     16  C   UNL     1      -2.470   9.908  17.655  0.00  0.00    +0.000 A 
ATOM     17  C   UNL     1      -1.988   9.950  18.972  0.00  0.00    +0.000 A 
BRANCH  15  18
ATOM     18  O   UNL     1      -2.657  11.056  15.490  0.00  0.00    +0.000 OA
ATOM     19  C   UNL     1      -3.265   9.885  14.962  0.00  0.00    +0.000 C 
ENDBRANCH  15  18
ENDBRANCH   3  12
BRANCH   3  20
ATOM     20  S   UNL     1       1.132  10.935  20.596  0.00  0.00    +0.000 S 
ATOM     21  O   UNL     1       1.661  11.936  19.687  0.00  0.00    +0.000 OA
ATOM     22  O   UNL     1       1.635  10.849  21.943  0.00  0.00    +0.000 OA
BRANCH  20  23
ATOM     23  C   UNL     1       1.418   9.367  19.778  0.00  0.00    +0.000 A 
ATOM     24  C   UNL     1       1.745   9.356  18.401  0.00  0.00    +0.000 A 
ATOM     25  C   UNL     1       2.273   8.201  17.807  0.00  0.00    +0.000 A 
ATOM     26  C   UNL     1       2.466   7.115  18.633  0.00  0.00    +0.000 A 
ATOM     27  C   UNL     1       1.965   7.074  19.936  0.00  0.00    +0.000 A 
ATOM     28  C   UNL     1       1.435   8.193  20.549  0.00  0.00    +0.000 A 
ATOM     29  N   UNL     1       2.266   5.805  20.512  0.00  0.00    +0.000 N 
ATOM     30  C   UNL     1       1.161   4.845  20.499  0.00  0.00    +0.000 C 
ATOM     31  C   UNL     1       3.295   5.257  19.668  0.00  0.00    +0.000 A 
ATOM     32  O   UNL     1       3.977   4.274  19.915  0.00  0.00    +0.000 OA
ATOM     33  N   UNL     1       3.213   5.951  18.450  0.00  0.00    +0.000 N 
ATOM     34  C   UNL     1       3.631   5.361  17.222  0.00  0.00    +0.000 C 
ENDBRANCH  20  23
ENDBRANCH   3  20
TORSDOF 6
ENDMDL
MODEL 8
REMARK VINA RESULT:      -6.5      1.856      4.606
REMARK  Name = 
REMARK  10 active torsions:
REMARK  status: ('A' for Active; 'I' for Inactive)
REMARK    1  A    between atoms: C_1  and  O_2
REMARK    2  A    between atoms: O_2  and  C_3
REMARK    3  A    between atoms: C_6  and  C_7
REMARK    4  A    between atoms: N_9  and  C_10
REMARK    5  A    between atoms: N_9  and  S_18
REMARK    6  A    between atoms: C_13  and  O_14
REMARK    7  A    between atoms: O_14  and  C_15
REMARK    8  A    between atoms: S_18  and  C_21
REMARK    9  A    between atoms: N_27  and  C_28
REMARK   10  A    between atoms: N_31  and  C_32
REMARK                            x       y       z     vdW  Elec       q    Type
REMARK                         _______ _______ _______ _____ _____    ______ ____
ROOT
ATOM      1  C   UNL     1       1.435  11.640  20.713  0.00  0.00    +0.000 C 
ATOM      2  O   UNL     1       2.405  11.430  21.420  0.00  0.00    +0.000 OA
ATOM      3  N   UNL     1       0.295  10.771  20.745  0.00  0.00    +0.000 N 
ENDROOT
BRANCH   1   7
ATOM      4  C   UNL     1       1.855  15.306  18.439  0.00  0.00    +0.000 A 
ATOM      5  C   UNL     1       1.164  15.264  19.646  0.00  0.00    +0.000 A 
ATOM      6  C   UNL     1       1.016  14.054  20.335  0.00  0.00    +0.000 A 
ATOM      7  C   UNL     1       1.527  12.850  19.815  0.00  0.00    +0.000 A 
ATOM      8  C   UNL     1       2.100  12.894  18.540  0.00  0.00    +0.000 A 
ATOM      9  C   UNL     1       2.304  14.115  17.877  0.00  0.00    +0.000 A 
BRANCH   4  11
ATOM     10  C   UNL     1       0.878  17.425  18.061  0.00  0.00    +0.000 C 
ATOM     11  O   UNL     1       1.979  16.541  17.868  0.00  0.00    +0.000 OA
ENDBRANCH   4  11
ENDBRANCH   1   7
BRANCH   3  12
ATOM     12  C   UNL     1      -0.764  10.886  19.781  0.00  0.00    +0.000 A 
ATOM     13  C   UNL     1      -1.839  11.723  20.095  0.00  0.00    +0.000 A 
ATOM     14  C   UNL     1      -2.839  11.963  19.153  0.00  0.00    +0.000 A 
ATOM     15  C   UNL     1      -2.763  11.387  17.884  0.00  0.00    +0.000 A 
ATOM     16  C   UNL     1      -1.737  10.490  17.594  0.00  0.00    +0.000 A 
ATOM     17  C   UNL     1      -0.750  10.215  18.553  0.00  0.00    +0.000 A 
BRANCH  15  18
ATOM     18  O   UNL     1      -3.776  11.744  17.035  0.00  0.00    +0.000 OA
ATOM     19  C   UNL     1      -4.002  10.869  15.937  0.00  0.00    +0.000 C 
ENDBRANCH  15  18
ENDBRANCH   3  12
BRANCH   3  20
ATOM     20  S   UNL     1       0.428   9.202  21.447  0.00  0.00    +0.000 S 
ATOM     21  O   UNL     1       1.311   9.261  22.597  0.00  0.00    +0.000 OA
ATOM     22  O   UNL     1      -0.903   8.670  21.588  0.00  0.00    +0.000 OA
BRANCH  20  23
ATOM     23  C   UNL     1       1.309   8.221  20.233  0.00  0.00    +0.000 A 
ATOM     24  C   UNL     1       1.708   8.823  19.016  0.00  0.00    +0.000 A 
ATOM     25  C   UNL     1       2.651   8.196  18.191  0.00  0.00    +0.000 A 
ATOM     26  C   UNL     1       3.165   6.998  18.640  0.00  0.00    +0.000 A 
ATOM     27  C   UNL     1       2.627   6.324  19.739  0.00  0.00    +0.000 A 
ATOM     28  C   UNL     1       1.693   6.913  20.569  0.00  0.00    +0.000 A 
ATOM     29  N   UNL     1       3.323   5.093  19.916  0.00  0.00    +0.000 N 
ATOM     30  C   UNL     1       2.637   3.915  19.382  0.00  0.00    +0.000 C 
ATOM     31  C   UNL     1       4.533   5.244  19.153  0.00  0.00    +0.000 A 
ATOM     32  O   UNL     1       5.503   4.503  19.191  0.00  0.00    +0.000 OA
ATOM     33  N   UNL     1       4.289   6.278  18.234  0.00  0.00    +0.000 N 
ATOM     34  C   UNL     1       4.970   6.346  16.984  0.00  0.00    +0.000 C 
ENDBRANCH  20  23
ENDBRANCH   3  20
TORSDOF 6
ENDMDL
MODEL 9
REMARK VINA RESULT:      -6.5      0.418      1.232
REMARK  Name = 
REMARK  10 active torsions:
REMARK  status: ('A' for Active; 'I' for Inactive)
REMARK    1  A    between atoms: C_1  and  O_2
REMARK    2  A    between atoms: O_2  and  C_3
REMARK    3  A    between atoms: C_6  and  C_7
REMARK    4  A    between atoms: N_9  and  C_10
REMARK    5  A    between atoms: N_9  and  S_18
REMARK    6  A    between atoms: C_13  and  O_14
REMARK    7  A    between atoms: O_14  and  C_15
REMARK    8  A    between atoms: S_18  and  C_21
REMARK    9  A    between atoms: N_27  and  C_28
REMARK   10  A    between atoms: N_31  and  C_32
REMARK                            x       y       z     vdW  Elec       q    Type
REMARK                         _______ _______ _______ _____ _____    ______ ____
ROOT
ATOM      1  C   UNL     1      -1.695  10.479  18.786  0.00  0.00    +0.000 C 
ATOM      2  O   UNL     1      -1.608   9.267  18.868  0.00  0.00    +0.000 OA
ATOM      3  N   UNL     1      -0.640  11.329  19.256  0.00  0.00    +0.000 N 
ENDROOT
BRANCH   1   7
ATOM      4  C   UNL     1      -5.303  12.323  17.247  0.00  0.00    +0.000 A 
ATOM      5  C   UNL     1      -5.070  12.189  18.612  0.00  0.00    +0.000 A 
ATOM      6  C   UNL     1      -3.910  11.554  19.073  0.00  0.00    +0.000 A 
ATOM      7  C   UNL     1      -2.972  11.006  18.177  0.00  0.00    +0.000 A 
ATOM      8  C   UNL     1      -3.292  11.035  16.816  0.00  0.00    +0.000 A 
ATOM      9  C   UNL     1      -4.422  11.726  16.350  0.00  0.00    +0.000 A 
BRANCH   4  11
ATOM     10  C   UNL     1      -6.832  14.044  17.780  0.00  0.00    +0.000 C 
ATOM     11  O   UNL     1      -6.442  12.994  16.901  0.00  0.00    +0.000 OA
ENDBRANCH   4  11
ENDBRANCH   1   7
BRANCH   3  12
ATOM     12  C   UNL     1      -0.809  12.752  19.352  0.00  0.00    +0.000 A 
ATOM     13  C   UNL     1      -1.470  13.254  20.477  0.00  0.00    +0.000 A 
ATOM     14  C   UNL     1      -1.563  14.630  20.680  0.00  0.00    +0.000 A 
ATOM     15  C   UNL     1      -0.981  15.517  19.772  0.00  0.00    +0.000 A 
ATOM     16  C   UNL     1      -0.392  15.024  18.610  0.00  0.00    +0.000 A 
ATOM     17  C   UNL     1      -0.329  13.641  18.382  0.00  0.00    +0.000 A 
BRANCH  15  18
ATOM     18  O   UNL     1      -1.095  16.838  20.112  0.00  0.00    +0.000 OA
ATOM     19  C   UNL     1      -1.534  17.709  19.078  0.00  0.00    +0.000 C 
ENDBRANCH  15  18
ENDBRANCH   3  12
BRANCH   3  20
ATOM     20  S   UNL     1       0.565  10.700  20.314  0.00  0.00    +0.000 S 
ATOM     21  O   UNL     1       1.654  11.653  20.428  0.00  0.00    +0.000 OA
ATOM     22  O   UNL     1      -0.097  10.220  21.500  0.00  0.00    +0.000 OA
BRANCH  20  23
ATOM     23  C   UNL     1       1.265   9.298  19.444  0.00  0.00    +0.000 A 
ATOM     24  C   UNL     1       1.720   9.467  18.115  0.00  0.00    +0.000 A 
ATOM     25  C   UNL     1       2.542   8.501  17.519  0.00  0.00    +0.000 A 
ATOM     26  C   UNL     1       2.884   7.416  18.297  0.00  0.00    +0.000 A 
ATOM     27  C   UNL     1       2.278   7.165  19.530  0.00  0.00    +0.000 A 
ATOM     28  C   UNL     1       1.459   8.095  20.143  0.00  0.00    +0.000 A 
ATOM     29  N   UNL     1       2.788   5.945  20.061  0.00  0.00    +0.000 N 
ATOM     30  C   UNL     1       1.924   4.779  19.867  0.00  0.00    +0.000 C 
ATOM     31  C   UNL     1       3.990   5.695  19.310  0.00  0.00    +0.000 A 
ATOM     32  O   UNL     1       4.841   4.860  19.574  0.00  0.00    +0.000 OA
ATOM     33  N   UNL     1       3.880   6.453  18.132  0.00  0.00    +0.000 N 
ATOM     34  C   UNL     1       4.535   6.065  16.927  0.00  0.00    +0.000 C 
ENDBRANCH  20  23
ENDBRANCH   3  20
TORSDOF 6
ENDMDL
