MODEL 1
REMARK VINA RESULT:      -7.4      0.000      0.000
REMARK  Name = 
REMARK  5 active torsions:
REMARK  status: ('A' for Active; 'I' for Inactive)
REMARK    1  A    between atoms: C_1  and  C_2
REMARK    2  A    between atoms: C_6  and  C_7
REMARK    3  A    between atoms: C_7  and  C_8
REMARK    4  A    between atoms: C_8  and  N_9
REMARK    5  A    between atoms: N_12  and  C_13
REMARK                            x       y       z     vdW  Elec       q    Type
REMARK                         _______ _______ _______ _____ _____    ______ ____
ROOT
ATOM      1  N   UNL     1       7.998   6.925  18.389  0.00  0.00    +0.000 N 
ATOM      2  C   UNL     1       8.208   8.280  18.199  0.00  0.00    +0.000 C 
ATOM      3  O   UNL     1       7.782   8.856  17.201  0.00  0.00    +0.000 OA
ATOM      4  N   UNL     1       8.960   8.853  19.201  0.00  0.00    +0.000 N 
ATOM      5  H   UNL     1       7.863   6.647  19.349  0.00  0.00    +0.000 HD
ATOM      6  H   UNL     1       9.522   8.214  19.741  0.00  0.00    +0.000 HD
ENDROOT
BRANCH   4   7
ATOM      7  C   UNL     1       9.318  10.226  19.242  0.00  0.00    +0.000 A 
ATOM      8  C   UNL     1       9.682  10.946  18.098  0.00  0.00    +0.000 A 
ATOM      9  C   UNL     1      10.128  12.267  18.187  0.00  0.00    +0.000 A 
ATOM     10  C   UNL     1      10.194  12.888  19.427  0.00  0.00    +0.000 A 
ATOM     11 CL   UNL     1      10.792  14.496  19.545  0.00  0.00    +0.000 Cl
ATOM     12  C   UNL     1       9.782  12.207  20.572  0.00  0.00    +0.000 A 
ATOM     13  C   UNL     1       9.334  10.882  20.479  0.00  0.00    +0.000 A 
ENDBRANCH   4   7
BRANCH   1  14
ATOM     14  C   UNL     1       7.193   6.256  17.370  0.00  0.00    +0.000 C 
BRANCH  14  15
ATOM     15  C   UNL     1       6.583   4.930  17.814  0.00  0.00    +0.000 C 
BRANCH  15  21
ATOM     16  C   UNL     1       2.344   7.659  18.207  0.00  0.00    +0.000 C 
ATOM     17  C   UNL     1       3.021   6.329  18.057  0.00  0.00    +0.000 A 
ATOM     18  C   UNL     1       2.268   5.153  17.969  0.00  0.00    +0.000 A 
ATOM     19  C   UNL     1       2.904   3.921  17.826  0.00  0.00    +0.000 A 
ATOM     20  C   UNL     1       4.297   3.851  17.778  0.00  0.00    +0.000 A 
ATOM     21  C   UNL     1       5.074   5.013  17.880  0.00  0.00    +0.000 A 
ATOM     22  C   UNL     1       4.422   6.250  18.007  0.00  0.00    +0.000 A 
ENDBRANCH  15  21
ENDBRANCH  14  15
ENDBRANCH   1  14
TORSDOF 4
ENDMDL
MODEL 2
REMARK VINA RESULT:      -7.3      0.429      1.617
REMARK  Name = 
REMARK  5 active torsions:
REMARK  status: ('A' for Active; 'I' for Inactive)
REMARK    1  A    between atoms: C_1  and  C_2
REMARK    2  A    between atoms: C_6  and  C_7
REMARK    3  A    between atoms: C_7  and  C_8
REMARK    4  A    between atoms: C_8  and  N_9
REMARK    5  A    between atoms: N_12  and  C_13
REMARK                            x       y       z     vdW  Elec       q    Type
REMARK                         _______ _______ _______ _____ _____    ______ ____
ROOT
ATOM      1  N   UNL     1       7.974   7.066  18.237  0.00  0.00    +0.000 N 
ATOM      2  C   UNL     1       8.152   8.437  18.160  0.00  0.00    +0.000 C 
ATOM      3  O   UNL     1       7.603   9.102  17.285  0.00  0.00    +0.000 OA
ATOM      4  N   UNL     1       9.021   8.920  19.114  0.00  0.00    +0.000 N 
ATOM      5  H   UNL     1       7.961   6.692  19.173  0.00  0.00    +0.000 HD
ATOM      6  H   UNL     1       9.649   8.240  19.514  0.00  0.00    +0.000 HD
ENDROOT
BRANCH   4   7
ATOM      7  C   UNL     1       9.375  10.288  19.248  0.00  0.00    +0.000 A 
ATOM      8  C   UNL     1       9.822  11.062  18.171  0.00  0.00    +0.000 A 
ATOM      9  C   UNL     1      10.260  12.376  18.356  0.00  0.00    +0.000 A 
ATOM     10  C   UNL     1      10.236  12.935  19.626  0.00  0.00    +0.000 A 
ATOM     11 CL   UNL     1      10.824  14.533  19.867  0.00  0.00    +0.000 Cl
ATOM     12  C   UNL     1       9.741  12.199  20.703  0.00  0.00    +0.000 A 
ATOM     13  C   UNL     1       9.302  10.882  20.513  0.00  0.00    +0.000 A 
ENDBRANCH   4   7
BRANCH   1  14
ATOM     14  C   UNL     1       7.051   6.488  17.263  0.00  0.00    +0.000 C 
BRANCH  14  15
ATOM     15  C   UNL     1       6.587   5.073  17.592  0.00  0.00    +0.000 C 
BRANCH  15  21
ATOM     16  C   UNL     1       2.308   2.379  17.710  0.00  0.00    +0.000 C 
ATOM     17  C   UNL     1       3.009   3.703  17.782  0.00  0.00    +0.000 A 
ATOM     18  C   UNL     1       2.283   4.885  17.966  0.00  0.00    +0.000 A 
ATOM     19  C   UNL     1       2.943   6.111  18.035  0.00  0.00    +0.000 A 
ATOM     20  C   UNL     1       4.332   6.170  17.912  0.00  0.00    +0.000 A 
ATOM     21  C   UNL     1       5.080   5.002  17.711  0.00  0.00    +0.000 A 
ATOM     22  C   UNL     1       4.407   3.770  17.660  0.00  0.00    +0.000 A 
ENDBRANCH  15  21
ENDBRANCH  14  15
ENDBRANCH   1  14
TORSDOF 4
ENDMDL
MODEL 3
REMARK VINA RESULT:      -7.3      3.741      8.747
REMARK  Name = 
REMARK  5 active torsions:
REMARK  status: ('A' for Active; 'I' for Inactive)
REMARK    1  A    between atoms: C_1  and  C_2
REMARK    2  A    between atoms: C_6  and  C_7
REMARK    3  A    between atoms: C_7  and  C_8
REMARK    4  A    between atoms: C_8  and  N_9
REMARK    5  A    between atoms: N_12  and  C_13
REMARK                            x       y       z     vdW  Elec       q    Type
REMARK                         _______ _______ _______ _____ _____    ______ ____
ROOT
ATOM      1  N   UNL     1       7.235   8.727  17.435  0.00  0.00    +0.000 N 
ATOM      2  C   UNL     1       7.010   7.383  17.683  0.00  0.00    +0.000 C 
ATOM      3  O   UNL     1       7.924   6.640  18.030  0.00  0.00    +0.000 OA
ATOM      4  N   UNL     1       5.706   7.004  17.451  0.00  0.00    +0.000 N 
ATOM      5  H   UNL     1       6.474   9.338  17.690  0.00  0.00    +0.000 HD
ATOM      6  H   UNL     1       5.177   7.615  16.847  0.00  0.00    +0.000 HD
ENDROOT
BRANCH   4   7
ATOM      7  C   UNL     1       5.218   5.684  17.628  0.00  0.00    +0.000 A 
ATOM      8  C   UNL     1       4.929   4.835  16.553  0.00  0.00    +0.000 A 
ATOM      9  C   UNL     1       4.353   3.579  16.757  0.00  0.00    +0.000 A 
ATOM     10  C   UNL     1       4.077   3.151  18.048  0.00  0.00    +0.000 A 
ATOM     11 CL   UNL     1       3.320   1.629  18.300  0.00  0.00    +0.000 Cl
ATOM     12  C   UNL     1       4.408   3.959  19.136  0.00  0.00    +0.000 A 
ATOM     13  C   UNL     1       4.987   5.218  18.928  0.00  0.00    +0.000 A 
ENDBRANCH   4   7
BRANCH   1  14
ATOM     14  C   UNL     1       8.595   9.200  17.676  0.00  0.00    +0.000 C 
BRANCH  14  15
ATOM     15  C   UNL     1       8.849   9.704  19.093  0.00  0.00    +0.000 C 
BRANCH  15  21
ATOM     16  C   UNL     1      11.470  13.247  16.611  0.00  0.00    +0.000 C 
ATOM     17  C   UNL     1      11.062  12.602  17.903  0.00  0.00    +0.000 A 
ATOM     18  C   UNL     1      11.552  13.080  19.123  0.00  0.00    +0.000 A 
ATOM     19  C   UNL     1      11.165  12.477  20.319  0.00  0.00    +0.000 A 
ATOM     20  C   UNL     1      10.294  11.386  20.307  0.00  0.00    +0.000 A 
ATOM     21  C   UNL     1       9.803  10.879  19.096  0.00  0.00    +0.000 A 
ATOM     22  C   UNL     1      10.185  11.504  17.899  0.00  0.00    +0.000 A 
ENDBRANCH  15  21
ENDBRANCH  14  15
ENDBRANCH   1  14
TORSDOF 4
ENDMDL
MODEL 4
REMARK VINA RESULT:      -7.3      6.632      8.695
REMARK  Name = 
REMARK  5 active torsions:
REMARK  status: ('A' for Active; 'I' for Inactive)
REMARK    1  A    between atoms: C_1  and  C_2
REMARK    2  A    between atoms: C_6  and  C_7
REMARK    3  A    between atoms: C_7  and  C_8
REMARK    4  A    between atoms: C_8  and  N_9
REMARK    5  A    between atoms: N_12  and  C_13
REMARK                            x       y       z     vdW  Elec       q    Type
REMARK                         _______ _______ _______ _____ _____    ______ ____
ROOT
ATOM      1  N   UNL     1       6.439   3.986  14.988  0.00  0.00    +0.000 N 
ATOM      2  C   UNL     1       5.494   4.295  15.952  0.00  0.00    +0.000 C 
ATOM      3  O   UNL     1       5.150   5.456  16.157  0.00  0.00    +0.000 OA
ATOM      4  N   UNL     1       5.054   3.190  16.646  0.00  0.00    +0.000 N 
ATOM      5  H   UNL     1       6.285   3.112  14.509  0.00  0.00    +0.000 HD
ATOM      6  H   UNL     1       5.665   2.388  16.618  0.00  0.00    +0.000 HD
ENDROOT
BRANCH   4   7
ATOM      7  C   UNL     1       4.090   3.235  17.687  0.00  0.00    +0.000 A 
ATOM      8  C   UNL     1       4.441   3.292  19.040  0.00  0.00    +0.000 A 
ATOM      9  C   UNL     1       3.471   3.231  20.043  0.00  0.00    +0.000 A 
ATOM     10  C   UNL     1       2.130   3.133  19.697  0.00  0.00    +0.000 A 
ATOM     11 CL   UNL     1       0.937   3.005  20.928  0.00  0.00    +0.000 Cl
ATOM     12  C   UNL     1       1.755   3.131  18.353  0.00  0.00    +0.000 A 
ATOM     13  C   UNL     1       2.732   3.193  17.350  0.00  0.00    +0.000 A 
ENDBRANCH   4   7
BRANCH   1  14
ATOM     14  C   UNL     1       6.938   5.112  14.202  0.00  0.00    +0.000 C 
BRANCH  14  15
ATOM     15  C   UNL     1       7.549   4.725  12.859  0.00  0.00    +0.000 C 
BRANCH  15  21
ATOM     16  C   UNL     1       3.169   3.005  11.006  0.00  0.00    +0.000 C 
ATOM     17  C   UNL     1       4.633   2.806  11.272  0.00  0.00    +0.000 A 
ATOM     18  C   UNL     1       5.271   1.621  10.891  0.00  0.00    +0.000 A 
ATOM     19  C   UNL     1       6.632   1.446  11.138  0.00  0.00    +0.000 A 
ATOM     20  C   UNL     1       7.365   2.448  11.775  0.00  0.00    +0.000 A 
ATOM     21  C   UNL     1       6.744   3.638  12.180  0.00  0.00    +0.000 A 
ATOM     22  C   UNL     1       5.377   3.811  11.912  0.00  0.00    +0.000 A 
ENDBRANCH  15  21
ENDBRANCH  14  15
ENDBRANCH   1  14
TORSDOF 4
ENDMDL
MODEL 5
REMARK VINA RESULT:      -7.3      1.120      2.172
REMARK  Name = 
REMARK  5 active torsions:
REMARK  status: ('A' for Active; 'I' for Inactive)
REMARK    1  A    between atoms: C_1  and  C_2
REMARK    2  A    between atoms: C_6  and  C_7
REMARK    3  A    between atoms: C_7  and  C_8
REMARK    4  A    between atoms: C_8  and  N_9
REMARK    5  A    between atoms: N_12  and  C_13
REMARK                            x       y       z     vdW  Elec       q    Type
REMARK                         _______ _______ _______ _____ _____    ______ ____
ROOT
ATOM      1  N   UNL     1       7.072   7.723  17.055  0.00  0.00    +0.000 N 
ATOM      2  C   UNL     1       7.980   8.372  17.875  0.00  0.00    +0.000 C 
ATOM      3  O   UNL     1       8.587   7.767  18.755  0.00  0.00    +0.000 OA
ATOM      4  N   UNL     1       8.069   9.722  17.616  0.00  0.00    +0.000 N 
ATOM      5  H   UNL     1       7.039   8.063  16.106  0.00  0.00    +0.000 HD
ATOM      6  H   UNL     1       7.281  10.124  17.133  0.00  0.00    +0.000 HD
ENDROOT
BRANCH   4   7
ATOM      7  C   UNL     1       8.923  10.612  18.316  0.00  0.00    +0.000 A 
ATOM      8  C   UNL     1       9.234  10.452  19.672  0.00  0.00    +0.000 A 
ATOM      9  C   UNL     1       9.995  11.402  20.357  0.00  0.00    +0.000 A 
ATOM     10  C   UNL     1      10.471  12.518  19.682  0.00  0.00    +0.000 A 
ATOM     11 CL   UNL     1      11.363  13.715  20.534  0.00  0.00    +0.000 Cl
ATOM     12  C   UNL     1      10.220  12.668  18.318  0.00  0.00    +0.000 A 
ATOM     13  C   UNL     1       9.458  11.712  17.634  0.00  0.00    +0.000 A 
ENDBRANCH   4   7
BRANCH   1  14
ATOM     14  C   UNL     1       6.939   6.284  17.265  0.00  0.00    +0.000 C 
BRANCH  14  15
ATOM     15  C   UNL     1       5.985   5.588  16.300  0.00  0.00    +0.000 C 
BRANCH  15  21
ATOM     16  C   UNL     1       2.327   2.418  17.768  0.00  0.00    +0.000 C 
ATOM     17  C   UNL     1       2.871   3.813  17.665  0.00  0.00    +0.000 A 
ATOM     18  C   UNL     1       2.144   4.900  18.165  0.00  0.00    +0.000 A 
ATOM     19  C   UNL     1       2.658   6.191  18.068  0.00  0.00    +0.000 A 
ATOM     20  C   UNL     1       3.897   6.412  17.463  0.00  0.00    +0.000 A 
ATOM     21  C   UNL     1       4.636   5.342  16.941  0.00  0.00    +0.000 A 
ATOM     22  C   UNL     1       4.117   4.043  17.059  0.00  0.00    +0.000 A 
ENDBRANCH  15  21
ENDBRANCH  14  15
ENDBRANCH   1  14
TORSDOF 4
ENDMDL
MODEL 6
REMARK VINA RESULT:      -7.3      6.544      8.542
REMARK  Name = 
REMARK  5 active torsions:
REMARK  status: ('A' for Active; 'I' for Inactive)
REMARK    1  A    between atoms: C_1  and  C_2
REMARK    2  A    between atoms: C_6  and  C_7
REMARK    3  A    between atoms: C_7  and  C_8
REMARK    4  A    between atoms: C_8  and  N_9
REMARK    5  A    between atoms: N_12  and  C_13
REMARK                            x       y       z     vdW  Elec       q    Type
REMARK                         _______ _______ _______ _____ _____    ______ ____
ROOT
ATOM      1  N   UNL     1       6.543   4.025  14.903  0.00  0.00    +0.000 N 
ATOM      2  C   UNL     1       5.544   4.342  15.808  0.00  0.00    +0.000 C 
ATOM      3  O   UNL     1       5.166   5.500  15.959  0.00  0.00    +0.000 OA
ATOM      4  N   UNL     1       5.091   3.248  16.514  0.00  0.00    +0.000 N 
ATOM      5  H   UNL     1       6.432   3.133  14.445  0.00  0.00    +0.000 HD
ATOM      6  H   UNL     1       5.719   2.460  16.542  0.00  0.00    +0.000 HD
ENDROOT
BRANCH   4   7
ATOM      7  C   UNL     1       4.075   3.304  17.502  0.00  0.00    +0.000 A 
ATOM      8  C   UNL     1       2.711   3.255  17.188  0.00  0.00    +0.000 A 
ATOM      9  C   UNL     1       1.735   3.415  18.174  0.00  0.00    +0.000 A 
ATOM     10  C   UNL     1       2.117   3.606  19.495  0.00  0.00    +0.000 A 
ATOM     11 CL   UNL     1       0.920   3.856  20.702  0.00  0.00    +0.000 Cl
ATOM     12  C   UNL     1       3.469   3.601  19.837  0.00  0.00    +0.000 A 
ATOM     13  C   UNL     1       4.446   3.440  18.845  0.00  0.00    +0.000 A 
ENDBRANCH   4   7
BRANCH   1  14
ATOM     14  C   UNL     1       7.058   5.137  14.109  0.00  0.00    +0.000 C 
BRANCH  14  15
ATOM     15  C   UNL     1       7.601   4.739  12.739  0.00  0.00    +0.000 C 
BRANCH  15  21
ATOM     16  C   UNL     1       3.164   3.053  10.990  0.00  0.00    +0.000 C 
ATOM     17  C   UNL     1       4.625   2.829  11.254  0.00  0.00    +0.000 A 
ATOM     18  C   UNL     1       5.231   1.614  10.919  0.00  0.00    +0.000 A 
ATOM     19  C   UNL     1       6.588   1.415  11.164  0.00  0.00    +0.000 A 
ATOM     20  C   UNL     1       7.351   2.424  11.754  0.00  0.00    +0.000 A 
ATOM     21  C   UNL     1       6.763   3.645  12.113  0.00  0.00    +0.000 A 
ATOM     22  C   UNL     1       5.399   3.841  11.846  0.00  0.00    +0.000 A 
ENDBRANCH  15  21
ENDBRANCH  14  15
ENDBRANCH   1  14
TORSDOF 4
ENDMDL
MODEL 7
REMARK VINA RESULT:      -7.2      4.830      6.927
REMARK  Name = 
REMARK  5 active torsions:
REMARK  status: ('A' for Active; 'I' for Inactive)
REMARK    1  A    between atoms: C_1  and  C_2
REMARK    2  A    between atoms: C_6  and  C_7
REMARK    3  A    between atoms: C_7  and  C_8
REMARK    4  A    between atoms: C_8  and  N_9
REMARK    5  A    between atoms: N_12  and  C_13
REMARK                            x       y       z     vdW  Elec       q    Type
REMARK                         _______ _______ _______ _____ _____    ______ ____
ROOT
ATOM      1  N   UNL     1       3.127   5.015  20.442  0.00  0.00    +0.000 N 
ATOM      2  C   UNL     1       2.393   5.977  19.768  0.00  0.00    +0.000 C 
ATOM      3  O   UNL     1       1.972   5.775  18.632  0.00  0.00    +0.000 OA
ATOM      4  N   UNL     1       2.249   7.144  20.485  0.00  0.00    +0.000 N 
ATOM      5  H   UNL     1       2.972   4.985  21.438  0.00  0.00    +0.000 HD
ATOM      6  H   UNL     1       2.927   7.290  21.218  0.00  0.00    +0.000 HD
ENDROOT
BRANCH   4   7
ATOM      7  C   UNL     1       1.544   8.284  20.019  0.00  0.00    +0.000 A 
ATOM      8  C   UNL     1       0.588   8.951  20.794  0.00  0.00    +0.000 A 
ATOM      9  C   UNL     1      -0.162  10.006  20.268  0.00  0.00    +0.000 A 
ATOM     10  C   UNL     1       0.054  10.418  18.960  0.00  0.00    +0.000 A 
ATOM     11 CL   UNL     1      -0.903  11.680  18.294  0.00  0.00    +0.000 Cl
ATOM     12  C   UNL     1       1.041   9.803  18.190  0.00  0.00    +0.000 A 
ATOM     13  C   UNL     1       1.792   8.746  18.720  0.00  0.00    +0.000 A 
ENDBRANCH   4   7
BRANCH   1  14
ATOM     14  C   UNL     1       3.304   3.745  19.745  0.00  0.00    +0.000 C 
BRANCH  14  15
ATOM     15  C   UNL     1       4.747   3.427  19.363  0.00  0.00    +0.000 C 
BRANCH  15  21
ATOM     16  C   UNL     1       7.509   7.257  17.550  0.00  0.00    +0.000 C 
ATOM     17  C   UNL     1       6.552   6.124  17.319  0.00  0.00    +0.000 A 
ATOM     18  C   UNL     1       6.083   5.839  16.032  0.00  0.00    +0.000 A 
ATOM     19  C   UNL     1       5.198   4.783  15.825  0.00  0.00    +0.000 A 
ATOM     20  C   UNL     1       4.765   4.007  16.902  0.00  0.00    +0.000 A 
ATOM     21  C   UNL     1       5.209   4.282  18.203  0.00  0.00    +0.000 A 
ATOM     22  C   UNL     1       6.114   5.338  18.397  0.00  0.00    +0.000 A 
ENDBRANCH  15  21
ENDBRANCH  14  15
ENDBRANCH   1  14
TORSDOF 4
ENDMDL
MODEL 8
REMARK VINA RESULT:      -7.2      5.701      7.568
REMARK  Name = 
REMARK  5 active torsions:
REMARK  status: ('A' for Active; 'I' for Inactive)
REMARK    1  A    between atoms: C_1  and  C_2
REMARK    2  A    between atoms: C_6  and  C_7
REMARK    3  A    between atoms: C_7  and  C_8
REMARK    4  A    between atoms: C_8  and  N_9
REMARK    5  A    between atoms: N_12  and  C_13
REMARK                            x       y       z     vdW  Elec       q    Type
REMARK                         _______ _______ _______ _____ _____    ______ ____
ROOT
ATOM      1  N   UNL     1       2.614   6.620  20.087  0.00  0.00    +0.000 N 
ATOM      2  C   UNL     1       1.886   7.795  20.174  0.00  0.00    +0.000 C 
ATOM      3  O   UNL     1       1.644   8.469  19.176  0.00  0.00    +0.000 OA
ATOM      4  N   UNL     1       1.531   8.113  21.466  0.00  0.00    +0.000 N 
ATOM      5  H   UNL     1       2.330   5.897  20.730  0.00  0.00    +0.000 HD
ATOM      6  H   UNL     1       2.086   7.678  22.188  0.00  0.00    +0.000 HD
ENDROOT
BRANCH   4   7
ATOM      7  C   UNL     1       0.786   9.265  21.827  0.00  0.00    +0.000 A 
ATOM      8  C   UNL     1      -0.142   9.267  22.875  0.00  0.00    +0.000 A 
ATOM      9  C   UNL     1      -0.934  10.388  23.138  0.00  0.00    +0.000 A 
ATOM     10  C   UNL     1      -0.788  11.529  22.362  0.00  0.00    +0.000 A 
ATOM     11 CL   UNL     1      -1.797  12.891  22.649  0.00  0.00    +0.000 Cl
ATOM     12  C   UNL     1       0.170  11.567  21.349  0.00  0.00    +0.000 A 
ATOM     13  C   UNL     1       0.963  10.442  21.089  0.00  0.00    +0.000 A 
ENDBRANCH   4   7
BRANCH   1  14
ATOM     14  C   UNL     1       3.010   6.214  18.741  0.00  0.00    +0.000 C 
BRANCH  14  15
ATOM     15  C   UNL     1       3.480   4.768  18.628  0.00  0.00    +0.000 C 
BRANCH  15  21
ATOM     16  C   UNL     1       6.066   3.953  14.358  0.00  0.00    +0.000 C 
ATOM     17  C   UNL     1       6.049   4.294  15.819  0.00  0.00    +0.000 A 
ATOM     18  C   UNL     1       7.242   4.535  16.508  0.00  0.00    +0.000 A 
ATOM     19  C   UNL     1       7.218   4.854  17.865  0.00  0.00    +0.000 A 
ATOM     20  C   UNL     1       6.002   4.926  18.548  0.00  0.00    +0.000 A 
ATOM     21  C   UNL     1       4.795   4.674  17.883  0.00  0.00    +0.000 A 
ATOM     22  C   UNL     1       4.830   4.370  16.513  0.00  0.00    +0.000 A 
ENDBRANCH  15  21
ENDBRANCH  14  15
ENDBRANCH   1  14
TORSDOF 4
ENDMDL
MODEL 9
REMARK VINA RESULT:      -7.2      5.860      7.172
REMARK  Name = 
REMARK  5 active torsions:
REMARK  status: ('A' for Active; 'I' for Inactive)
REMARK    1  A    between atoms: C_1  and  C_2
REMARK    2  A    between atoms: C_6  and  C_7
REMARK    3  A    between atoms: C_7  and  C_8
REMARK    4  A    between atoms: C_8  and  N_9
REMARK    5  A    between atoms: N_12  and  C_13
REMARK                            x       y       z     vdW  Elec       q    Type
REMARK                         _______ _______ _______ _____ _____    ______ ____
ROOT
ATOM      1  N   UNL     1       3.566   7.471  17.539  0.00  0.00    +0.000 N 
ATOM      2  C   UNL     1       2.577   8.077  18.296  0.00  0.00    +0.000 C 
ATOM      3  O   UNL     1       2.222   7.605  19.374  0.00  0.00    +0.000 OA
ATOM      4  N   UNL     1       2.039   9.189  17.687  0.00  0.00    +0.000 N 
ATOM      5  H   UNL     1       4.158   8.108  17.028  0.00  0.00    +0.000 HD
ATOM      6  H   UNL     1       2.168   9.242  16.689  0.00  0.00    +0.000 HD
ENDROOT
BRANCH   4   7
ATOM      7  C   UNL     1       1.010   9.986  18.252  0.00  0.00    +0.000 A 
ATOM      8  C   UNL     1       1.269  11.041  19.136  0.00  0.00    +0.000 A 
ATOM      9  C   UNL     1       0.229  11.740  19.753  0.00  0.00    +0.000 A 
ATOM     10  C   UNL     1      -1.088  11.400  19.474  0.00  0.00    +0.000 A 
ATOM     11 CL   UNL     1      -2.369  12.223  20.271  0.00  0.00    +0.000 Cl
ATOM     12  C   UNL     1      -1.368  10.390  18.553  0.00  0.00    +0.000 A 
ATOM     13  C   UNL     1      -0.322   9.692  17.935  0.00  0.00    +0.000 A 
ENDBRANCH   4   7
BRANCH   1  14
ATOM     14  C   UNL     1       4.191   6.293  18.134  0.00  0.00    +0.000 C 
BRANCH  14  15
ATOM     15  C   UNL     1       3.823   4.973  17.462  0.00  0.00    +0.000 C 
BRANCH  15  21
ATOM     16  C   UNL     1       2.207   3.288  21.948  0.00  0.00    +0.000 C 
ATOM     17  C   UNL     1       2.036   3.384  20.461  0.00  0.00    +0.000 A 
ATOM     18  C   UNL     1       0.956   2.762  19.826  0.00  0.00    +0.000 A 
ATOM     19  C   UNL     1       0.802   2.860  18.444  0.00  0.00    +0.000 A 
ATOM     20  C   UNL     1       1.730   3.572  17.682  0.00  0.00    +0.000 A 
ATOM     21  C   UNL     1       2.829   4.191  18.293  0.00  0.00    +0.000 A 
ATOM     22  C   UNL     1       2.965   4.101  19.688  0.00  0.00    +0.000 A 
ENDBRANCH  15  21
ENDBRANCH  14  15
ENDBRANCH   1  14
TORSDOF 4
ENDMDL
