MODEL 1
REMARK VINA RESULT:      -7.9      0.000      0.000
REMARK  Name = 
REMARK  7 active torsions:
REMARK  status: ('A' for Active; 'I' for Inactive)
REMARK    1  A    between atoms: C_1  and  O_2
REMARK    2  A    between atoms: O_2  and  C_3
REMARK    3  A    between atoms: C_8  and  O_9
REMARK    4  A    between atoms: O_9  and  C_10
REMARK    5  A    between atoms: C_14  and  C_15
REMARK    6  A    between atoms: C_17  and  N_18
REMARK    7  A    between atoms: C_23  and  O_24
REMARK                            x       y       z     vdW  Elec       q    Type
REMARK                         _______ _______ _______ _____ _____    ______ ____
ROOT
ATOM      1  C   UNL     1       1.859   8.698  18.817  0.00  0.00    +0.000 A 
ATOM      2  C   UNL     1       2.719   8.348  17.767  0.00  0.00    +0.000 A 
ATOM      3  C   UNL     1       3.348   7.122  17.813  0.00  0.00    +0.000 A 
ATOM      4  C   UNL     1       3.159   6.268  18.894  0.00  0.00    +0.000 A 
ATOM      5  C   UNL     1       2.358   6.603  19.975  0.00  0.00    +0.000 A 
ATOM      6  C   UNL     1       1.698   7.838  19.939  0.00  0.00    +0.000 A 
ATOM      7  C   UNL     1       3.914   5.029  18.664  0.00  0.00    +0.000 C 
ATOM      8  O   UNL     1       3.977   4.082  19.419  0.00  0.00    +0.000 OA
ATOM      9  C   UNL     1       4.571   5.169  17.325  0.00  0.00    +0.000 C 
ATOM     10  C   UNL     1       5.260   4.176  16.750  0.00  0.00    +0.000 C 
ATOM     11  C   UNL     1       4.259   6.535  16.779  0.00  0.00    +0.000 C 
ENDROOT
BRANCH  10  12
ATOM     12  C   UNL     1       5.868   4.308  15.420  0.00  0.00    +0.000 A 
ATOM     13  C   UNL     1       5.299   3.611  14.346  0.00  0.00    +0.000 A 
ATOM     14  C   UNL     1       5.858   3.732  13.066  0.00  0.00    +0.000 A 
ATOM     15  C   UNL     1       6.981   4.543  12.848  0.00  0.00    +0.000 A 
ATOM     16  C   UNL     1       7.559   5.224  13.922  0.00  0.00    +0.000 A 
ATOM     17  C   UNL     1       7.007   5.098  15.198  0.00  0.00    +0.000 A 
BRANCH  14  18
ATOM     18  N   UNL     1       5.266   2.996  11.943  0.00  0.00    +0.000 N 
ATOM     19  O   UNL     1       5.857   1.985  11.541  0.00  0.00    +0.000 OA
ATOM     20  O   UNL     1       4.213   3.435  11.459  0.00  0.00    +0.000 OA
ENDBRANCH  14  18
BRANCH  17  21
ATOM     21  O   UNL     1       7.587   5.742  16.255  0.00  0.00    +0.000 OA
ATOM     22  H   UNL     1       7.913   6.611  15.968  0.00  0.00    +0.000 HD
ENDBRANCH  17  21
ENDBRANCH  10  12
BRANCH   1  24
ATOM     23  C   UNL     1      -0.011   9.902  18.020  0.00  0.00    +0.000 C 
ATOM     24  O   UNL     1       1.169   9.890  18.822  0.00  0.00    +0.000 OA
ENDBRANCH   1  24
BRANCH   6  25
ATOM     25  O   UNL     1       0.861   8.293  20.929  0.00  0.00    +0.000 OA
ATOM     26  C   UNL     1       1.453   8.987  22.021  0.00  0.00    +0.000 C 
ENDBRANCH   6  25
TORSDOF 5
ENDMDL
MODEL 2
REMARK VINA RESULT:      -7.5      3.048      3.431
REMARK  Name = 
REMARK  7 active torsions:
REMARK  status: ('A' for Active; 'I' for Inactive)
REMARK    1  A    between atoms: C_1  and  O_2
REMARK    2  A    between atoms: O_2  and  C_3
REMARK    3  A    between atoms: C_8  and  O_9
REMARK    4  A    between atoms: O_9  and  C_10
REMARK    5  A    between atoms: C_14  and  C_15
REMARK    6  A    between atoms: C_17  and  N_18
REMARK    7  A    between atoms: C_23  and  O_24
REMARK                            x       y       z     vdW  Elec       q    Type
REMARK                         _______ _______ _______ _____ _____    ______ ____
ROOT
ATOM      1  C   UNL     1       2.163   3.988  18.790  0.00  0.00    +0.000 A 
ATOM      2  C   UNL     1       2.628   4.103  17.473  0.00  0.00    +0.000 A 
ATOM      3  C   UNL     1       3.975   4.313  17.267  0.00  0.00    +0.000 A 
ATOM      4  C   UNL     1       4.845   4.442  18.344  0.00  0.00    +0.000 A 
ATOM      5  C   UNL     1       4.413   4.386  19.660  0.00  0.00    +0.000 A 
ATOM      6  C   UNL     1       3.050   4.158  19.889  0.00  0.00    +0.000 A 
ATOM      7  C   UNL     1       6.212   4.620  17.837  0.00  0.00    +0.000 C 
ATOM      8  O   UNL     1       7.208   4.776  18.512  0.00  0.00    +0.000 OA
ATOM      9  C   UNL     1       6.128   4.561  16.343  0.00  0.00    +0.000 C 
ATOM     10  C   UNL     1       7.209   4.586  15.555  0.00  0.00    +0.000 C 
ATOM     11  C   UNL     1       4.683   4.413  15.951  0.00  0.00    +0.000 C 
ENDROOT
BRANCH  10  12
ATOM     12  C   UNL     1       7.120   4.489  14.093  0.00  0.00    +0.000 A 
ATOM     13  C   UNL     1       6.224   3.570  13.532  0.00  0.00    +0.000 A 
ATOM     14  C   UNL     1       6.115   3.469  12.138  0.00  0.00    +0.000 A 
ATOM     15  C   UNL     1       6.894   4.277  11.298  0.00  0.00    +0.000 A 
ATOM     16  C   UNL     1       7.801   5.181  11.857  0.00  0.00    +0.000 A 
ATOM     17  C   UNL     1       7.915   5.276  13.245  0.00  0.00    +0.000 A 
BRANCH  14  18
ATOM     18  N   UNL     1       5.181   2.501  11.550  0.00  0.00    +0.000 N 
ATOM     19  O   UNL     1       5.592   1.349  11.356  0.00  0.00    +0.000 OA
ATOM     20  O   UNL     1       4.039   2.897  11.278  0.00  0.00    +0.000 OA
ENDBRANCH  14  18
BRANCH  17  21
ATOM     21  O   UNL     1       8.820   6.141  13.794  0.00  0.00    +0.000 OA
ATOM     22  H   UNL     1       9.507   6.352  13.140  0.00  0.00    +0.000 HD
ENDBRANCH  17  21
ENDBRANCH  10  12
BRANCH   1  24
ATOM     23  C   UNL     1       0.421   2.394  18.864  0.00  0.00    +0.000 C 
ATOM     24  O   UNL     1       0.837   3.743  19.071  0.00  0.00    +0.000 OA
ENDBRANCH   1  24
BRANCH   6  25
ATOM     25  O   UNL     1       2.484   4.062  21.138  0.00  0.00    +0.000 OA
ATOM     26  C   UNL     1       2.493   2.787  21.767  0.00  0.00    +0.000 C 
ENDBRANCH   6  25
TORSDOF 5
ENDMDL
MODEL 3
REMARK VINA RESULT:      -7.4      4.146      5.887
REMARK  Name = 
REMARK  7 active torsions:
REMARK  status: ('A' for Active; 'I' for Inactive)
REMARK    1  A    between atoms: C_1  and  O_2
REMARK    2  A    between atoms: O_2  and  C_3
REMARK    3  A    between atoms: C_8  and  O_9
REMARK    4  A    between atoms: O_9  and  C_10
REMARK    5  A    between atoms: C_14  and  C_15
REMARK    6  A    between atoms: C_17  and  N_18
REMARK    7  A    between atoms: C_23  and  O_24
REMARK                            x       y       z     vdW  Elec       q    Type
REMARK                         _______ _______ _______ _____ _____    ______ ____
ROOT
ATOM      1  C   UNL     1       0.151  11.043  21.748  0.00  0.00    +0.000 A 
ATOM      2  C   UNL     1       0.527   9.695  21.684  0.00  0.00    +0.000 A 
ATOM      3  C   UNL     1       1.073   9.218  20.511  0.00  0.00    +0.000 A 
ATOM      4  C   UNL     1       1.213  10.051  19.405  0.00  0.00    +0.000 A 
ATOM      5  C   UNL     1       0.805  11.375  19.415  0.00  0.00    +0.000 A 
ATOM      6  C   UNL     1       0.262  11.881  20.603  0.00  0.00    +0.000 A 
ATOM      7  C   UNL     1       1.850   9.297  18.317  0.00  0.00    +0.000 C 
ATOM      8  O   UNL     1       2.104   9.723  17.209  0.00  0.00    +0.000 OA
ATOM      9  C   UNL     1       2.125   7.924  18.848  0.00  0.00    +0.000 C 
ATOM     10  C   UNL     1       2.795   6.999  18.150  0.00  0.00    +0.000 C 
ATOM     11  C   UNL     1       1.584   7.836  20.249  0.00  0.00    +0.000 C 
ENDROOT
BRANCH  10  12
ATOM     12  C   UNL     1       3.093   5.668  18.693  0.00  0.00    +0.000 A 
ATOM     13  C   UNL     1       2.035   4.877  19.159  0.00  0.00    +0.000 A 
ATOM     14  C   UNL     1       2.298   3.598  19.671  0.00  0.00    +0.000 A 
ATOM     15  C   UNL     1       3.609   3.102  19.724  0.00  0.00    +0.000 A 
ATOM     16  C   UNL     1       4.665   3.898  19.277  0.00  0.00    +0.000 A 
ATOM     17  C   UNL     1       4.405   5.174  18.773  0.00  0.00    +0.000 A 
BRANCH  14  18
ATOM     18  N   UNL     1       1.190   2.772  20.165  0.00  0.00    +0.000 N 
ATOM     19  O   UNL     1       1.154   2.521  21.377  0.00  0.00    +0.000 OA
ATOM     20  O   UNL     1       0.360   2.369  19.338  0.00  0.00    +0.000 OA
ENDBRANCH  14  18
BRANCH  17  21
ATOM     21  O   UNL     1       5.441   5.965  18.359  0.00  0.00    +0.000 OA
ATOM     22  H   UNL     1       6.268   5.456  18.380  0.00  0.00    +0.000 HD
ENDBRANCH  17  21
ENDBRANCH  10  12
BRANCH   1  24
ATOM     23  C   UNL     1      -1.722  11.245  23.173  0.00  0.00    +0.000 C 
ATOM     24  O   UNL     1      -0.367  11.598  22.897  0.00  0.00    +0.000 OA
ENDBRANCH   1  24
BRANCH   6  25
ATOM     25  O   UNL     1      -0.169  13.176  20.763  0.00  0.00    +0.000 OA
ATOM     26  C   UNL     1      -1.351  13.564  20.074  0.00  0.00    +0.000 C 
ENDBRANCH   6  25
TORSDOF 5
ENDMDL
MODEL 4
REMARK VINA RESULT:      -7.4      4.714      8.774
REMARK  Name = 
REMARK  7 active torsions:
REMARK  status: ('A' for Active; 'I' for Inactive)
REMARK    1  A    between atoms: C_1  and  O_2
REMARK    2  A    between atoms: O_2  and  C_3
REMARK    3  A    between atoms: C_8  and  O_9
REMARK    4  A    between atoms: O_9  and  C_10
REMARK    5  A    between atoms: C_14  and  C_15
REMARK    6  A    between atoms: C_17  and  N_18
REMARK    7  A    between atoms: C_23  and  O_24
REMARK                            x       y       z     vdW  Elec       q    Type
REMARK                         _______ _______ _______ _____ _____    ______ ____
ROOT
ATOM      1  C   UNL     1       2.750   4.212  20.582  0.00  0.00    +0.000 A 
ATOM      2  C   UNL     1       2.129   5.452  20.786  0.00  0.00    +0.000 A 
ATOM      3  C   UNL     1       2.296   6.436  19.835  0.00  0.00    +0.000 A 
ATOM      4  C   UNL     1       3.091   6.212  18.716  0.00  0.00    +0.000 A 
ATOM      5  C   UNL     1       3.762   5.018  18.507  0.00  0.00    +0.000 A 
ATOM      6  C   UNL     1       3.593   4.001  19.455  0.00  0.00    +0.000 A 
ATOM      7  C   UNL     1       3.060   7.406  17.860  0.00  0.00    +0.000 C 
ATOM      8  O   UNL     1       3.658   7.549  16.814  0.00  0.00    +0.000 OA
ATOM      9  C   UNL     1       2.149   8.390  18.528  0.00  0.00    +0.000 C 
ATOM     10  C   UNL     1       1.810   9.557  17.968  0.00  0.00    +0.000 C 
ATOM     11  C   UNL     1       1.683   7.802  19.831  0.00  0.00    +0.000 C 
ENDROOT
BRANCH  10  12
ATOM     12  C   UNL     1       0.885  10.499  18.612  0.00  0.00    +0.000 A 
ATOM     13  C   UNL     1       1.368  11.325  19.635  0.00  0.00    +0.000 A 
ATOM     14  C   UNL     1       0.504  12.238  20.256  0.00  0.00    +0.000 A 
ATOM     15  C   UNL     1      -0.839  12.335  19.864  0.00  0.00    +0.000 A 
ATOM     16  C   UNL     1      -1.325  11.499  18.856  0.00  0.00    +0.000 A 
ATOM     17  C   UNL     1      -0.467  10.584  18.243  0.00  0.00    +0.000 A 
BRANCH  14  18
ATOM     18  N   UNL     1       1.009  13.098  21.333  0.00  0.00    +0.000 N 
ATOM     19  O   UNL     1       0.193  13.520  22.164  0.00  0.00    +0.000 OA
ATOM     20  O   UNL     1       2.221  13.357  21.342  0.00  0.00    +0.000 OA
ENDBRANCH  14  18
BRANCH  17  21
ATOM     21  O   UNL     1      -0.947   9.747  17.275  0.00  0.00    +0.000 OA
ATOM     22  H   UNL     1      -0.413   8.936  17.251  0.00  0.00    +0.000 HD
ENDBRANCH  17  21
ENDBRANCH  10  12
BRANCH   1  24
ATOM     23  C   UNL     1       1.295   2.597  21.505  0.00  0.00    +0.000 C 
ATOM     24  O   UNL     1       2.601   3.172  21.471  0.00  0.00    +0.000 OA
ENDBRANCH   1  24
BRANCH   6  25
ATOM     25  O   UNL     1       4.183   2.763  19.370  0.00  0.00    +0.000 OA
ATOM     26  C   UNL     1       3.644   1.843  18.428  0.00  0.00    +0.000 C 
ENDBRANCH   6  25
TORSDOF 5
ENDMDL
MODEL 5
REMARK VINA RESULT:      -7.4      2.907      4.639
REMARK  Name = 
REMARK  7 active torsions:
REMARK  status: ('A' for Active; 'I' for Inactive)
REMARK    1  A    between atoms: C_1  and  O_2
REMARK    2  A    between atoms: O_2  and  C_3
REMARK    3  A    between atoms: C_8  and  O_9
REMARK    4  A    between atoms: O_9  and  C_10
REMARK    5  A    between atoms: C_14  and  C_15
REMARK    6  A    between atoms: C_17  and  N_18
REMARK    7  A    between atoms: C_23  and  O_24
REMARK                            x       y       z     vdW  Elec       q    Type
REMARK                         _______ _______ _______ _____ _____    ______ ____
ROOT
ATOM      1  C   UNL     1      -0.694  11.004  18.400  0.00  0.00    +0.000 A 
ATOM      2  C   UNL     1       0.193  10.089  17.816  0.00  0.00    +0.000 A 
ATOM      3  C   UNL     1       0.875   9.218  18.638  0.00  0.00    +0.000 A 
ATOM      4  C   UNL     1       0.712   9.271  20.019  0.00  0.00    +0.000 A 
ATOM      5  C   UNL     1      -0.116  10.196  20.635  0.00  0.00    +0.000 A 
ATOM      6  C   UNL     1      -0.830  11.080  19.814  0.00  0.00    +0.000 A 
ATOM      7  C   UNL     1       1.523   8.214  20.637  0.00  0.00    +0.000 C 
ATOM      8  O   UNL     1       1.619   7.994  21.827  0.00  0.00    +0.000 OA
ATOM      9  C   UNL     1       2.189   7.473  19.520  0.00  0.00    +0.000 C 
ATOM     10  C   UNL     1       2.928   6.375  19.718  0.00  0.00    +0.000 C 
ATOM     11  C   UNL     1       1.823   8.137  18.221  0.00  0.00    +0.000 C 
ENDROOT
BRANCH  10  12
ATOM     12  C   UNL     1       3.545   5.632  18.613  0.00  0.00    +0.000 A 
ATOM     13  C   UNL     1       4.858   5.946  18.238  0.00  0.00    +0.000 A 
ATOM     14  C   UNL     1       5.469   5.241  17.192  0.00  0.00    +0.000 A 
ATOM     15  C   UNL     1       4.781   4.224  16.515  0.00  0.00    +0.000 A 
ATOM     16  C   UNL     1       3.466   3.922  16.876  0.00  0.00    +0.000 A 
ATOM     17  C   UNL     1       2.854   4.629  17.913  0.00  0.00    +0.000 A 
BRANCH  14  18
ATOM     18  N   UNL     1       6.842   5.576  16.795  0.00  0.00    +0.000 N 
ATOM     19  O   UNL     1       7.061   6.728  16.396  0.00  0.00    +0.000 OA
ATOM     20  O   UNL     1       7.698   4.684  16.877  0.00  0.00    +0.000 OA
ENDBRANCH  14  18
BRANCH  17  21
ATOM     21  O   UNL     1       1.559   4.354  18.251  0.00  0.00    +0.000 OA
ATOM     22  H   UNL     1       1.084   4.015  17.474  0.00  0.00    +0.000 HD
ENDBRANCH  17  21
ENDBRANCH  10  12
BRANCH   1  24
ATOM     23  C   UNL     1      -2.503  11.281  16.905  0.00  0.00    +0.000 C 
ATOM     24  O   UNL     1      -1.436  11.881  17.640  0.00  0.00    +0.000 OA
ENDBRANCH   1  24
BRANCH   6  25
ATOM     25  O   UNL     1      -1.698  12.036  20.284  0.00  0.00    +0.000 OA
ATOM     26  C   UNL     1      -1.144  13.122  21.017  0.00  0.00    +0.000 C 
ENDBRANCH   6  25
TORSDOF 5
ENDMDL
MODEL 6
REMARK VINA RESULT:      -7.3      4.791      9.016
REMARK  Name = 
REMARK  7 active torsions:
REMARK  status: ('A' for Active; 'I' for Inactive)
REMARK    1  A    between atoms: C_1  and  O_2
REMARK    2  A    between atoms: O_2  and  C_3
REMARK    3  A    between atoms: C_8  and  O_9
REMARK    4  A    between atoms: O_9  and  C_10
REMARK    5  A    between atoms: C_14  and  C_15
REMARK    6  A    between atoms: C_17  and  N_18
REMARK    7  A    between atoms: C_23  and  O_24
REMARK                            x       y       z     vdW  Elec       q    Type
REMARK                         _______ _______ _______ _____ _____    ______ ____
ROOT
ATOM      1  C   UNL     1       2.723   3.811  20.555  0.00  0.00    +0.000 A 
ATOM      2  C   UNL     1       1.972   4.953  20.865  0.00  0.00    +0.000 A 
ATOM      3  C   UNL     1       2.089   6.059  20.050  0.00  0.00    +0.000 A 
ATOM      4  C   UNL     1       2.959   6.051  18.964  0.00  0.00    +0.000 A 
ATOM      5  C   UNL     1       3.755   4.958  18.658  0.00  0.00    +0.000 A 
ATOM      6  C   UNL     1       3.639   3.820  19.466  0.00  0.00    +0.000 A 
ATOM      7  C   UNL     1       2.854   7.334  18.257  0.00  0.00    +0.000 C 
ATOM      8  O   UNL     1       3.487   7.660  17.275  0.00  0.00    +0.000 OA
ATOM      9  C   UNL     1       1.817   8.139  18.978  0.00  0.00    +0.000 C 
ATOM     10  C   UNL     1       1.393   9.330  18.541  0.00  0.00    +0.000 C 
ATOM     11  C   UNL     1       1.346   7.353  20.171  0.00  0.00    +0.000 C 
ENDROOT
BRANCH  10  12
ATOM     12  C   UNL     1       0.348  10.095  19.233  0.00  0.00    +0.000 A 
ATOM     13  C   UNL     1       0.428  10.241  20.624  0.00  0.00    +0.000 A 
ATOM     14  C   UNL     1      -0.554  10.977  21.302  0.00  0.00    +0.000 A 
ATOM     15  C   UNL     1      -1.616  11.569  20.604  0.00  0.00    +0.000 A 
ATOM     16  C   UNL     1      -1.706  11.408  19.220  0.00  0.00    +0.000 A 
ATOM     17  C   UNL     1      -0.733  10.670  18.545  0.00  0.00    +0.000 A 
BRANCH  14  18
ATOM     18  N   UNL     1      -0.473  11.123  22.761  0.00  0.00    +0.000 N 
ATOM     19  O   UNL     1      -0.939  12.156  23.263  0.00  0.00    +0.000 OA
ATOM     20  O   UNL     1       0.063  10.208  23.402  0.00  0.00    +0.000 OA
ENDBRANCH  14  18
BRANCH  17  21
ATOM     21  O   UNL     1      -0.833  10.489  17.193  0.00  0.00    +0.000 OA
ATOM     22  H   UNL     1       0.047  10.556  16.789  0.00  0.00    +0.000 HD
ENDBRANCH  17  21
ENDBRANCH  10  12
BRANCH   1  24
ATOM     23  C   UNL     1       1.416   2.516  22.036  0.00  0.00    +0.000 C 
ATOM     24  O   UNL     1       2.632   2.658  21.302  0.00  0.00    +0.000 OA
ENDBRANCH   1  24
BRANCH   6  25
ATOM     25  O   UNL     1       4.352   2.661  19.271  0.00  0.00    +0.000 OA
ATOM     26  C   UNL     1       3.773   1.666  18.436  0.00  0.00    +0.000 C 
ENDBRANCH   6  25
TORSDOF 5
ENDMDL
MODEL 7
REMARK VINA RESULT:      -7.3      2.994      4.497
REMARK  Name = 
REMARK  7 active torsions:
REMARK  status: ('A' for Active; 'I' for Inactive)
REMARK    1  A    between atoms: C_1  and  O_2
REMARK    2  A    between atoms: O_2  and  C_3
REMARK    3  A    between atoms: C_8  and  O_9
REMARK    4  A    between atoms: O_9  and  C_10
REMARK    5  A    between atoms: C_14  and  C_15
REMARK    6  A    between atoms: C_17  and  N_18
REMARK    7  A    between atoms: C_23  and  O_24
REMARK                            x       y       z     vdW  Elec       q    Type
REMARK                         _______ _______ _______ _____ _____    ______ ____
ROOT
ATOM      1  C   UNL     1       0.882  11.314  18.784  0.00  0.00    +0.000 A 
ATOM      2  C   UNL     1       1.726  10.331  18.250  0.00  0.00    +0.000 A 
ATOM      3  C   UNL     1       1.848   9.133  18.922  0.00  0.00    +0.000 A 
ATOM      4  C   UNL     1       1.175   8.921  20.121  0.00  0.00    +0.000 A 
ATOM      5  C   UNL     1       0.374   9.889  20.705  0.00  0.00    +0.000 A 
ATOM      6  C   UNL     1       0.225  11.107  20.029  0.00  0.00    +0.000 A 
ATOM      7  C   UNL     1       1.456   7.559  20.593  0.00  0.00    +0.000 C 
ATOM      8  O   UNL     1       1.036   7.058  21.616  0.00  0.00    +0.000 OA
ATOM      9  C   UNL     1       2.342   6.922  19.568  0.00  0.00    +0.000 C 
ATOM     10  C   UNL     1       2.714   5.638  19.628  0.00  0.00    +0.000 C 
ATOM     11  C   UNL     1       2.649   7.940  18.503  0.00  0.00    +0.000 C 
ENDROOT
BRANCH  10  12
ATOM     12  C   UNL     1       3.551   5.012  18.598  0.00  0.00    +0.000 A 
ATOM     13  C   UNL     1       4.943   5.136  18.693  0.00  0.00    +0.000 A 
ATOM     14  C   UNL     1       5.761   4.536  17.725  0.00  0.00    +0.000 A 
ATOM     15  C   UNL     1       5.202   3.814  16.662  0.00  0.00    +0.000 A 
ATOM     16  C   UNL     1       3.814   3.705  16.556  0.00  0.00    +0.000 A 
ATOM     17  C   UNL     1       2.998   4.308  17.516  0.00  0.00    +0.000 A 
BRANCH  14  18
ATOM     18  N   UNL     1       7.220   4.672  17.822  0.00  0.00    +0.000 N 
ATOM     19  O   UNL     1       7.889   4.437  16.806  0.00  0.00    +0.000 OA
ATOM     20  O   UNL     1       7.694   5.007  18.916  0.00  0.00    +0.000 OA
ENDBRANCH  14  18
BRANCH  17  21
ATOM     21  O   UNL     1       1.639   4.226  17.400  0.00  0.00    +0.000 OA
ATOM     22  H   UNL     1       1.384   3.311  17.194  0.00  0.00    +0.000 HD
ENDBRANCH  17  21
ENDBRANCH  10  12
BRANCH   1  24
ATOM     23  C   UNL     1       1.803  13.404  18.179  0.00  0.00    +0.000 C 
ATOM     24  O   UNL     1       0.683  12.521  18.150  0.00  0.00    +0.000 OA
ENDBRANCH   1  24
BRANCH   6  25
ATOM     25  O   UNL     1      -0.550  12.149  20.480  0.00  0.00    +0.000 OA
ATOM     26  C   UNL     1      -1.363  11.915  21.623  0.00  0.00    +0.000 C 
ENDBRANCH   6  25
TORSDOF 5
ENDMDL
MODEL 8
REMARK VINA RESULT:      -7.2      3.626      5.766
REMARK  Name = 
REMARK  7 active torsions:
REMARK  status: ('A' for Active; 'I' for Inactive)
REMARK    1  A    between atoms: C_1  and  O_2
REMARK    2  A    between atoms: O_2  and  C_3
REMARK    3  A    between atoms: C_8  and  O_9
REMARK    4  A    between atoms: O_9  and  C_10
REMARK    5  A    between atoms: C_14  and  C_15
REMARK    6  A    between atoms: C_17  and  N_18
REMARK    7  A    between atoms: C_23  and  O_24
REMARK                            x       y       z     vdW  Elec       q    Type
REMARK                         _______ _______ _______ _____ _____    ______ ____
ROOT
ATOM      1  C   UNL     1       0.497  10.396  21.782  0.00  0.00    +0.000 A 
ATOM      2  C   UNL     1       0.855   9.048  21.647  0.00  0.00    +0.000 A 
ATOM      3  C   UNL     1       1.330   8.611  20.429  0.00  0.00    +0.000 A 
ATOM      4  C   UNL     1       1.418   9.484  19.349  0.00  0.00    +0.000 A 
ATOM      5  C   UNL     1       1.025  10.810  19.430  0.00  0.00    +0.000 A 
ATOM      6  C   UNL     1       0.554  11.276  20.665  0.00  0.00    +0.000 A 
ATOM      7  C   UNL     1       1.987   8.767  18.200  0.00  0.00    +0.000 C 
ATOM      8  O   UNL     1       2.184   9.231  17.096  0.00  0.00    +0.000 OA
ATOM      9  C   UNL     1       2.275   7.372  18.663  0.00  0.00    +0.000 C 
ATOM     10  C   UNL     1       2.896   6.468  17.896  0.00  0.00    +0.000 C 
ATOM     11  C   UNL     1       1.812   7.236  20.087  0.00  0.00    +0.000 C 
ENDROOT
BRANCH  10  12
ATOM     12  C   UNL     1       3.210   5.115  18.372  0.00  0.00    +0.000 A 
ATOM     13  C   UNL     1       2.551   4.630  19.508  0.00  0.00    +0.000 A 
ATOM     14  C   UNL     1       2.829   3.336  19.972  0.00  0.00    +0.000 A 
ATOM     15  C   UNL     1       3.760   2.522  19.312  0.00  0.00    +0.000 A 
ATOM     16  C   UNL     1       4.431   3.013  18.189  0.00  0.00    +0.000 A 
ATOM     17  C   UNL     1       4.160   4.303  17.731  0.00  0.00    +0.000 A 
BRANCH  14  18
ATOM     18  N   UNL     1       2.143   2.831  21.167  0.00  0.00    +0.000 N 
ATOM     19  O   UNL     1       0.904   2.861  21.176  0.00  0.00    +0.000 OA
ATOM     20  O   UNL     1       2.844   2.412  22.099  0.00  0.00    +0.000 OA
ENDBRANCH  14  18
BRANCH  17  21
ATOM     21  O   UNL     1       4.835   4.795  16.648  0.00  0.00    +0.000 OA
ATOM     22  H   UNL     1       4.641   5.741  16.545  0.00  0.00    +0.000 HD
ENDBRANCH  17  21
ENDBRANCH  10  12
BRANCH   1  24
ATOM     23  C   UNL     1      -1.348  10.737  23.218  0.00  0.00    +0.000 C 
ATOM     24  O   UNL     1       0.048  10.911  22.977  0.00  0.00    +0.000 OA
ENDBRANCH   1  24
BRANCH   6  25
ATOM     25  O   UNL     1       0.146  12.567  20.896  0.00  0.00    +0.000 OA
ATOM     26  C   UNL     1      -1.052  13.001  20.261  0.00  0.00    +0.000 C 
ENDBRANCH   6  25
TORSDOF 5
ENDMDL
MODEL 9
REMARK VINA RESULT:      -7.2      4.772      9.061
REMARK  Name = 
REMARK  7 active torsions:
REMARK  status: ('A' for Active; 'I' for Inactive)
REMARK    1  A    between atoms: C_1  and  O_2
REMARK    2  A    between atoms: O_2  and  C_3
REMARK    3  A    between atoms: C_8  and  O_9
REMARK    4  A    between atoms: O_9  and  C_10
REMARK    5  A    between atoms: C_14  and  C_15
REMARK    6  A    between atoms: C_17  and  N_18
REMARK    7  A    between atoms: C_23  and  O_24
REMARK                            x       y       z     vdW  Elec       q    Type
REMARK                         _______ _______ _______ _____ _____    ______ ____
ROOT
ATOM      1  C   UNL     1       2.665   4.355  20.372  0.00  0.00    +0.000 A 
ATOM      2  C   UNL     1       2.141   5.574  20.824  0.00  0.00    +0.000 A 
ATOM      3  C   UNL     1       2.159   6.656  19.970  0.00  0.00    +0.000 A 
ATOM      4  C   UNL     1       2.716   6.547  18.700  0.00  0.00    +0.000 A 
ATOM      5  C   UNL     1       3.290   5.373  18.238  0.00  0.00    +0.000 A 
ATOM      6  C   UNL     1       3.267   4.258  19.087  0.00  0.00    +0.000 A 
ATOM      7  C   UNL     1       2.566   7.830  18.000  0.00  0.00    +0.000 C 
ATOM      8  O   UNL     1       2.957   8.079  16.878  0.00  0.00    +0.000 OA
ATOM      9  C   UNL     1       1.838   8.747  18.933  0.00  0.00    +0.000 C 
ATOM     10  C   UNL     1       1.441   9.975  18.579  0.00  0.00    +0.000 C 
ATOM     11  C   UNL     1       1.609   8.023  20.232  0.00  0.00    +0.000 C 
ENDROOT
BRANCH  10  12
ATOM     12  C   UNL     1       0.693  10.853  19.487  0.00  0.00    +0.000 A 
ATOM     13  C   UNL     1       0.341  10.370  20.754  0.00  0.00    +0.000 A 
ATOM     14  C   UNL     1      -0.363  11.196  21.641  0.00  0.00    +0.000 A 
ATOM     15  C   UNL     1      -0.721  12.501  21.273  0.00  0.00    +0.000 A 
ATOM     16  C   UNL     1      -0.386  12.977  20.004  0.00  0.00    +0.000 A 
ATOM     17  C   UNL     1       0.310  12.152  19.118  0.00  0.00    +0.000 A 
BRANCH  14  18
ATOM     18  N   UNL     1      -0.738  10.687  22.965  0.00  0.00    +0.000 N 
ATOM     19  O   UNL     1      -1.839  11.024  23.422  0.00  0.00    +0.000 OA
ATOM     20  O   UNL     1       0.073   9.956  23.551  0.00  0.00    +0.000 OA
ENDBRANCH  14  18
BRANCH  17  21
ATOM     21  O   UNL     1       0.615  12.606  17.865  0.00  0.00    +0.000 OA
ATOM     22  H   UNL     1       0.739  11.851  17.266  0.00  0.00    +0.000 HD
ENDBRANCH  17  21
ENDBRANCH  10  12
BRANCH   1  24
ATOM     23  C   UNL     1       1.348   2.713  21.445  0.00  0.00    +0.000 C 
ATOM     24  O   UNL     1       2.649   3.224  21.156  0.00  0.00    +0.000 OA
ENDBRANCH   1  24
BRANCH   6  25
ATOM     25  O   UNL     1       3.783   3.028  18.756  0.00  0.00    +0.000 OA
ATOM     26  C   UNL     1       3.042   2.230  17.840  0.00  0.00    +0.000 C 
ENDBRANCH   6  25
TORSDOF 5
ENDMDL
