MODEL 1
REMARK VINA RESULT:      -7.5      0.000      0.000
REMARK  Name = 
REMARK  7 active torsions:
REMARK  status: ('A' for Active; 'I' for Inactive)
REMARK    1  A    between atoms: C_1  and  C_2
REMARK    2  A    between atoms: C_6  and  N_7
REMARK    3  A    between atoms: C_8  and  C_10
REMARK    4  A    between atoms: C_10  and  S_11
REMARK    5  A    between atoms: S_11  and  C_12
REMARK    6  A    between atoms: C_12  and  C_13
REMARK    7  A    between atoms: C_19  and  C_20
REMARK                            x       y       z     vdW  Elec       q    Type
REMARK                         _______ _______ _______ _____ _____    ______ ____
ROOT
ATOM      1  C   UNL     1       3.671   2.224  18.787  0.00  0.00    +0.000 C 
ENDROOT
BRANCH   1   2
ATOM      2  C   UNL     1       4.453   3.341  18.119  0.00  0.00    +0.000 A 
ATOM      3  C   UNL     1       4.313   3.581  16.805  0.00  0.00    +0.000 A 
ATOM      4  C   UNL     1       5.052   4.701  16.178  0.00  0.00    +0.000 A 
ATOM      5  O   UNL     1       4.932   4.902  14.972  0.00  0.00    +0.000 OA
ATOM      6  N   UNL     1       5.835   5.406  17.061  0.00  0.00    +0.000 N 
ATOM      7  N   UNL     1       6.628   6.461  16.658  0.00  0.00    +0.000 NA
ATOM      8  C   UNL     1       7.292   6.886  17.684  0.00  0.00    +0.000 A 
ATOM      9  S   UNL     1       7.040   6.086  19.207  0.00  0.00    +0.000 S 
ATOM     10  C   UNL     1       5.925   5.044  18.381  0.00  0.00    +0.000 A 
ATOM     11  N   UNL     1       5.299   4.063  18.943  0.00  0.00    +0.000 NA
BRANCH   8  12
ATOM     12  C   UNL     1       8.288   7.961  17.559  0.00  0.00    +0.000 C 
ATOM     13  C   UNL     1       7.864   9.406  17.701  0.00  0.00    +0.000 C 
ATOM     14  C   UNL     1       8.747   8.784  18.740  0.00  0.00    +0.000 C 
ENDBRANCH   8  12
ENDBRANCH   1   2
BRANCH   1  15
ATOM     15  S   UNL     1       4.034   2.258  20.577  0.00  0.00    +0.000 S 
BRANCH  15  16
ATOM     16  C   UNL     1       2.371   2.623  21.224  0.00  0.00    +0.000 C 
BRANCH  16  18
ATOM     17  N   UNL     1       2.532   4.993  20.649  0.00  0.00    +0.000 N 
ATOM     18  C   UNL     1       1.787   3.832  20.499  0.00  0.00    +0.000 C 
ATOM     19  O   UNL     1       0.714   3.736  19.908  0.00  0.00    +0.000 OA
ATOM     20  H   UNL     1       3.315   4.958  21.290  0.00  0.00    +0.000 HD
BRANCH  17  26
ATOM     21  C   UNL     1       0.698   9.578  20.863  0.00  0.00    +0.000 C 
ATOM     22  C   UNL     1       1.416   8.500  20.107  0.00  0.00    +0.000 A 
ATOM     23  C   UNL     1       1.818   8.713  18.785  0.00  0.00    +0.000 A 
ATOM     24  C   UNL     1       2.468   7.705  18.079  0.00  0.00    +0.000 A 
ATOM     25  C   UNL     1       2.706   6.468  18.681  0.00  0.00    +0.000 A 
ATOM     26  C   UNL     1       2.306   6.227  19.995  0.00  0.00    +0.000 A 
ATOM     27  C   UNL     1       1.681   7.258  20.712  0.00  0.00    +0.000 A 
ENDBRANCH  17  26
ENDBRANCH  16  18
ENDBRANCH  15  16
ENDBRANCH   1  15
TORSDOF 6
ENDMDL
MODEL 2
REMARK VINA RESULT:      -7.2      3.467      7.499
REMARK  Name = 
REMARK  7 active torsions:
REMARK  status: ('A' for Active; 'I' for Inactive)
REMARK    1  A    between atoms: C_1  and  C_2
REMARK    2  A    between atoms: C_6  and  N_7
REMARK    3  A    between atoms: C_8  and  C_10
REMARK    4  A    between atoms: C_10  and  S_11
REMARK    5  A    between atoms: S_11  and  C_12
REMARK    6  A    between atoms: C_12  and  C_13
REMARK    7  A    between atoms: C_19  and  C_20
REMARK                            x       y       z     vdW  Elec       q    Type
REMARK                         _______ _______ _______ _____ _____    ______ ____
ROOT
ATOM      1  C   UNL     1       2.981   5.092  19.429  0.00  0.00    +0.000 C 
ENDROOT
BRANCH   1   2
ATOM      2  C   UNL     1       2.465   6.521  19.403  0.00  0.00    +0.000 A 
ATOM      3  C   UNL     1       2.516   7.245  18.273  0.00  0.00    +0.000 A 
ATOM      4  C   UNL     1       1.972   8.622  18.255  0.00  0.00    +0.000 A 
ATOM      5  O   UNL     1       2.038   9.283  17.222  0.00  0.00    +0.000 OA
ATOM      6  N   UNL     1       1.444   9.020  19.461  0.00  0.00    +0.000 N 
ATOM      7  N   UNL     1       0.924  10.284  19.653  0.00  0.00    +0.000 NA
ATOM      8  C   UNL     1       0.562  10.391  20.890  0.00  0.00    +0.000 A 
ATOM      9  S   UNL     1       0.800   9.019  21.931  0.00  0.00    +0.000 S 
ATOM     10  C   UNL     1       1.480   8.201  20.560  0.00  0.00    +0.000 A 
ATOM     11  N   UNL     1       1.963   7.003  20.599  0.00  0.00    +0.000 NA
BRANCH   8  12
ATOM     12  C   UNL     1       0.037  11.656  21.427  0.00  0.00    +0.000 C 
ATOM     13  C   UNL     1      -1.426  12.000  21.257  0.00  0.00    +0.000 C 
ATOM     14  C   UNL     1      -0.884  11.710  22.623  0.00  0.00    +0.000 C 
ENDBRANCH   8  12
ENDBRANCH   1   2
BRANCH   1  15
ATOM     15  S   UNL     1       3.730   4.722  17.805  0.00  0.00    +0.000 S 
BRANCH  15  16
ATOM     16  C   UNL     1       5.493   4.908  18.226  0.00  0.00    +0.000 C 
BRANCH  16  18
ATOM     17  N   UNL     1       5.626   4.544  15.812  0.00  0.00    +0.000 N 
ATOM     18  C   UNL     1       6.350   4.638  16.993  0.00  0.00    +0.000 C 
ATOM     19  O   UNL     1       7.561   4.462  17.110  0.00  0.00    +0.000 OA
ATOM     20  H   UNL     1       4.616   4.560  15.889  0.00  0.00    +0.000 HD
BRANCH  17  26
ATOM     21  C   UNL     1       5.428   2.350  11.387  0.00  0.00    +0.000 C 
ATOM     22  C   UNL     1       6.048   3.354  12.314  0.00  0.00    +0.000 A 
ATOM     23  C   UNL     1       7.139   4.121  11.894  0.00  0.00    +0.000 A 
ATOM     24  C   UNL     1       7.725   5.039  12.761  0.00  0.00    +0.000 A 
ATOM     25  C   UNL     1       7.238   5.185  14.061  0.00  0.00    +0.000 A 
ATOM     26  C   UNL     1       6.158   4.425  14.508  0.00  0.00    +0.000 A 
ATOM     27  C   UNL     1       5.551   3.526  13.618  0.00  0.00    +0.000 A 
ENDBRANCH  17  26
ENDBRANCH  16  18
ENDBRANCH  15  16
ENDBRANCH   1  15
TORSDOF 6
ENDMDL
MODEL 3
REMARK VINA RESULT:      -7.1      3.093      6.499
REMARK  Name = 
REMARK  7 active torsions:
REMARK  status: ('A' for Active; 'I' for Inactive)
REMARK    1  A    between atoms: C_1  and  C_2
REMARK    2  A    between atoms: C_6  and  N_7
REMARK    3  A    between atoms: C_8  and  C_10
REMARK    4  A    between atoms: C_10  and  S_11
REMARK    5  A    between atoms: S_11  and  C_12
REMARK    6  A    between atoms: C_12  and  C_13
REMARK    7  A    between atoms: C_19  and  C_20
REMARK                            x       y       z     vdW  Elec       q    Type
REMARK                         _______ _______ _______ _____ _____    ______ ____
ROOT
ATOM      1  C   UNL     1       2.830   5.365  19.916  0.00  0.00    +0.000 C 
ENDROOT
BRANCH   1   2
ATOM      2  C   UNL     1       2.295   6.781  19.781  0.00  0.00    +0.000 A 
ATOM      3  C   UNL     1       2.422   7.452  18.625  0.00  0.00    +0.000 A 
ATOM      4  C   UNL     1       1.859   8.815  18.498  0.00  0.00    +0.000 A 
ATOM      5  O   UNL     1       1.995   9.428  17.442  0.00  0.00    +0.000 OA
ATOM      6  N   UNL     1       1.234   9.260  19.639  0.00  0.00    +0.000 N 
ATOM      7  N   UNL     1       0.680  10.521  19.729  0.00  0.00    +0.000 NA
ATOM      8  C   UNL     1       0.223  10.680  20.928  0.00  0.00    +0.000 A 
ATOM      9  S   UNL     1       0.401   9.364  22.050  0.00  0.00    +0.000 S 
ATOM     10  C   UNL     1       1.198   8.495  20.777  0.00  0.00    +0.000 A 
ATOM     11  N   UNL     1       1.695   7.310  20.910  0.00  0.00    +0.000 NA
BRANCH   8  12
ATOM     12  C   UNL     1      -0.362  11.959  21.361  0.00  0.00    +0.000 C 
ATOM     13  C   UNL     1      -1.864  12.132  21.390  0.00  0.00    +0.000 C 
ATOM     14  C   UNL     1      -1.093  12.114  22.674  0.00  0.00    +0.000 C 
ENDBRANCH   8  12
ENDBRANCH   1   2
BRANCH   1  15
ATOM     15  S   UNL     1       1.410   4.220  19.989  0.00  0.00    +0.000 S 
BRANCH  15  16
ATOM     16  C   UNL     1       1.875   3.064  18.659  0.00  0.00    +0.000 C 
BRANCH  16  18
ATOM     17  N   UNL     1       3.554   3.984  17.140  0.00  0.00    +0.000 N 
ATOM     18  C   UNL     1       3.346   3.253  18.300  0.00  0.00    +0.000 C 
ATOM     19  O   UNL     1       4.219   2.722  18.983  0.00  0.00    +0.000 OA
ATOM     20  H   UNL     1       2.734   4.231  16.597  0.00  0.00    +0.000 HD
BRANCH  17  26
ATOM     21  C   UNL     1       7.359   7.119  17.498  0.00  0.00    +0.000 C 
ATOM     22  C   UNL     1       6.690   5.959  16.821  0.00  0.00    +0.000 A 
ATOM     23  C   UNL     1       7.280   5.358  15.705  0.00  0.00    +0.000 A 
ATOM     24  C   UNL     1       6.649   4.293  15.068  0.00  0.00    +0.000 A 
ATOM     25  C   UNL     1       5.414   3.832  15.529  0.00  0.00    +0.000 A 
ATOM     26  C   UNL     1       4.800   4.421  16.633  0.00  0.00    +0.000 A 
ATOM     27  C   UNL     1       5.457   5.472  17.291  0.00  0.00    +0.000 A 
ENDBRANCH  17  26
ENDBRANCH  16  18
ENDBRANCH  15  16
ENDBRANCH   1  15
TORSDOF 6
ENDMDL
MODEL 4
REMARK VINA RESULT:      -7.0      3.052      5.977
REMARK  Name = 
REMARK  7 active torsions:
REMARK  status: ('A' for Active; 'I' for Inactive)
REMARK    1  A    between atoms: C_1  and  C_2
REMARK    2  A    between atoms: C_6  and  N_7
REMARK    3  A    between atoms: C_8  and  C_10
REMARK    4  A    between atoms: C_10  and  S_11
REMARK    5  A    between atoms: S_11  and  C_12
REMARK    6  A    between atoms: C_12  and  C_13
REMARK    7  A    between atoms: C_19  and  C_20
REMARK                            x       y       z     vdW  Elec       q    Type
REMARK                         _______ _______ _______ _____ _____    ______ ____
ROOT
ATOM      1  C   UNL     1       2.156   5.119  20.642  0.00  0.00    +0.000 C 
ENDROOT
BRANCH   1   2
ATOM      2  C   UNL     1       1.997   6.525  20.089  0.00  0.00    +0.000 A 
ATOM      3  C   UNL     1       2.466   6.836  18.870  0.00  0.00    +0.000 A 
ATOM      4  C   UNL     1       2.267   8.200  18.329  0.00  0.00    +0.000 A 
ATOM      5  O   UNL     1       2.714   8.481  17.220  0.00  0.00    +0.000 OA
ATOM      6  N   UNL     1       1.583   9.035  19.182  0.00  0.00    +0.000 N 
ATOM      7  N   UNL     1       1.333  10.356  18.871  0.00  0.00    +0.000 NA
ATOM      8  C   UNL     1       0.734  10.903  19.879  0.00  0.00    +0.000 A 
ATOM      9  S   UNL     1       0.411   9.916  21.272  0.00  0.00    +0.000 S 
ATOM     10  C   UNL     1       1.181   8.613  20.423  0.00  0.00    +0.000 A 
ATOM     11  N   UNL     1       1.358   7.432  20.917  0.00  0.00    +0.000 NA
BRANCH   8  12
ATOM     12  C   UNL     1       0.401  12.337  19.884  0.00  0.00    +0.000 C 
ATOM     13  C   UNL     1       1.430  13.351  20.333  0.00  0.00    +0.000 C 
ATOM     14  C   UNL     1       0.998  13.313  18.899  0.00  0.00    +0.000 C 
ENDBRANCH   8  12
ENDBRANCH   1   2
BRANCH   1  15
ATOM     15  S   UNL     1       1.390   3.950  19.467  0.00  0.00    +0.000 S 
BRANCH  15  16
ATOM     16  C   UNL     1       2.598   2.588  19.553  0.00  0.00    +0.000 C 
BRANCH  16  18
ATOM     17  N   UNL     1       3.926   3.511  17.720  0.00  0.00    +0.000 N 
ATOM     18  C   UNL     1       3.951   3.064  19.033  0.00  0.00    +0.000 C 
ATOM     19  O   UNL     1       4.951   2.970  19.742  0.00  0.00    +0.000 OA
ATOM     20  H   UNL     1       3.059   3.389  17.209  0.00  0.00    +0.000 HD
BRANCH  17  26
ATOM     21  C   UNL     1       7.296   7.122  17.529  0.00  0.00    +0.000 C 
ATOM     22  C   UNL     1       6.669   5.896  16.933  0.00  0.00    +0.000 A 
ATOM     23  C   UNL     1       7.117   5.401  15.704  0.00  0.00    +0.000 A 
ATOM     24  C   UNL     1       6.523   4.274  15.144  0.00  0.00    +0.000 A 
ATOM     25  C   UNL     1       5.463   3.642  15.798  0.00  0.00    +0.000 A 
ATOM     26  C   UNL     1       4.991   4.121  17.019  0.00  0.00    +0.000 A 
ATOM     27  C   UNL     1       5.616   5.238  17.594  0.00  0.00    +0.000 A 
ENDBRANCH  17  26
ENDBRANCH  16  18
ENDBRANCH  15  16
ENDBRANCH   1  15
TORSDOF 6
ENDMDL
MODEL 5
REMARK VINA RESULT:      -6.8      3.252      6.750
REMARK  Name = 
REMARK  7 active torsions:
REMARK  status: ('A' for Active; 'I' for Inactive)
REMARK    1  A    between atoms: C_1  and  C_2
REMARK    2  A    between atoms: C_6  and  N_7
REMARK    3  A    between atoms: C_8  and  C_10
REMARK    4  A    between atoms: C_10  and  S_11
REMARK    5  A    between atoms: S_11  and  C_12
REMARK    6  A    between atoms: C_12  and  C_13
REMARK    7  A    between atoms: C_19  and  C_20
REMARK                            x       y       z     vdW  Elec       q    Type
REMARK                         _______ _______ _______ _____ _____    ______ ____
ROOT
ATOM      1  C   UNL     1       2.919   5.628  19.884  0.00  0.00    +0.000 C 
ENDROOT
BRANCH   1   2
ATOM      2  C   UNL     1       2.297   7.004  19.719  0.00  0.00    +0.000 A 
ATOM      3  C   UNL     1       2.488   7.709  18.592  0.00  0.00    +0.000 A 
ATOM      4  C   UNL     1       1.841   9.031  18.430  0.00  0.00    +0.000 A 
ATOM      5  O   UNL     1       2.035   9.676  17.404  0.00  0.00    +0.000 OA
ATOM      6  N   UNL     1       1.073   9.403  19.509  0.00  0.00    +0.000 N 
ATOM      7  N   UNL     1       0.422  10.618  19.562  0.00  0.00    +0.000 NA
ATOM      8  C   UNL     1      -0.164  10.715  20.711  0.00  0.00    +0.000 A 
ATOM      9  S   UNL     1      -0.002   9.391  21.825  0.00  0.00    +0.000 S 
ATOM     10  C   UNL     1       0.981   8.611  20.625  0.00  0.00    +0.000 A 
ATOM     11  N   UNL     1       1.548   7.462  20.789  0.00  0.00    +0.000 NA
BRANCH   8  12
ATOM     12  C   UNL     1      -0.882  11.938  21.103  0.00  0.00    +0.000 C 
ATOM     13  C   UNL     1      -0.160  13.031  21.860  0.00  0.00    +0.000 C 
ATOM     14  C   UNL     1      -0.619  13.277  20.456  0.00  0.00    +0.000 C 
ENDBRANCH   8  12
ENDBRANCH   1   2
BRANCH   1  15
ATOM     15  S   UNL     1       1.583   4.431  20.227  0.00  0.00    +0.000 S 
BRANCH  15  16
ATOM     16  C   UNL     1       1.555   3.535  18.641  0.00  0.00    +0.000 C 
BRANCH  16  18
ATOM     17  N   UNL     1       3.377   4.306  17.204  0.00  0.00    +0.000 N 
ATOM     18  C   UNL     1       2.980   3.349  18.127  0.00  0.00    +0.000 C 
ATOM     19  O   UNL     1       3.642   2.377  18.487  0.00  0.00    +0.000 OA
ATOM     20  H   UNL     1       2.671   4.961  16.889  0.00  0.00    +0.000 HD
BRANCH  17  26
ATOM     21  C   UNL     1       6.354   3.837  13.287  0.00  0.00    +0.000 C 
ATOM     22  C   UNL     1       6.139   4.245  14.715  0.00  0.00    +0.000 A 
ATOM     23  C   UNL     1       7.205   4.734  15.477  0.00  0.00    +0.000 A 
ATOM     24  C   UNL     1       7.007   5.095  16.807  0.00  0.00    +0.000 A 
ATOM     25  C   UNL     1       5.747   4.954  17.392  0.00  0.00    +0.000 A 
ATOM     26  C   UNL     1       4.671   4.460  16.657  0.00  0.00    +0.000 A 
ATOM     27  C   UNL     1       4.869   4.128  15.308  0.00  0.00    +0.000 A 
ENDBRANCH  17  26
ENDBRANCH  16  18
ENDBRANCH  15  16
ENDBRANCH   1  15
TORSDOF 6
ENDMDL
MODEL 6
REMARK VINA RESULT:      -6.7      4.462      6.307
REMARK  Name = 
REMARK  7 active torsions:
REMARK  status: ('A' for Active; 'I' for Inactive)
REMARK    1  A    between atoms: C_1  and  C_2
REMARK    2  A    between atoms: C_6  and  N_7
REMARK    3  A    between atoms: C_8  and  C_10
REMARK    4  A    between atoms: C_10  and  S_11
REMARK    5  A    between atoms: S_11  and  C_12
REMARK    6  A    between atoms: C_12  and  C_13
REMARK    7  A    between atoms: C_19  and  C_20
REMARK                            x       y       z     vdW  Elec       q    Type
REMARK                         _______ _______ _______ _____ _____    ______ ____
ROOT
ATOM      1  C   UNL     1       1.729   8.592  19.421  0.00  0.00    +0.000 C 
ENDROOT
BRANCH   1   2
ATOM      2  C   UNL     1       2.495   7.377  18.928  0.00  0.00    +0.000 A 
ATOM      3  C   UNL     1       2.349   6.187  19.533  0.00  0.00    +0.000 A 
ATOM      4  C   UNL     1       3.072   5.003  19.014  0.00  0.00    +0.000 A 
ATOM      5  O   UNL     1       2.946   3.922  19.583  0.00  0.00    +0.000 OA
ATOM      6  N   UNL     1       3.847   5.272  17.910  0.00  0.00    +0.000 N 
ATOM      7  N   UNL     1       4.625   4.306  17.307  0.00  0.00    +0.000 NA
ATOM      8  C   UNL     1       5.285   4.860  16.342  0.00  0.00    +0.000 A 
ATOM      9  S   UNL     1       5.047   6.558  16.060  0.00  0.00    +0.000 S 
ATOM     10  C   UNL     1       3.945   6.541  17.400  0.00  0.00    +0.000 A 
ATOM     11  N   UNL     1       3.333   7.588  17.847  0.00  0.00    +0.000 NA
BRANCH   8  12
ATOM     12  C   UNL     1       6.267   4.100  15.552  0.00  0.00    +0.000 C 
ATOM     13  C   UNL     1       6.034   3.870  14.075  0.00  0.00    +0.000 C 
ATOM     14  C   UNL     1       7.159   4.752  14.522  0.00  0.00    +0.000 C 
ENDBRANCH   8  12
ENDBRANCH   1   2
BRANCH   1  15
ATOM     15  S   UNL     1       2.071   9.985  18.290  0.00  0.00    +0.000 S 
BRANCH  15  16
ATOM     16  C   UNL     1       1.321  11.347  19.239  0.00  0.00    +0.000 C 
BRANCH  16  18
ATOM     17  N   UNL     1      -0.812  10.800  18.177  0.00  0.00    +0.000 N 
ATOM     18  C   UNL     1       0.050  11.824  18.542  0.00  0.00    +0.000 C 
ATOM     19  O   UNL     1      -0.106  13.018  18.295  0.00  0.00    +0.000 OA
ATOM     20  H   UNL     1      -0.482   9.851  18.311  0.00  0.00    +0.000 HD
BRANCH  17  26
ATOM     21  C   UNL     1      -3.841  10.159  14.325  0.00  0.00    +0.000 C 
ATOM     22  C   UNL     1      -3.611  10.612  15.736  0.00  0.00    +0.000 A 
ATOM     23  C   UNL     1      -4.653  11.188  16.470  0.00  0.00    +0.000 A 
ATOM     24  C   UNL     1      -4.434  11.624  17.774  0.00  0.00    +0.000 A 
ATOM     25  C   UNL     1      -3.167  11.507  18.349  0.00  0.00    +0.000 A 
ATOM     26  C   UNL     1      -2.109  10.946  17.634  0.00  0.00    +0.000 A 
ATOM     27  C   UNL     1      -2.345  10.478  16.333  0.00  0.00    +0.000 A 
ENDBRANCH  17  26
ENDBRANCH  16  18
ENDBRANCH  15  16
ENDBRANCH   1  15
TORSDOF 6
ENDMDL
MODEL 7
REMARK VINA RESULT:      -6.6      3.604      7.260
REMARK  Name = 
REMARK  7 active torsions:
REMARK  status: ('A' for Active; 'I' for Inactive)
REMARK    1  A    between atoms: C_1  and  C_2
REMARK    2  A    between atoms: C_6  and  N_7
REMARK    3  A    between atoms: C_8  and  C_10
REMARK    4  A    between atoms: C_10  and  S_11
REMARK    5  A    between atoms: S_11  and  C_12
REMARK    6  A    between atoms: C_12  and  C_13
REMARK    7  A    between atoms: C_19  and  C_20
REMARK                            x       y       z     vdW  Elec       q    Type
REMARK                         _______ _______ _______ _____ _____    ______ ____
ROOT
ATOM      1  C   UNL     1       2.528   6.579  19.849  0.00  0.00    +0.000 C 
ENDROOT
BRANCH   1   2
ATOM      2  C   UNL     1       1.733   7.853  20.076  0.00  0.00    +0.000 A 
ATOM      3  C   UNL     1       1.570   8.742  19.082  0.00  0.00    +0.000 A 
ATOM      4  C   UNL     1       0.758   9.960  19.308  0.00  0.00    +0.000 A 
ATOM      5  O   UNL     1       0.629  10.776  18.399  0.00  0.00    +0.000 OA
ATOM      6  N   UNL     1       0.232  10.042  20.576  0.00  0.00    +0.000 N 
ATOM      7  N   UNL     1      -0.521  11.122  20.989  0.00  0.00    +0.000 NA
ATOM      8  C   UNL     1      -0.824  10.953  22.235  0.00  0.00    +0.000 A 
ATOM      9  S   UNL     1      -0.254   9.514  23.026  0.00  0.00    +0.000 S 
ATOM     10  C   UNL     1       0.497   9.084  21.521  0.00  0.00    +0.000 A 
ATOM     11  N   UNL     1       1.213   8.023  21.347  0.00  0.00    +0.000 NA
BRANCH   8  12
ATOM     12  C   UNL     1      -1.563  11.978  22.989  0.00  0.00    +0.000 C 
ATOM     13  C   UNL     1      -1.016  13.385  23.088  0.00  0.00    +0.000 C 
ATOM     14  C   UNL     1      -2.273  13.128  22.314  0.00  0.00    +0.000 C 
ENDBRANCH   8  12
ENDBRANCH   1   2
BRANCH   1  15
ATOM     15  S   UNL     1       1.616   5.190  20.607  0.00  0.00    +0.000 S 
BRANCH  15  16
ATOM     16  C   UNL     1       1.831   3.931  19.308  0.00  0.00    +0.000 C 
BRANCH  16  18
ATOM     17  N   UNL     1       3.494   4.541  17.624  0.00  0.00    +0.000 N 
ATOM     18  C   UNL     1       3.283   3.911  18.842  0.00  0.00    +0.000 C 
ATOM     19  O   UNL     1       4.133   3.315  19.500  0.00  0.00    +0.000 OA
ATOM     20  H   UNL     1       2.673   4.858  17.121  0.00  0.00    +0.000 HD
BRANCH  17  26
ATOM     21  C   UNL     1       7.595   7.293  17.415  0.00  0.00    +0.000 C 
ATOM     22  C   UNL     1       6.779   6.136  16.918  0.00  0.00    +0.000 A 
ATOM     23  C   UNL     1       7.241   5.352  15.856  0.00  0.00    +0.000 A 
ATOM     24  C   UNL     1       6.474   4.290  15.384  0.00  0.00    +0.000 A 
ATOM     25  C   UNL     1       5.231   4.014  15.957  0.00  0.00    +0.000 A 
ATOM     26  C   UNL     1       4.743   4.787  17.009  0.00  0.00    +0.000 A 
ATOM     27  C   UNL     1       5.536   5.835  17.502  0.00  0.00    +0.000 A 
ENDBRANCH  17  26
ENDBRANCH  16  18
ENDBRANCH  15  16
ENDBRANCH   1  15
TORSDOF 6
ENDMDL
MODEL 8
REMARK VINA RESULT:      -6.6      3.363      7.323
REMARK  Name = 
REMARK  7 active torsions:
REMARK  status: ('A' for Active; 'I' for Inactive)
REMARK    1  A    between atoms: C_1  and  C_2
REMARK    2  A    between atoms: C_6  and  N_7
REMARK    3  A    between atoms: C_8  and  C_10
REMARK    4  A    between atoms: C_10  and  S_11
REMARK    5  A    between atoms: S_11  and  C_12
REMARK    6  A    between atoms: C_12  and  C_13
REMARK    7  A    between atoms: C_19  and  C_20
REMARK                            x       y       z     vdW  Elec       q    Type
REMARK                         _______ _______ _______ _____ _____    ______ ____
ROOT
ATOM      1  C   UNL     1       3.023   4.913  19.678  0.00  0.00    +0.000 C 
ENDROOT
BRANCH   1   2
ATOM      2  C   UNL     1       2.521   6.342  19.561  0.00  0.00    +0.000 A 
ATOM      3  C   UNL     1       2.642   7.016  18.406  0.00  0.00    +0.000 A 
ATOM      4  C   UNL     1       2.111   8.394  18.297  0.00  0.00    +0.000 A 
ATOM      5  O   UNL     1       2.242   9.009  17.242  0.00  0.00    +0.000 OA
ATOM      6  N   UNL     1       1.518   8.847  19.453  0.00  0.00    +0.000 N 
ATOM      7  N   UNL     1       0.997  10.121  19.559  0.00  0.00    +0.000 NA
ATOM      8  C   UNL     1       0.567  10.283  20.768  0.00  0.00    +0.000 A 
ATOM      9  S   UNL     1       0.733   8.957  21.879  0.00  0.00    +0.000 S 
ATOM     10  C   UNL     1       1.484   8.076  20.586  0.00  0.00    +0.000 A 
ATOM     11  N   UNL     1       1.954   6.878  20.704  0.00  0.00    +0.000 NA
BRANCH   8  12
ATOM     12  C   UNL     1       0.021  11.573  21.219  0.00  0.00    +0.000 C 
ATOM     13  C   UNL     1      -1.465  11.840  21.127  0.00  0.00    +0.000 C 
ATOM     14  C   UNL     1      -0.813  11.709  22.470  0.00  0.00    +0.000 C 
ENDBRANCH   8  12
ENDBRANCH   1   2
BRANCH   1  15
ATOM     15  S   UNL     1       3.739   4.422  18.071  0.00  0.00    +0.000 S 
BRANCH  15  16
ATOM     16  C   UNL     1       5.502   4.732  18.409  0.00  0.00    +0.000 C 
BRANCH  16  18
ATOM     17  N   UNL     1       5.556   4.414  15.986  0.00  0.00    +0.000 N 
ATOM     18  C   UNL     1       6.319   4.500  17.141  0.00  0.00    +0.000 C 
ATOM     19  O   UNL     1       7.537   4.345  17.213  0.00  0.00    +0.000 OA
ATOM     20  H   UNL     1       4.549   4.410  16.098  0.00  0.00    +0.000 HD
BRANCH  17  26
ATOM     21  C   UNL     1       8.755   6.032  12.583  0.00  0.00    +0.000 C 
ATOM     22  C   UNL     1       7.636   5.116  12.984  0.00  0.00    +0.000 A 
ATOM     23  C   UNL     1       7.082   4.231  12.054  0.00  0.00    +0.000 A 
ATOM     24  C   UNL     1       6.032   3.394  12.422  0.00  0.00    +0.000 A 
ATOM     25  C   UNL     1       5.515   3.448  13.718  0.00  0.00    +0.000 A 
ATOM     26  C   UNL     1       6.043   4.329  14.661  0.00  0.00    +0.000 A 
ATOM     27  C   UNL     1       7.123   5.146  14.292  0.00  0.00    +0.000 A 
ENDBRANCH  17  26
ENDBRANCH  16  18
ENDBRANCH  15  16
ENDBRANCH   1  15
TORSDOF 6
ENDMDL
MODEL 9
REMARK VINA RESULT:      -6.5      3.542      7.485
REMARK  Name = 
REMARK  7 active torsions:
REMARK  status: ('A' for Active; 'I' for Inactive)
REMARK    1  A    between atoms: C_1  and  C_2
REMARK    2  A    between atoms: C_6  and  N_7
REMARK    3  A    between atoms: C_8  and  C_10
REMARK    4  A    between atoms: C_10  and  S_11
REMARK    5  A    between atoms: S_11  and  C_12
REMARK    6  A    between atoms: C_12  and  C_13
REMARK    7  A    between atoms: C_19  and  C_20
REMARK                            x       y       z     vdW  Elec       q    Type
REMARK                         _______ _______ _______ _____ _____    ______ ____
ROOT
ATOM      1  C   UNL     1       2.781   5.541  19.608  0.00  0.00    +0.000 C 
ENDROOT
BRANCH   1   2
ATOM      2  C   UNL     1       2.248   6.963  19.565  0.00  0.00    +0.000 A 
ATOM      3  C   UNL     1       2.378   7.707  18.454  0.00  0.00    +0.000 A 
ATOM      4  C   UNL     1       1.816   9.076  18.415  0.00  0.00    +0.000 A 
ATOM      5  O   UNL     1       1.955   9.756  17.401  0.00  0.00    +0.000 OA
ATOM      6  N   UNL     1       1.187   9.446  19.581  0.00  0.00    +0.000 N 
ATOM      7  N   UNL     1       0.634  10.699  19.750  0.00  0.00    +0.000 NA
ATOM      8  C   UNL     1       0.173  10.780  20.956  0.00  0.00    +0.000 A 
ATOM      9  S   UNL     1       0.346   9.394  21.990  0.00  0.00    +0.000 S 
ATOM     10  C   UNL     1       1.147   8.609  20.666  0.00  0.00    +0.000 A 
ATOM     11  N   UNL     1       1.643   7.417  20.723  0.00  0.00    +0.000 NA
BRANCH   8  12
ATOM     12  C   UNL     1      -0.413  12.028  21.469  0.00  0.00    +0.000 C 
ATOM     13  C   UNL     1       0.412  13.295  21.498  0.00  0.00    +0.000 C 
ATOM     14  C   UNL     1      -0.760  13.192  20.571  0.00  0.00    +0.000 C 
ENDBRANCH   8  12
ENDBRANCH   1   2
BRANCH   1  15
ATOM     15  S   UNL     1       4.593   5.600  19.389  0.00  0.00    +0.000 S 
BRANCH  15  16
ATOM     16  C   UNL     1       4.813   4.204  18.240  0.00  0.00    +0.000 C 
BRANCH  16  18
ATOM     17  N   UNL     1       5.946   3.882  16.098  0.00  0.00    +0.000 N 
ATOM     18  C   UNL     1       5.139   4.729  16.845  0.00  0.00    +0.000 C 
ATOM     19  O   UNL     1       4.748   5.841  16.498  0.00  0.00    +0.000 OA
ATOM     20  H   UNL     1       6.318   3.066  16.569  0.00  0.00    +0.000 HD
BRANCH  17  26
ATOM     21  C   UNL     1       5.142   2.672  11.374  0.00  0.00    +0.000 C 
ATOM     22  C   UNL     1       5.896   3.460  12.403  0.00  0.00    +0.000 A 
ATOM     23  C   UNL     1       6.943   4.304  12.017  0.00  0.00    +0.000 A 
ATOM     24  C   UNL     1       7.654   5.021  12.976  0.00  0.00    +0.000 A 
ATOM     25  C   UNL     1       7.338   4.887  14.329  0.00  0.00    +0.000 A 
ATOM     26  C   UNL     1       6.306   4.045  14.740  0.00  0.00    +0.000 A 
ATOM     27  C   UNL     1       5.572   3.350  13.767  0.00  0.00    +0.000 A 
ENDBRANCH  17  26
ENDBRANCH  16  18
ENDBRANCH  15  16
ENDBRANCH   1  15
TORSDOF 6
ENDMDL
