MODEL 1
REMARK VINA RESULT:      -7.2      0.000      0.000
REMARK  Name = 
REMARK  4 active torsions:
REMARK  status: ('A' for Active; 'I' for Inactive)
REMARK    1  A    between atoms: C_1  and  C_2
REMARK    2  A    between atoms: C_7  and  O_8
REMARK    3  A    between atoms: O_8  and  C_9
REMARK    4  A    between atoms: C_9  and  C_10
REMARK                            x       y       z     vdW  Elec       q    Type
REMARK                         _______ _______ _______ _____ _____    ______ ____
ROOT
ATOM      1  C   UNL     1       4.825   5.221  18.961  0.00  0.00    +0.000 C 
ENDROOT
BRANCH   1   2
ATOM      2  C   UNL     1       3.323   4.996  18.715  0.00  0.00    +0.000 C 
ATOM      3  O   UNL     1       2.658   5.756  18.011  0.00  0.00    +0.000 OA
ATOM      4  N   UNL     1       2.779   3.842  19.288  0.00  0.00    +0.000 N 
ATOM      5  C   UNL     1       1.421   3.434  18.941  0.00  0.00    +0.000 C 
ATOM      6  C   UNL     1       0.529   3.400  20.179  0.00  0.00    +0.000 C 
ATOM      7  C   UNL     1       1.154   2.563  21.295  0.00  0.00    +0.000 C 
ATOM      8  C   UNL     1       2.588   3.010  21.586  0.00  0.00    +0.000 C 
ATOM      9  C   UNL     1       3.427   3.017  20.309  0.00  0.00    +0.000 C 
ENDBRANCH   1   2
BRANCH   1  10
ATOM     10  O   UNL     1       5.664   4.283  18.308  0.00  0.00    +0.000 OA
BRANCH  10  17
ATOM     11  C   UNL     1       7.630   6.603  17.595  0.00  0.00    +0.000 C 
ATOM     12  C   UNL     1       6.992   5.621  16.662  0.00  0.00    +0.000 A 
ATOM     13  N   UNL     1       7.395   5.775  15.369  0.00  0.00    +0.000 NA
ATOM     14  C   UNL     1       6.949   4.895  14.450  0.00  0.00    +0.000 A 
ATOM     15  C   UNL     1       6.090   3.857  14.747  0.00  0.00    +0.000 A 
ATOM     16  C   UNL     1       5.671   3.716  16.066  0.00  0.00    +0.000 A 
ATOM     17  C   UNL     1       6.111   4.603  17.054  0.00  0.00    +0.000 A 
ENDBRANCH  10  17
ENDBRANCH   1  10
TORSDOF 3
ENDMDL
MODEL 2
REMARK VINA RESULT:      -7.1      1.131      1.608
REMARK  Name = 
REMARK  4 active torsions:
REMARK  status: ('A' for Active; 'I' for Inactive)
REMARK    1  A    between atoms: C_1  and  C_2
REMARK    2  A    between atoms: C_7  and  O_8
REMARK    3  A    between atoms: O_8  and  C_9
REMARK    4  A    between atoms: C_9  and  C_10
REMARK                            x       y       z     vdW  Elec       q    Type
REMARK                         _______ _______ _______ _____ _____    ______ ____
ROOT
ATOM      1  C   UNL     1       3.850   4.565  17.257  0.00  0.00    +0.000 C 
ENDROOT
BRANCH   1   2
ATOM      2  C   UNL     1       3.775   4.857  18.765  0.00  0.00    +0.000 C 
ATOM      3  O   UNL     1       4.673   5.453  19.358  0.00  0.00    +0.000 OA
ATOM      4  N   UNL     1       2.596   4.459  19.404  0.00  0.00    +0.000 N 
ATOM      5  C   UNL     1       2.343   4.876  20.780  0.00  0.00    +0.000 C 
ATOM      6  C   UNL     1       2.203   3.664  21.698  0.00  0.00    +0.000 C 
ATOM      7  C   UNL     1       1.173   2.671  21.159  0.00  0.00    +0.000 C 
ATOM      8  C   UNL     1       1.466   2.304  19.704  0.00  0.00    +0.000 C 
ATOM      9  C   UNL     1       1.590   3.558  18.839  0.00  0.00    +0.000 C 
ENDBRANCH   1   2
BRANCH   1  10
ATOM     10  O   UNL     1       4.955   3.762  16.877  0.00  0.00    +0.000 OA
BRANCH  10  17
ATOM     11  C   UNL     1       7.330   5.739  17.333  0.00  0.00    +0.000 C 
ATOM     12  C   UNL     1       6.872   5.137  16.041  0.00  0.00    +0.000 A 
ATOM     13  N   UNL     1       7.655   5.489  14.982  0.00  0.00    +0.000 NA
ATOM     14  C   UNL     1       7.387   4.942  13.779  0.00  0.00    +0.000 A 
ATOM     15  C   UNL     1       6.351   4.059  13.559  0.00  0.00    +0.000 A 
ATOM     16  C   UNL     1       5.547   3.716  14.642  0.00  0.00    +0.000 A 
ATOM     17  C   UNL     1       5.789   4.256  15.910  0.00  0.00    +0.000 A 
ENDBRANCH  10  17
ENDBRANCH   1  10
TORSDOF 3
ENDMDL
MODEL 3
REMARK VINA RESULT:      -7.1      1.156      1.964
REMARK  Name = 
REMARK  4 active torsions:
REMARK  status: ('A' for Active; 'I' for Inactive)
REMARK    1  A    between atoms: C_1  and  C_2
REMARK    2  A    between atoms: C_7  and  O_8
REMARK    3  A    between atoms: O_8  and  C_9
REMARK    4  A    between atoms: C_9  and  C_10
REMARK                            x       y       z     vdW  Elec       q    Type
REMARK                         _______ _______ _______ _____ _____    ______ ____
ROOT
ATOM      1  C   UNL     1       5.115   5.233  19.273  0.00  0.00    +0.000 C 
ENDROOT
BRANCH   1   2
ATOM      2  C   UNL     1       4.547   3.840  19.589  0.00  0.00    +0.000 C 
ATOM      3  O   UNL     1       5.278   2.874  19.812  0.00  0.00    +0.000 OA
ATOM      4  N   UNL     1       3.154   3.754  19.671  0.00  0.00    +0.000 N 
ATOM      5  C   UNL     1       2.532   2.530  20.168  0.00  0.00    +0.000 C 
ATOM      6  C   UNL     1       1.623   1.912  19.109  0.00  0.00    +0.000 C 
ATOM      7  C   UNL     1       0.621   2.933  18.570  0.00  0.00    +0.000 C 
ATOM      8  C   UNL     1       1.326   4.207  18.101  0.00  0.00    +0.000 C 
ATOM      9  C   UNL     1       2.214   4.776  19.207  0.00  0.00    +0.000 C 
ENDBRANCH   1   2
BRANCH   1  10
ATOM     10  O   UNL     1       4.719   5.747  18.012  0.00  0.00    +0.000 OA
BRANCH  10  17
ATOM     11  C   UNL     1       7.471   7.116  17.456  0.00  0.00    +0.000 C 
ATOM     12  C   UNL     1       6.785   6.068  16.636  0.00  0.00    +0.000 A 
ATOM     13  N   UNL     1       7.520   5.667  15.560  0.00  0.00    +0.000 NA
ATOM     14  C   UNL     1       7.039   4.669  14.792  0.00  0.00    +0.000 A 
ATOM     15  C   UNL     1       5.832   4.044  15.027  0.00  0.00    +0.000 A 
ATOM     16  C   UNL     1       5.080   4.469  16.118  0.00  0.00    +0.000 A 
ATOM     17  C   UNL     1       5.541   5.499  16.945  0.00  0.00    +0.000 A 
ENDBRANCH  10  17
ENDBRANCH   1  10
TORSDOF 3
ENDMDL
MODEL 4
REMARK VINA RESULT:      -7.1      1.305      1.325
REMARK  Name = 
REMARK  4 active torsions:
REMARK  status: ('A' for Active; 'I' for Inactive)
REMARK    1  A    between atoms: C_1  and  C_2
REMARK    2  A    between atoms: C_7  and  O_8
REMARK    3  A    between atoms: O_8  and  C_9
REMARK    4  A    between atoms: C_9  and  C_10
REMARK                            x       y       z     vdW  Elec       q    Type
REMARK                         _______ _______ _______ _____ _____    ______ ____
ROOT
ATOM      1  C   UNL     1       4.226   3.534  17.341  0.00  0.00    +0.000 C 
ENDROOT
BRANCH   1   2
ATOM      2  C   UNL     1       2.727   3.366  17.638  0.00  0.00    +0.000 C 
ATOM      3  O   UNL     1       1.860   3.742  16.849  0.00  0.00    +0.000 OA
ATOM      4  N   UNL     1       2.413   2.701  18.829  0.00  0.00    +0.000 N 
ATOM      5  C   UNL     1       1.033   2.309  19.096  0.00  0.00    +0.000 C 
ATOM      6  C   UNL     1       0.514   2.975  20.368  0.00  0.00    +0.000 C 
ATOM      7  C   UNL     1       1.458   2.737  21.547  0.00  0.00    +0.000 C 
ATOM      8  C   UNL     1       2.895   3.128  21.194  0.00  0.00    +0.000 C 
ATOM      9  C   UNL     1       3.353   2.426  19.917  0.00  0.00    +0.000 C 
ENDBRANCH   1   2
BRANCH   1  10
ATOM     10  O   UNL     1       4.588   4.838  16.917  0.00  0.00    +0.000 OA
BRANCH  10  17
ATOM     11  C   UNL     1       7.259   6.439  17.160  0.00  0.00    +0.000 C 
ATOM     12  C   UNL     1       6.775   5.632  15.995  0.00  0.00    +0.000 A 
ATOM     13  N   UNL     1       7.673   5.586  14.970  0.00  0.00    +0.000 NA
ATOM     14  C   UNL     1       7.381   4.822  13.899  0.00  0.00    +0.000 A 
ATOM     15  C   UNL     1       6.213   4.099  13.777  0.00  0.00    +0.000 A 
ATOM     16  C   UNL     1       5.295   4.163  14.821  0.00  0.00    +0.000 A 
ATOM     17  C   UNL     1       5.557   4.941  15.954  0.00  0.00    +0.000 A 
ENDBRANCH  10  17
ENDBRANCH   1  10
TORSDOF 3
ENDMDL
MODEL 5
REMARK VINA RESULT:      -6.9      1.802      2.709
REMARK  Name = 
REMARK  4 active torsions:
REMARK  status: ('A' for Active; 'I' for Inactive)
REMARK    1  A    between atoms: C_1  and  C_2
REMARK    2  A    between atoms: C_7  and  O_8
REMARK    3  A    between atoms: O_8  and  C_9
REMARK    4  A    between atoms: C_9  and  C_10
REMARK                            x       y       z     vdW  Elec       q    Type
REMARK                         _______ _______ _______ _____ _____    ______ ____
ROOT
ATOM      1  C   UNL     1       4.096   3.755  16.883  0.00  0.00    +0.000 C 
ENDROOT
BRANCH   1   2
ATOM      2  C   UNL     1       3.778   2.786  18.034  0.00  0.00    +0.000 C 
ATOM      3  O   UNL     1       3.675   1.573  17.853  0.00  0.00    +0.000 OA
ATOM      4  N   UNL     1       3.677   3.362  19.304  0.00  0.00    +0.000 N 
ATOM      5  C   UNL     1       3.586   2.504  20.482  0.00  0.00    +0.000 C 
ATOM      6  C   UNL     1       2.282   2.753  21.237  0.00  0.00    +0.000 C 
ATOM      7  C   UNL     1       2.090   4.238  21.544  0.00  0.00    +0.000 C 
ATOM      8  C   UNL     1       2.236   5.088  20.281  0.00  0.00    +0.000 C 
ATOM      9  C   UNL     1       3.560   4.796  19.577  0.00  0.00    +0.000 C 
ENDBRANCH   1   2
BRANCH   1  10
ATOM     10  O   UNL     1       5.472   3.816  16.542  0.00  0.00    +0.000 OA
BRANCH  10  17
ATOM     11  C   UNL     1       5.129   6.708  15.411  0.00  0.00    +0.000 C 
ATOM     12  C   UNL     1       6.066   6.246  16.483  0.00  0.00    +0.000 A 
ATOM     13  N   UNL     1       6.794   7.262  17.029  0.00  0.00    +0.000 NA
ATOM     14  C   UNL     1       7.615   6.980  18.060  0.00  0.00    +0.000 A 
ATOM     15  C   UNL     1       7.772   5.713  18.581  0.00  0.00    +0.000 A 
ATOM     16  C   UNL     1       7.037   4.678  18.009  0.00  0.00    +0.000 A 
ATOM     17  C   UNL     1       6.170   4.925  16.939  0.00  0.00    +0.000 A 
ENDBRANCH  10  17
ENDBRANCH   1  10
TORSDOF 3
ENDMDL
MODEL 6
REMARK VINA RESULT:      -6.9      1.826      5.800
REMARK  Name = 
REMARK  4 active torsions:
REMARK  status: ('A' for Active; 'I' for Inactive)
REMARK    1  A    between atoms: C_1  and  C_2
REMARK    2  A    between atoms: C_7  and  O_8
REMARK    3  A    between atoms: O_8  and  C_9
REMARK    4  A    between atoms: C_9  and  C_10
REMARK                            x       y       z     vdW  Elec       q    Type
REMARK                         _______ _______ _______ _____ _____    ______ ____
ROOT
ATOM      1  C   UNL     1       4.642   3.462  17.234  0.00  0.00    +0.000 C 
ENDROOT
BRANCH   1   2
ATOM      2  C   UNL     1       5.203   4.758  16.626  0.00  0.00    +0.000 C 
ATOM      3  O   UNL     1       5.111   5.006  15.424  0.00  0.00    +0.000 OA
ATOM      4  N   UNL     1       5.765   5.663  17.533  0.00  0.00    +0.000 N 
ATOM      5  C   UNL     1       6.132   7.002  17.084  0.00  0.00    +0.000 C 
ATOM      6  C   UNL     1       7.626   7.249  17.273  0.00  0.00    +0.000 C 
ATOM      7  C   UNL     1       8.067   6.940  18.705  0.00  0.00    +0.000 C 
ATOM      8  C   UNL     1       7.619   5.541  19.131  0.00  0.00    +0.000 C 
ATOM      9  C   UNL     1       6.117   5.361  18.922  0.00  0.00    +0.000 C 
ENDBRANCH   1   2
BRANCH   1  10
ATOM     10  O   UNL     1       3.226   3.402  17.263  0.00  0.00    +0.000 OA
BRANCH  10  17
ATOM     11  C   UNL     1       2.346   6.166  18.420  0.00  0.00    +0.000 C 
ATOM     12  C   UNL     1       2.185   4.816  19.046  0.00  0.00    +0.000 A 
ATOM     13  N   UNL     1       1.523   4.856  20.237  0.00  0.00    +0.000 NA
ATOM     14  C   UNL     1       1.248   3.690  20.856  0.00  0.00    +0.000 A 
ATOM     15  C   UNL     1       1.618   2.459  20.357  0.00  0.00    +0.000 A 
ATOM     16  C   UNL     1       2.307   2.427  19.148  0.00  0.00    +0.000 A 
ATOM     17  C   UNL     1       2.611   3.612  18.468  0.00  0.00    +0.000 A 
ENDBRANCH  10  17
ENDBRANCH   1  10
TORSDOF 3
ENDMDL
MODEL 7
REMARK VINA RESULT:      -6.8      1.941      5.834
REMARK  Name = 
REMARK  4 active torsions:
REMARK  status: ('A' for Active; 'I' for Inactive)
REMARK    1  A    between atoms: C_1  and  C_2
REMARK    2  A    between atoms: C_7  and  O_8
REMARK    3  A    between atoms: O_8  and  C_9
REMARK    4  A    between atoms: C_9  and  C_10
REMARK                            x       y       z     vdW  Elec       q    Type
REMARK                         _______ _______ _______ _____ _____    ______ ____
ROOT
ATOM      1  C   UNL     1       3.834   3.604  17.528  0.00  0.00    +0.000 C 
ENDROOT
BRANCH   1   2
ATOM      2  C   UNL     1       5.118   3.846  18.338  0.00  0.00    +0.000 C 
ATOM      3  O   UNL     1       5.315   3.302  19.425  0.00  0.00    +0.000 OA
ATOM      4  N   UNL     1       6.073   4.671  17.734  0.00  0.00    +0.000 N 
ATOM      5  C   UNL     1       7.402   4.791  18.325  0.00  0.00    +0.000 C 
ATOM      6  C   UNL     1       7.694   6.238  18.717  0.00  0.00    +0.000 C 
ATOM      7  C   UNL     1       7.454   7.192  17.547  0.00  0.00    +0.000 C 
ATOM      8  C   UNL     1       6.062   6.991  16.945  0.00  0.00    +0.000 C 
ATOM      9  C   UNL     1       5.837   5.527  16.570  0.00  0.00    +0.000 C 
ENDBRANCH   1   2
BRANCH   1  10
ATOM     10  O   UNL     1       2.641   3.730  18.284  0.00  0.00    +0.000 OA
BRANCH  10  17
ATOM     11  C   UNL     1       2.062   4.225  21.313  0.00  0.00    +0.000 C 
ATOM     12  C   UNL     1       2.131   5.239  20.214  0.00  0.00    +0.000 A 
ATOM     13  N   UNL     1       1.964   6.518  20.657  0.00  0.00    +0.000 NA
ATOM     14  C   UNL     1       2.086   7.524  19.769  0.00  0.00    +0.000 A 
ATOM     15  C   UNL     1       2.352   7.327  18.430  0.00  0.00    +0.000 A 
ATOM     16  C   UNL     1       2.506   6.019  17.982  0.00  0.00    +0.000 A 
ATOM     17  C   UNL     1       2.391   4.942  18.869  0.00  0.00    +0.000 A 
ENDBRANCH  10  17
ENDBRANCH   1  10
TORSDOF 3
ENDMDL
MODEL 8
REMARK VINA RESULT:      -6.8      1.730      2.473
REMARK  Name = 
REMARK  4 active torsions:
REMARK  status: ('A' for Active; 'I' for Inactive)
REMARK    1  A    between atoms: C_1  and  C_2
REMARK    2  A    between atoms: C_7  and  O_8
REMARK    3  A    between atoms: O_8  and  C_9
REMARK    4  A    between atoms: C_9  and  C_10
REMARK                            x       y       z     vdW  Elec       q    Type
REMARK                         _______ _______ _______ _____ _____    ______ ____
ROOT
ATOM      1  C   UNL     1       3.445   3.446  16.737  0.00  0.00    +0.000 C 
ENDROOT
BRANCH   1   2
ATOM      2  C   UNL     1       2.171   3.574  17.588  0.00  0.00    +0.000 C 
ATOM      3  O   UNL     1       1.224   4.279  17.240  0.00  0.00    +0.000 OA
ATOM      4  N   UNL     1       2.132   2.791  18.746  0.00  0.00    +0.000 N 
ATOM      5  C   UNL     1       0.889   2.684  19.504  0.00  0.00    +0.000 C 
ATOM      6  C   UNL     1       1.073   3.204  20.927  0.00  0.00    +0.000 C 
ATOM      7  C   UNL     1       2.269   2.542  21.613  0.00  0.00    +0.000 C 
ATOM      8  C   UNL     1       3.530   2.651  20.754  0.00  0.00    +0.000 C 
ATOM      9  C   UNL     1       3.279   2.110  19.347  0.00  0.00    +0.000 C 
ENDBRANCH   1   2
BRANCH   1  10
ATOM     10  O   UNL     1       4.131   4.671  16.534  0.00  0.00    +0.000 OA
BRANCH  10  17
ATOM     11  C   UNL     1       4.115   5.848  19.427  0.00  0.00    +0.000 C 
ATOM     12  C   UNL     1       5.300   5.430  18.613  0.00  0.00    +0.000 A 
ATOM     13  N   UNL     1       6.479   5.552  19.286  0.00  0.00    +0.000 NA
ATOM     14  C   UNL     1       7.608   5.130  18.681  0.00  0.00    +0.000 A 
ATOM     15  C   UNL     1       7.635   4.597  17.410  0.00  0.00    +0.000 A 
ATOM     16  C   UNL     1       6.429   4.489  16.723  0.00  0.00    +0.000 A 
ATOM     17  C   UNL     1       5.232   4.912  17.312  0.00  0.00    +0.000 A 
ENDBRANCH  10  17
ENDBRANCH   1  10
TORSDOF 3
ENDMDL
MODEL 9
REMARK VINA RESULT:      -6.8      1.687      2.215
REMARK  Name = 
REMARK  4 active torsions:
REMARK  status: ('A' for Active; 'I' for Inactive)
REMARK    1  A    between atoms: C_1  and  C_2
REMARK    2  A    between atoms: C_7  and  O_8
REMARK    3  A    between atoms: O_8  and  C_9
REMARK    4  A    between atoms: C_9  and  C_10
REMARK                            x       y       z     vdW  Elec       q    Type
REMARK                         _______ _______ _______ _____ _____    ______ ____
ROOT
ATOM      1  C   UNL     1       3.358   6.794  17.608  0.00  0.00    +0.000 C 
ENDROOT
BRANCH   1   2
ATOM      2  C   UNL     1       2.861   5.988  18.819  0.00  0.00    +0.000 C 
ATOM      3  O   UNL     1       2.730   6.498  19.932  0.00  0.00    +0.000 OA
ATOM      4  N   UNL     1       2.506   4.659  18.563  0.00  0.00    +0.000 N 
ATOM      5  C   UNL     1       1.830   3.879  19.595  0.00  0.00    +0.000 C 
ATOM      6  C   UNL     1       2.656   2.655  19.981  0.00  0.00    +0.000 C 
ATOM      7  C   UNL     1       3.048   1.836  18.751  0.00  0.00    +0.000 C 
ATOM      8  C   UNL     1       3.714   2.713  17.690  0.00  0.00    +0.000 C 
ATOM      9  C   UNL     1       2.836   3.915  17.346  0.00  0.00    +0.000 C 
ENDBRANCH   1   2
BRANCH   1  10
ATOM     10  O   UNL     1       4.738   7.118  17.656  0.00  0.00    +0.000 OA
BRANCH  10  17
ATOM     11  C   UNL     1       7.225   5.712  18.918  0.00  0.00    +0.000 C 
ATOM     12  C   UNL     1       6.731   5.612  17.508  0.00  0.00    +0.000 A 
ATOM     13  N   UNL     1       7.464   4.750  16.746  0.00  0.00    +0.000 NA
ATOM     14  C   UNL     1       7.064   4.517  15.480  0.00  0.00    +0.000 A 
ATOM     15  C   UNL     1       5.963   5.119  14.908  0.00  0.00    +0.000 A 
ATOM     16  C   UNL     1       5.229   6.008  15.687  0.00  0.00    +0.000 A 
ATOM     17  C   UNL     1       5.604   6.279  17.007  0.00  0.00    +0.000 A 
ENDBRANCH  10  17
ENDBRANCH   1  10
TORSDOF 3
ENDMDL
