MODEL 1
REMARK VINA RESULT:      -6.2      0.000      0.000
REMARK  Name = 
REMARK  2 active torsions:
REMARK  status: ('A' for Active; 'I' for Inactive)
REMARK    1  A    between atoms: C_1  and  C_2
REMARK    2  A    between atoms: C_13  and  C_14
REMARK                            x       y       z     vdW  Elec       q    Type
REMARK                         _______ _______ _______ _____ _____    ______ ____
ROOT
ATOM      1  C   UNL     1       1.238   8.399  21.666  0.00  0.00    +0.000 C 
ATOM      2  C   UNL     1       1.759   7.660  20.473  0.00  0.00    +0.000 A 
ATOM      3  C   UNL     1       2.267   6.371  20.606  0.00  0.00    +0.000 A 
ATOM      4  C   UNL     1       2.751   5.677  19.482  0.00  0.00    +0.000 A 
ATOM      5  C   UNL     1       2.677   6.247  18.184  0.00  0.00    +0.000 A 
ATOM      6  C   UNL     1       2.194   7.554  18.068  0.00  0.00    +0.000 A 
ATOM      7  C   UNL     1       1.751   8.243  19.201  0.00  0.00    +0.000 A 
ATOM      8  F   UNL     1       1.310   9.502  19.059  0.00  0.00    +0.000 F 
ATOM      9  N   UNL     1       3.149   5.529  17.039  0.00  0.00    +0.000 N 
ATOM     10  C   UNL     1       4.385   6.095  16.469  0.00  0.00    +0.000 C 
ATOM     11  C   UNL     1       5.520   5.905  17.450  0.00  0.00    +0.000 A 
ATOM     12  C   UNL     1       6.608   6.793  17.415  0.00  0.00    +0.000 A 
ATOM     13  C   UNL     1       7.550   6.784  18.444  0.00  0.00    +0.000 A 
ATOM     14  C   UNL     1       8.642   7.807  18.496  0.00  0.00    +0.000 C 
ATOM     15  C   UNL     1       7.407   5.846  19.469  0.00  0.00    +0.000 A 
ATOM     16  F   UNL     1       8.256   5.869  20.507  0.00  0.00    +0.000 F 
ATOM     17  C   UNL     1       6.382   4.900  19.464  0.00  0.00    +0.000 A 
ATOM     18  C   UNL     1       5.416   4.911  18.454  0.00  0.00    +0.000 A 
ATOM     19  N   UNL     1       4.277   4.044  18.519  0.00  0.00    +0.000 N 
ATOM     20  C   UNL     1       3.431   4.346  19.689  0.00  0.00    +0.000 C 
ATOM     21  C   UNL     1       3.421   4.123  17.335  0.00  0.00    +0.000 C 
ENDROOT
TORSDOF 0
ENDMDL
MODEL 2
REMARK VINA RESULT:      -6.0      6.359      8.899
REMARK  Name = 
REMARK  2 active torsions:
REMARK  status: ('A' for Active; 'I' for Inactive)
REMARK    1  A    between atoms: C_1  and  C_2
REMARK    2  A    between atoms: C_13  and  C_14
REMARK                            x       y       z     vdW  Elec       q    Type
REMARK                         _______ _______ _______ _____ _____    ______ ____
ROOT
ATOM      1  C   UNL     1       2.895  15.251  17.530  0.00  0.00    +0.000 C 
ATOM      2  C   UNL     1       2.115  14.350  18.436  0.00  0.00    +0.000 A 
ATOM      3  C   UNL     1       2.226  12.967  18.325  0.00  0.00    +0.000 A 
ATOM      4  C   UNL     1       1.495  12.123  19.181  0.00  0.00    +0.000 A 
ATOM      5  C   UNL     1       0.679  12.658  20.212  0.00  0.00    +0.000 A 
ATOM      6  C   UNL     1       0.551  14.047  20.292  0.00  0.00    +0.000 A 
ATOM      7  C   UNL     1       1.256  14.871  19.410  0.00  0.00    +0.000 A 
ATOM      8  F   UNL     1       1.098  16.200  19.501  0.00  0.00    +0.000 F 
ATOM      9  N   UNL     1      -0.045  11.796  21.096  0.00  0.00    +0.000 N 
ATOM     10  C   UNL     1      -1.502  11.826  20.870  0.00  0.00    +0.000 C 
ATOM     11  C   UNL     1      -1.810  11.221  19.518  0.00  0.00    +0.000 A 
ATOM     12  C   UNL     1      -2.980  11.611  18.846  0.00  0.00    +0.000 A 
ATOM     13  C   UNL     1      -3.172  11.249  17.513  0.00  0.00    +0.000 A 
ATOM     14  C   UNL     1      -4.345  11.764  16.738  0.00  0.00    +0.000 C 
ATOM     15  C   UNL     1      -2.205  10.457  16.891  0.00  0.00    +0.000 A 
ATOM     16  F   UNL     1      -2.331  10.160  15.589  0.00  0.00    +0.000 F 
ATOM     17  C   UNL     1      -1.085   9.987  17.579  0.00  0.00    +0.000 A 
ATOM     18  C   UNL     1      -0.864  10.361  18.907  0.00  0.00    +0.000 A 
ATOM     19  N   UNL     1       0.354  10.009  19.574  0.00  0.00    +0.000 N 
ATOM     20  C   UNL     1       1.525  10.635  18.932  0.00  0.00    +0.000 C 
ATOM     21  C   UNL     1       0.375  10.400  20.984  0.00  0.00    +0.000 C 
ENDROOT
TORSDOF 0
ENDMDL
MODEL 3
REMARK VINA RESULT:      -5.9      7.173      9.396
REMARK  Name = 
REMARK  2 active torsions:
REMARK  status: ('A' for Active; 'I' for Inactive)
REMARK    1  A    between atoms: C_1  and  C_2
REMARK    2  A    between atoms: C_13  and  C_14
REMARK                            x       y       z     vdW  Elec       q    Type
REMARK                         _______ _______ _______ _____ _____    ______ ____
ROOT
ATOM      1  C   UNL     1       3.066  15.389  17.791  0.00  0.00    +0.000 C 
ATOM      2  C   UNL     1       1.971  14.899  18.686  0.00  0.00    +0.000 A 
ATOM      3  C   UNL     1       2.055  13.646  19.285  0.00  0.00    +0.000 A 
ATOM      4  C   UNL     1       1.026  13.191  20.130  0.00  0.00    +0.000 A 
ATOM      5  C   UNL     1      -0.087  14.018  20.438  0.00  0.00    +0.000 A 
ATOM      6  C   UNL     1      -0.174  15.261  19.804  0.00  0.00    +0.000 A 
ATOM      7  C   UNL     1       0.840  15.683  18.939  0.00  0.00    +0.000 A 
ATOM      8  F   UNL     1       0.717  16.873  18.333  0.00  0.00    +0.000 F 
ATOM      9  N   UNL     1      -1.120  13.561  21.316  0.00  0.00    +0.000 N 
ATOM     10  C   UNL     1      -2.391  13.286  20.621  0.00  0.00    +0.000 C 
ATOM     11  C   UNL     1      -2.211  12.099  19.702  0.00  0.00    +0.000 A 
ATOM     12  C   UNL     1      -3.037  11.978  18.572  0.00  0.00    +0.000 A 
ATOM     13  C   UNL     1      -2.746  11.029  17.593  0.00  0.00    +0.000 A 
ATOM     14  C   UNL     1      -3.532  10.971  16.320  0.00  0.00    +0.000 C 
ATOM     15  C   UNL     1      -1.654  10.181  17.791  0.00  0.00    +0.000 A 
ATOM     16  F   UNL     1      -1.310   9.312  16.828  0.00  0.00    +0.000 F 
ATOM     17  C   UNL     1      -0.884  10.231  18.953  0.00  0.00    +0.000 A 
ATOM     18  C   UNL     1      -1.146  11.193  19.932  0.00  0.00    +0.000 A 
ATOM     19  N   UNL     1      -0.271  11.351  21.057  0.00  0.00    +0.000 N 
ATOM     20  C   UNL     1       1.079  11.771  20.639  0.00  0.00    +0.000 C 
ATOM     21  C   UNL     1      -0.749  12.338  22.026  0.00  0.00    +0.000 C 
ENDROOT
TORSDOF 0
ENDMDL
MODEL 4
REMARK VINA RESULT:      -5.9      6.876      9.412
REMARK  Name = 
REMARK  2 active torsions:
REMARK  status: ('A' for Active; 'I' for Inactive)
REMARK    1  A    between atoms: C_1  and  C_2
REMARK    2  A    between atoms: C_13  and  C_14
REMARK                            x       y       z     vdW  Elec       q    Type
REMARK                         _______ _______ _______ _____ _____    ______ ____
ROOT
ATOM      1  C   UNL     1       2.512  16.580  17.724  0.00  0.00    +0.000 C 
ATOM      2  C   UNL     1       1.521  15.901  18.618  0.00  0.00    +0.000 A 
ATOM      3  C   UNL     1       1.913  14.840  19.430  0.00  0.00    +0.000 A 
ATOM      4  C   UNL     1       0.980  14.208  20.272  0.00  0.00    +0.000 A 
ATOM      5  C   UNL     1      -0.359  14.673  20.360  0.00  0.00    +0.000 A 
ATOM      6  C   UNL     1      -0.746  15.718  19.516  0.00  0.00    +0.000 A 
ATOM      7  C   UNL     1       0.184  16.312  18.658  0.00  0.00    +0.000 A 
ATOM      8  F   UNL     1      -0.223  17.300  17.849  0.00  0.00    +0.000 F 
ATOM      9  N   UNL     1      -1.299  14.042  21.236  0.00  0.00    +0.000 N 
ATOM     10  C   UNL     1      -2.336  13.279  20.519  0.00  0.00    +0.000 C 
ATOM     11  C   UNL     1      -1.699  12.091  19.833  0.00  0.00    +0.000 A 
ATOM     12  C   UNL     1      -2.313  11.552  18.690  0.00  0.00    +0.000 A 
ATOM     13  C   UNL     1      -1.636  10.614  17.911  0.00  0.00    +0.000 A 
ATOM     14  C   UNL     1      -2.214  10.126  16.619  0.00  0.00    +0.000 C 
ATOM     15  C   UNL     1      -0.368  10.196  18.323  0.00  0.00    +0.000 A 
ATOM     16  F   UNL     1       0.333   9.354  17.550  0.00  0.00    +0.000 F 
ATOM     17  C   UNL     1       0.210  10.657  19.506  0.00  0.00    +0.000 A 
ATOM     18  C   UNL     1      -0.443  11.615  20.285  0.00  0.00    +0.000 A 
ATOM     19  N   UNL     1       0.206  12.205  21.418  0.00  0.00    +0.000 N 
ATOM     20  C   UNL     1       1.403  12.969  21.022  0.00  0.00    +0.000 C 
ATOM     21  C   UNL     1      -0.658  13.117  22.170  0.00  0.00    +0.000 C 
ENDROOT
TORSDOF 0
ENDMDL
MODEL 5
REMARK VINA RESULT:      -5.8      6.092      7.837
REMARK  Name = 
REMARK  2 active torsions:
REMARK  status: ('A' for Active; 'I' for Inactive)
REMARK    1  A    between atoms: C_1  and  C_2
REMARK    2  A    between atoms: C_13  and  C_14
REMARK                            x       y       z     vdW  Elec       q    Type
REMARK                         _______ _______ _______ _____ _____    ______ ____
ROOT
ATOM      1  C   UNL     1      -4.540  11.930  17.437  0.00  0.00    +0.000 C 
ATOM      2  C   UNL     1      -3.211  11.402  17.879  0.00  0.00    +0.000 A 
ATOM      3  C   UNL     1      -2.761  11.618  19.179  0.00  0.00    +0.000 A 
ATOM      4  C   UNL     1      -1.514  11.116  19.592  0.00  0.00    +0.000 A 
ATOM      5  C   UNL     1      -0.717  10.329  18.719  0.00  0.00    +0.000 A 
ATOM      6  C   UNL     1      -1.166  10.146  17.409  0.00  0.00    +0.000 A 
ATOM      7  C   UNL     1      -2.392  10.683  17.002  0.00  0.00    +0.000 A 
ATOM      8  F   UNL     1      -2.785  10.505  15.733  0.00  0.00    +0.000 F 
ATOM      9  N   UNL     1       0.541   9.800  19.151  0.00  0.00    +0.000 N 
ATOM     10  C   UNL     1       1.695  10.450  18.505  0.00  0.00    +0.000 C 
ATOM     11  C   UNL     1       1.783  11.887  18.968  0.00  0.00    +0.000 A 
ATOM     12  C   UNL     1       2.401  12.836  18.137  0.00  0.00    +0.000 A 
ATOM     13  C   UNL     1       2.294  14.196  18.431  0.00  0.00    +0.000 A 
ATOM     14  C   UNL     1       2.830  15.230  17.490  0.00  0.00    +0.000 C 
ATOM     15  C   UNL     1       1.607  14.576  19.585  0.00  0.00    +0.000 A 
ATOM     16  F   UNL     1       1.426  15.879  19.847  0.00  0.00    +0.000 F 
ATOM     17  C   UNL     1       1.070  13.636  20.466  0.00  0.00    +0.000 A 
ATOM     18  C   UNL     1       1.146  12.272  20.174  0.00  0.00    +0.000 A 
ATOM     19  N   UNL     1       0.469  11.309  20.991  0.00  0.00    +0.000 N 
ATOM     20  C   UNL     1      -0.993  11.499  20.956  0.00  0.00    +0.000 C 
ATOM     21  C   UNL     1       0.734   9.925  20.595  0.00  0.00    +0.000 C 
ENDROOT
TORSDOF 0
ENDMDL
MODEL 6
REMARK VINA RESULT:      -5.8      7.049      8.870
REMARK  Name = 
REMARK  2 active torsions:
REMARK  status: ('A' for Active; 'I' for Inactive)
REMARK    1  A    between atoms: C_1  and  C_2
REMARK    2  A    between atoms: C_13  and  C_14
REMARK                            x       y       z     vdW  Elec       q    Type
REMARK                         _______ _______ _______ _____ _____    ______ ____
ROOT
ATOM      1  C   UNL     1      -3.544  10.969  16.206  0.00  0.00    +0.000 C 
ATOM      2  C   UNL     1      -2.671  11.036  17.420  0.00  0.00    +0.000 A 
ATOM      3  C   UNL     1      -2.892  12.003  18.397  0.00  0.00    +0.000 A 
ATOM      4  C   UNL     1      -2.073  12.059  19.540  0.00  0.00    +0.000 A 
ATOM      5  C   UNL     1      -1.048  11.100  19.752  0.00  0.00    +0.000 A 
ATOM      6  C   UNL     1      -0.817  10.155  18.749  0.00  0.00    +0.000 A 
ATOM      7  C   UNL     1      -1.617  10.135  17.602  0.00  0.00    +0.000 A 
ATOM      8  F   UNL     1      -1.357   9.226  16.651  0.00  0.00    +0.000 F 
ATOM      9  N   UNL     1      -0.232  11.146  20.928  0.00  0.00    +0.000 N 
ATOM     10  C   UNL     1       1.157  11.556  20.652  0.00  0.00    +0.000 C 
ATOM     11  C   UNL     1       1.172  13.000  20.202  0.00  0.00    +0.000 A 
ATOM     12  C   UNL     1       2.222  13.449  19.384  0.00  0.00    +0.000 A 
ATOM     13  C   UNL     1       2.143  14.699  18.771  0.00  0.00    +0.000 A 
ATOM     14  C   UNL     1       3.185  15.143  17.792  0.00  0.00    +0.000 C 
ATOM     15  C   UNL     1       1.028  15.500  19.031  0.00  0.00    +0.000 A 
ATOM     16  F   UNL     1       0.894  16.672  18.393  0.00  0.00    +0.000 F 
ATOM     17  C   UNL     1       0.025  15.100  19.914  0.00  0.00    +0.000 A 
ATOM     18  C   UNL     1       0.076  13.841  20.517  0.00  0.00    +0.000 A 
ATOM     19  N   UNL     1      -1.020  13.361  21.306  0.00  0.00    +0.000 N 
ATOM     20  C   UNL     1      -2.245  13.211  20.499  0.00  0.00    +0.000 C 
ATOM     21  C   UNL     1      -0.757  12.067  21.936  0.00  0.00    +0.000 C 
ENDROOT
TORSDOF 0
ENDMDL
MODEL 7
REMARK VINA RESULT:      -5.8      8.284     10.247
REMARK  Name = 
REMARK  2 active torsions:
REMARK  status: ('A' for Active; 'I' for Inactive)
REMARK    1  A    between atoms: C_1  and  C_2
REMARK    2  A    between atoms: C_13  and  C_14
REMARK                            x       y       z     vdW  Elec       q    Type
REMARK                         _______ _______ _______ _____ _____    ______ ____
ROOT
ATOM      1  C   UNL     1       8.476  13.440  24.589  0.00  0.00    +0.000 C 
ATOM      2  C   UNL     1       8.886  13.343  23.153  0.00  0.00    +0.000 A 
ATOM      3  C   UNL     1       9.445  14.439  22.502  0.00  0.00    +0.000 A 
ATOM      4  C   UNL     1       9.834  14.343  21.153  0.00  0.00    +0.000 A 
ATOM      5  C   UNL     1       9.722  13.118  20.445  0.00  0.00    +0.000 A 
ATOM      6  C   UNL     1       9.129  12.035  21.101  0.00  0.00    +0.000 A 
ATOM      7  C   UNL     1       8.715  12.157  22.430  0.00  0.00    +0.000 A 
ATOM      8  F   UNL     1       8.134  11.105  23.025  0.00  0.00    +0.000 F 
ATOM      9  N   UNL     1      10.140  13.018  19.080  0.00  0.00    +0.000 N 
ATOM     10  C   UNL     1       9.015  12.871  18.139  0.00  0.00    +0.000 C 
ATOM     11  C   UNL     1       8.204  14.148  18.127  0.00  0.00    +0.000 A 
ATOM     12  C   UNL     1       6.845  14.090  17.777  0.00  0.00    +0.000 A 
ATOM     13  C   UNL     1       6.024  15.200  17.977  0.00  0.00    +0.000 A 
ATOM     14  C   UNL     1       4.549  15.120  17.736  0.00  0.00    +0.000 C 
ATOM     15  C   UNL     1       6.597  16.369  18.483  0.00  0.00    +0.000 A 
ATOM     16  F   UNL     1       5.814  17.424  18.755  0.00  0.00    +0.000 F 
ATOM     17  C   UNL     1       7.964  16.465  18.746  0.00  0.00    +0.000 A 
ATOM     18  C   UNL     1       8.795  15.355  18.575  0.00  0.00    +0.000 A 
ATOM     19  N   UNL     1      10.168  15.397  18.985  0.00  0.00    +0.000 N 
ATOM     20  C   UNL     1      10.294  15.591  20.441  0.00  0.00    +0.000 C 
ATOM     21  C   UNL     1      10.910  14.183  18.645  0.00  0.00    +0.000 C 
ENDROOT
TORSDOF 0
ENDMDL
MODEL 8
REMARK VINA RESULT:      -5.8      8.578     12.274
REMARK  Name = 
REMARK  2 active torsions:
REMARK  status: ('A' for Active; 'I' for Inactive)
REMARK    1  A    between atoms: C_1  and  C_2
REMARK    2  A    between atoms: C_13  and  C_14
REMARK                            x       y       z     vdW  Elec       q    Type
REMARK                         _______ _______ _______ _____ _____    ______ ____
ROOT
ATOM      1  C   UNL     1      -0.435  10.239  22.916  0.00  0.00    +0.000 C 
ATOM      2  C   UNL     1      -1.284  11.452  22.695  0.00  0.00    +0.000 A 
ATOM      3  C   UNL     1      -2.436  11.656  23.449  0.00  0.00    +0.000 A 
ATOM      4  C   UNL     1      -3.228  12.800  23.242  0.00  0.00    +0.000 A 
ATOM      5  C   UNL     1      -2.842  13.797  22.309  0.00  0.00    +0.000 A 
ATOM      6  C   UNL     1      -1.701  13.565  21.537  0.00  0.00    +0.000 A 
ATOM      7  C   UNL     1      -0.944  12.405  21.729  0.00  0.00    +0.000 A 
ATOM      8  F   UNL     1       0.136  12.204  20.960  0.00  0.00    +0.000 F 
ATOM      9  N   UNL     1      -3.639  14.971  22.118  0.00  0.00    +0.000 N 
ATOM     10  C   UNL     1      -4.331  14.996  20.816  0.00  0.00    +0.000 C 
ATOM     11  C   UNL     1      -5.372  13.900  20.784  0.00  0.00    +0.000 A 
ATOM     12  C   UNL     1      -5.761  13.363  19.545  0.00  0.00    +0.000 A 
ATOM     13  C   UNL     1      -6.540  12.208  19.498  0.00  0.00    +0.000 A 
ATOM     14  C   UNL     1      -6.854  11.544  18.193  0.00  0.00    +0.000 C 
ATOM     15  C   UNL     1      -6.958  11.637  20.702  0.00  0.00    +0.000 A 
ATOM     16  F   UNL     1      -7.643  10.484  20.684  0.00  0.00    +0.000 F 
ATOM     17  C   UNL     1      -6.655  12.215  21.935  0.00  0.00    +0.000 A 
ATOM     18  C   UNL     1      -5.854  13.359  22.001  0.00  0.00    +0.000 A 
ATOM     19  N   UNL     1      -5.413  13.872  23.264  0.00  0.00    +0.000 N 
ATOM     20  C   UNL     1      -4.546  12.910  23.969  0.00  0.00    +0.000 C 
ATOM     21  C   UNL     1      -4.664  15.125  23.149  0.00  0.00    +0.000 C 
ENDROOT
TORSDOF 0
ENDMDL
MODEL 9
REMARK VINA RESULT:      -5.8      6.844      9.432
REMARK  Name = 
REMARK  2 active torsions:
REMARK  status: ('A' for Active; 'I' for Inactive)
REMARK    1  A    between atoms: C_1  and  C_2
REMARK    2  A    between atoms: C_13  and  C_14
REMARK                            x       y       z     vdW  Elec       q    Type
REMARK                         _______ _______ _______ _____ _____    ______ ____
ROOT
ATOM      1  C   UNL     1      -2.320  10.006  16.630  0.00  0.00    +0.000 C 
ATOM      2  C   UNL     1      -1.642  10.588  17.830  0.00  0.00    +0.000 A 
ATOM      3  C   UNL     1      -2.277  11.559  18.600  0.00  0.00    +0.000 A 
ATOM      4  C   UNL     1      -1.638  12.100  19.731  0.00  0.00    +0.000 A 
ATOM      5  C   UNL     1      -0.364  11.630  20.146  0.00  0.00    +0.000 A 
ATOM      6  C   UNL     1       0.275  10.679  19.346  0.00  0.00    +0.000 A 
ATOM      7  C   UNL     1      -0.358  10.177  18.205  0.00  0.00    +0.000 A 
ATOM      8  F   UNL     1       0.290   9.278  17.450  0.00  0.00    +0.000 F 
ATOM      9  N   UNL     1       0.272  12.167  21.310  0.00  0.00    +0.000 N 
ATOM     10  C   UNL     1       1.446  13.001  20.995  0.00  0.00    +0.000 C 
ATOM     11  C   UNL     1       0.992  14.253  20.279  0.00  0.00    +0.000 A 
ATOM     12  C   UNL     1       1.885  14.909  19.416  0.00  0.00    +0.000 A 
ATOM     13  C   UNL     1       1.427  15.922  18.575  0.00  0.00    +0.000 A 
ATOM     14  C   UNL     1       2.330  16.543  17.555  0.00  0.00    +0.000 C 
ATOM     15  C   UNL     1       0.083  16.294  18.652  0.00  0.00    +0.000 A 
ATOM     16  F   UNL     1      -0.398  17.212  17.800  0.00  0.00    +0.000 F 
ATOM     17  C   UNL     1      -0.791  15.712  19.571  0.00  0.00    +0.000 A 
ATOM     18  C   UNL     1      -0.354  14.678  20.403  0.00  0.00    +0.000 A 
ATOM     19  N   UNL     1      -1.277  13.973  21.242  0.00  0.00    +0.000 N 
ATOM     20  C   UNL     1      -2.292  13.254  20.450  0.00  0.00    +0.000 C 
ATOM     21  C   UNL     1      -0.632  12.989  22.113  0.00  0.00    +0.000 C 
ENDROOT
TORSDOF 0
ENDMDL
