MODEL 1
REMARK VINA RESULT:      -8.0      0.000      0.000
REMARK  Name = 
REMARK  3 active torsions:
REMARK  status: ('A' for Active; 'I' for Inactive)
REMARK    1  A    between atoms: C_7  and  C_8
REMARK    2  A    between atoms: N_15  and  C_16
REMARK    3  A    between atoms: C_16  and  C_17
REMARK                            x       y       z     vdW  Elec       q    Type
REMARK                         _______ _______ _______ _____ _____    ______ ____
ROOT
ATOM      1  O   UNL     1       1.836   8.992  18.345  0.00  0.00    +0.000 OA
ATOM      2  C   UNL     1       2.194   8.215  19.223  0.00  0.00    +0.000 C 
ATOM      3  N   UNL     1       1.771   8.290  20.529  0.00  0.00    +0.000 N 
ATOM      4  C   UNL     1       0.751   9.142  20.876  0.00  0.00    +0.000 A 
ATOM      5  N   UNL     1      -0.177   9.682  20.119  0.00  0.00    +0.000 NA
ATOM      6  N   UNL     1      -1.057  10.454  20.851  0.00  0.00    +0.000 NA
ATOM      7  C   UNL     1      -0.745  10.476  22.128  0.00  0.00    +0.000 A 
ATOM      8  S   UNL     1       0.631   9.531  22.535  0.00  0.00    +0.000 S 
ATOM      9  N   UNL     1       3.117   7.214  18.957  0.00  0.00    +0.000 N 
ATOM     10  C   UNL     1       3.820   7.239  17.668  0.00  0.00    +0.000 C 
ATOM     11  C   UNL     1       3.842   5.889  16.921  0.00  0.00    +0.000 C 
ATOM     12  N   UNL     1       4.171   4.787  17.838  0.00  0.00    +0.000 NA
ATOM     13  C   UNL     1       3.172   4.680  18.946  0.00  0.00    +0.000 C 
ATOM     14  C   UNL     1       1.658   4.664  18.549  0.00  0.00    +0.000 C 
ATOM     15  C   UNL     1       1.194   3.378  17.890  0.00  0.00    +0.000 C 
ATOM     16  C   UNL     1       1.443   2.177  18.792  0.00  0.00    +0.000 C 
ATOM     17  C   UNL     1       2.875   2.113  19.311  0.00  0.00    +0.000 C 
ATOM     18  C   UNL     1       3.385   3.452  19.878  0.00  0.00    +0.000 C 
ATOM     19  C   UNL     1       3.382   6.007  19.781  0.00  0.00    +0.000 C 
ATOM     20  H   UNL     1       2.401   8.004  21.258  0.00  0.00    +0.000 HD
ENDROOT
BRANCH   7  21
ATOM     21  C   UNL     1      -1.562  11.268  23.153  0.00  0.00    +0.000 C 
ATOM     22  C   UNL     1      -1.339  12.769  23.244  0.00  0.00    +0.000 C 
ATOM     23  C   UNL     1      -2.595  12.252  22.632  0.00  0.00    +0.000 C 
ENDBRANCH   7  21
BRANCH  12  24
ATOM     24  C   UNL     1       4.738   3.603  17.194  0.00  0.00    +0.000 C 
BRANCH  24  25
ATOM     25  C   UNL     1       5.623   3.919  15.991  0.00  0.00    +0.000 A 
ATOM     26  C   UNL     1       6.833   4.612  16.161  0.00  0.00    +0.000 A 
ATOM     27  C   UNL     1       7.599   4.994  15.056  0.00  0.00    +0.000 A 
ATOM     28  C   UNL     1       7.168   4.683  13.769  0.00  0.00    +0.000 A 
ATOM     29  C   UNL     1       6.001   3.940  13.589  0.00  0.00    +0.000 A 
ATOM     30  C   UNL     1       5.239   3.548  14.694  0.00  0.00    +0.000 A 
ENDBRANCH  24  25
ENDBRANCH  12  24
TORSDOF 3
ENDMDL
MODEL 2
REMARK VINA RESULT:      -7.8      1.777      3.265
REMARK  Name = 
REMARK  3 active torsions:
REMARK  status: ('A' for Active; 'I' for Inactive)
REMARK    1  A    between atoms: C_7  and  C_8
REMARK    2  A    between atoms: N_15  and  C_16
REMARK    3  A    between atoms: C_16  and  C_17
REMARK                            x       y       z     vdW  Elec       q    Type
REMARK                         _______ _______ _______ _____ _____    ______ ____
ROOT
ATOM      1  O   UNL     1       1.338   5.878  19.892  0.00  0.00    +0.000 OA
ATOM      2  C   UNL     1       2.001   6.627  19.184  0.00  0.00    +0.000 C 
ATOM      3  N   UNL     1       1.963   7.999  19.277  0.00  0.00    +0.000 N 
ATOM      4  C   UNL     1       1.310   8.602  20.323  0.00  0.00    +0.000 A 
ATOM      5  N   UNL     1       0.983   8.109  21.496  0.00  0.00    +0.000 NA
ATOM      6  N   UNL     1       0.368   9.049  22.299  0.00  0.00    +0.000 NA
ATOM      7  C   UNL     1       0.243  10.208  21.690  0.00  0.00    +0.000 A 
ATOM      8  S   UNL     1       0.894  10.244  20.100  0.00  0.00    +0.000 S 
ATOM      9  N   UNL     1       2.817   6.124  18.181  0.00  0.00    +0.000 N 
ATOM     10  C   UNL     1       2.703   4.701  17.839  0.00  0.00    +0.000 C 
ATOM     11  C   UNL     1       4.049   3.952  17.743  0.00  0.00    +0.000 C 
ATOM     12  N   UNL     1       5.036   4.742  16.990  0.00  0.00    +0.000 NA
ATOM     13  C   UNL     1       5.293   6.064  17.643  0.00  0.00    +0.000 C 
ATOM     14  C   UNL     1       5.610   6.057  19.176  0.00  0.00    +0.000 C 
ATOM     15  C   UNL     1       6.984   5.517  19.532  0.00  0.00    +0.000 C 
ATOM     16  C   UNL     1       8.083   6.310  18.840  0.00  0.00    +0.000 C 
ATOM     17  C   UNL     1       7.855   6.454  17.339  0.00  0.00    +0.000 C 
ATOM     18  C   UNL     1       6.425   6.894  16.973  0.00  0.00    +0.000 C 
ATOM     19  C   UNL     1       3.923   6.839  17.492  0.00  0.00    +0.000 C 
ATOM     20  H   UNL     1       2.099   8.543  18.443  0.00  0.00    +0.000 HD
ENDROOT
BRANCH   7  21
ATOM     21  C   UNL     1      -0.414  11.416  22.364  0.00  0.00    +0.000 C 
ATOM     22  C   UNL     1      -1.765  11.881  21.845  0.00  0.00    +0.000 C 
ATOM     23  C   UNL     1      -1.687  11.182  23.158  0.00  0.00    +0.000 C 
ENDBRANCH   7  21
BRANCH  12  24
ATOM     24  C   UNL     1       6.111   3.959  16.383  0.00  0.00    +0.000 C 
BRANCH  24  25
ATOM     25  C   UNL     1       6.200   4.104  14.867  0.00  0.00    +0.000 A 
ATOM     26  C   UNL     1       5.215   3.537  14.040  0.00  0.00    +0.000 A 
ATOM     27  C   UNL     1       5.342   3.577  12.649  0.00  0.00    +0.000 A 
ATOM     28  C   UNL     1       6.449   4.188  12.068  0.00  0.00    +0.000 A 
ATOM     29  C   UNL     1       7.402   4.810  12.874  0.00  0.00    +0.000 A 
ATOM     30  C   UNL     1       7.272   4.780  14.266  0.00  0.00    +0.000 A 
ENDBRANCH  24  25
ENDBRANCH  12  24
TORSDOF 3
ENDMDL
MODEL 3
REMARK VINA RESULT:      -7.6      1.473      1.603
REMARK  Name = 
REMARK  3 active torsions:
REMARK  status: ('A' for Active; 'I' for Inactive)
REMARK    1  A    between atoms: C_7  and  C_8
REMARK    2  A    between atoms: N_15  and  C_16
REMARK    3  A    between atoms: C_16  and  C_17
REMARK                            x       y       z     vdW  Elec       q    Type
REMARK                         _______ _______ _______ _____ _____    ______ ____
ROOT
ATOM      1  O   UNL     1       1.793   9.719  17.365  0.00  0.00    +0.000 OA
ATOM      2  C   UNL     1       1.817   9.087  18.415  0.00  0.00    +0.000 C 
ATOM      3  N   UNL     1       0.969   9.325  19.470  0.00  0.00    +0.000 N 
ATOM      4  C   UNL     1      -0.100  10.174  19.318  0.00  0.00    +0.000 A 
ATOM      5  N   UNL     1      -0.702  10.566  18.219  0.00  0.00    +0.000 NA
ATOM      6  N   UNL     1      -1.774  11.396  18.484  0.00  0.00    +0.000 NA
ATOM      7  C   UNL     1      -1.923  11.608  19.774  0.00  0.00    +0.000 A 
ATOM      8  S   UNL     1      -0.783  10.784  20.761  0.00  0.00    +0.000 S 
ATOM      9  N   UNL     1       2.765   8.096  18.630  0.00  0.00    +0.000 N 
ATOM     10  C   UNL     1       3.871   7.971  17.672  0.00  0.00    +0.000 C 
ATOM     11  C   UNL     1       4.137   6.533  17.181  0.00  0.00    +0.000 C 
ATOM     12  N   UNL     1       4.117   5.582  18.304  0.00  0.00    +0.000 NA
ATOM     13  C   UNL     1       2.794   5.590  19.004  0.00  0.00    +0.000 C 
ATOM     14  C   UNL     1       1.512   5.458  18.117  0.00  0.00    +0.000 C 
ATOM     15  C   UNL     1       1.292   4.074  17.531  0.00  0.00    +0.000 C 
ATOM     16  C   UNL     1       1.201   3.022  18.626  0.00  0.00    +0.000 C 
ATOM     17  C   UNL     1       2.364   3.089  19.610  0.00  0.00    +0.000 C 
ATOM     18  C   UNL     1       2.659   4.512  20.118  0.00  0.00    +0.000 C 
ATOM     19  C   UNL     1       2.716   7.027  19.660  0.00  0.00    +0.000 C 
ATOM     20  H   UNL     1       1.304   9.168  20.405  0.00  0.00    +0.000 HD
ENDROOT
BRANCH   7  21
ATOM     21  C   UNL     1      -3.036  12.499  20.329  0.00  0.00    +0.000 C 
ATOM     22  C   UNL     1      -3.002  12.855  21.807  0.00  0.00    +0.000 C 
ATOM     23  C   UNL     1      -2.663  13.896  20.796  0.00  0.00    +0.000 C 
ENDBRANCH   7  21
BRANCH  12  24
ATOM     24  C   UNL     1       4.860   4.345  18.072  0.00  0.00    +0.000 C 
BRANCH  24  25
ATOM     25  C   UNL     1       5.614   4.317  16.745  0.00  0.00    +0.000 A 
ATOM     26  C   UNL     1       6.937   4.782  16.670  0.00  0.00    +0.000 A 
ATOM     27  C   UNL     1       7.599   4.854  15.441  0.00  0.00    +0.000 A 
ATOM     28  C   UNL     1       6.950   4.457  14.275  0.00  0.00    +0.000 A 
ATOM     29  C   UNL     1       5.659   3.933  14.344  0.00  0.00    +0.000 A 
ATOM     30  C   UNL     1       4.999   3.851  15.574  0.00  0.00    +0.000 A 
ENDBRANCH  24  25
ENDBRANCH  12  24
TORSDOF 3
ENDMDL
MODEL 4
REMARK VINA RESULT:      -7.5      2.652      9.843
REMARK  Name = 
REMARK  3 active torsions:
REMARK  status: ('A' for Active; 'I' for Inactive)
REMARK    1  A    between atoms: C_7  and  C_8
REMARK    2  A    between atoms: N_15  and  C_16
REMARK    3  A    between atoms: C_16  and  C_17
REMARK                            x       y       z     vdW  Elec       q    Type
REMARK                         _______ _______ _______ _____ _____    ______ ____
ROOT
ATOM      1  O   UNL     1       1.560   6.534  20.436  0.00  0.00    +0.000 OA
ATOM      2  C   UNL     1       1.877   7.574  19.870  0.00  0.00    +0.000 C 
ATOM      3  N   UNL     1       2.767   7.634  18.823  0.00  0.00    +0.000 N 
ATOM      4  C   UNL     1       3.204   6.480  18.222  0.00  0.00    +0.000 A 
ATOM      5  N   UNL     1       2.661   5.284  18.222  0.00  0.00    +0.000 NA
ATOM      6  N   UNL     1       3.385   4.388  17.460  0.00  0.00    +0.000 NA
ATOM      7  C   UNL     1       4.452   4.944  16.930  0.00  0.00    +0.000 A 
ATOM      8  S   UNL     1       4.637   6.612  17.300  0.00  0.00    +0.000 S 
ATOM      9  N   UNL     1       1.383   8.798  20.298  0.00  0.00    +0.000 N 
ATOM     10  C   UNL     1       0.652   8.847  21.571  0.00  0.00    +0.000 C 
ATOM     11  C   UNL     1      -0.689   9.609  21.514  0.00  0.00    +0.000 C 
ATOM     12  N   UNL     1      -0.542  10.875  20.779  0.00  0.00    +0.000 NA
ATOM     13  C   UNL     1      -0.087  10.644  19.372  0.00  0.00    +0.000 C 
ATOM     14  C   UNL     1      -0.868   9.580  18.532  0.00  0.00    +0.000 C 
ATOM     15  C   UNL     1      -2.258  10.014  18.102  0.00  0.00    +0.000 C 
ATOM     16  C   UNL     1      -2.205  11.295  17.283  0.00  0.00    +0.000 C 
ATOM     17  C   UNL     1      -1.405  12.400  17.963  0.00  0.00    +0.000 C 
ATOM     18  C   UNL     1      -0.039  11.931  18.500  0.00  0.00    +0.000 C 
ATOM     19  C   UNL     1       1.378  10.071  19.533  0.00  0.00    +0.000 C 
ATOM     20  H   UNL     1       3.343   8.452  18.726  0.00  0.00    +0.000 HD
ENDROOT
BRANCH   7  21
ATOM     21  C   UNL     1       5.426   4.159  16.047  0.00  0.00    +0.000 C 
ATOM     22  C   UNL     1       5.459   4.475  14.560  0.00  0.00    +0.000 C 
ATOM     23  C   UNL     1       6.589   4.913  15.425  0.00  0.00    +0.000 C 
ENDBRANCH   7  21
BRANCH  12  24
ATOM     24  C   UNL     1      -1.538  11.893  21.110  0.00  0.00    +0.000 C 
BRANCH  24  25
ATOM     25  C   UNL     1      -0.979  13.067  21.909  0.00  0.00    +0.000 A 
ATOM     26  C   UNL     1      -1.542  13.416  23.148  0.00  0.00    +0.000 A 
ATOM     27  C   UNL     1      -1.103  14.549  23.838  0.00  0.00    +0.000 A 
ATOM     28  C   UNL     1      -0.094  15.344  23.302  0.00  0.00    +0.000 A 
ATOM     29  C   UNL     1       0.518  14.974  22.104  0.00  0.00    +0.000 A 
ATOM     30  C   UNL     1       0.087  13.834  21.418  0.00  0.00    +0.000 A 
ENDBRANCH  24  25
ENDBRANCH  12  24
TORSDOF 3
ENDMDL
MODEL 5
REMARK VINA RESULT:      -7.5      0.826      1.278
REMARK  Name = 
REMARK  3 active torsions:
REMARK  status: ('A' for Active; 'I' for Inactive)
REMARK    1  A    between atoms: C_7  and  C_8
REMARK    2  A    between atoms: N_15  and  C_16
REMARK    3  A    between atoms: C_16  and  C_17
REMARK                            x       y       z     vdW  Elec       q    Type
REMARK                         _______ _______ _______ _____ _____    ______ ____
ROOT
ATOM      1  O   UNL     1       2.027   9.379  17.505  0.00  0.00    +0.000 OA
ATOM      2  C   UNL     1       2.310   8.672  18.464  0.00  0.00    +0.000 C 
ATOM      3  N   UNL     1       1.759   8.823  19.715  0.00  0.00    +0.000 N 
ATOM      4  C   UNL     1       0.696   9.672  19.902  0.00  0.00    +0.000 A 
ATOM      5  N   UNL     1      -0.162  10.138  19.024  0.00  0.00    +0.000 NA
ATOM      6  N   UNL     1      -1.123  10.937  19.613  0.00  0.00    +0.000 NA
ATOM      7  C   UNL     1      -0.938  11.051  20.910  0.00  0.00    +0.000 A 
ATOM      8  S   UNL     1       0.408  10.167  21.512  0.00  0.00    +0.000 S 
ATOM      9  N   UNL     1       3.271   7.676  18.358  0.00  0.00    +0.000 N 
ATOM     10  C   UNL     1       4.097   7.633  17.144  0.00  0.00    +0.000 C 
ATOM     11  C   UNL     1       4.215   6.237  16.496  0.00  0.00    +0.000 C 
ATOM     12  N   UNL     1       4.470   5.206  17.514  0.00  0.00    +0.000 NA
ATOM     13  C   UNL     1       3.369   5.149  18.526  0.00  0.00    +0.000 C 
ATOM     14  C   UNL     1       1.902   5.072  17.986  0.00  0.00    +0.000 C 
ATOM     15  C   UNL     1       1.526   3.734  17.374  0.00  0.00    +0.000 C 
ATOM     16  C   UNL     1       1.706   2.602  18.376  0.00  0.00    +0.000 C 
ATOM     17  C   UNL     1       3.081   2.607  19.035  0.00  0.00    +0.000 C 
ATOM     18  C   UNL     1       3.510   3.991  19.555  0.00  0.00    +0.000 C 
ATOM     19  C   UNL     1       3.474   6.533  19.284  0.00  0.00    +0.000 C 
ATOM     20  H   UNL     1       2.319   8.601  20.520  0.00  0.00    +0.000 HD
ENDROOT
BRANCH   7  21
ATOM     21  C   UNL     1      -1.864  11.889  21.794  0.00  0.00    +0.000 C 
ATOM     22  C   UNL     1      -1.964  11.535  23.270  0.00  0.00    +0.000 C 
ATOM     23  C   UNL     1      -1.230  12.765  22.861  0.00  0.00    +0.000 C 
ENDBRANCH   7  21
BRANCH  12  24
ATOM     24  C   UNL     1       5.118   3.996  17.010  0.00  0.00    +0.000 C 
BRANCH  24  25
ATOM     25  C   UNL     1       5.735   4.158  15.624  0.00  0.00    +0.000 A 
ATOM     26  C   UNL     1       5.108   3.600  14.497  0.00  0.00    +0.000 A 
ATOM     27  C   UNL     1       5.717   3.656  13.240  0.00  0.00    +0.000 A 
ATOM     28  C   UNL     1       6.956   4.274  13.094  0.00  0.00    +0.000 A 
ATOM     29  C   UNL     1       7.560   4.887  14.191  0.00  0.00    +0.000 A 
ATOM     30  C   UNL     1       6.947   4.841  15.447  0.00  0.00    +0.000 A 
ENDBRANCH  24  25
ENDBRANCH  12  24
TORSDOF 3
ENDMDL
MODEL 6
REMARK VINA RESULT:      -7.2      1.243      1.599
REMARK  Name = 
REMARK  3 active torsions:
REMARK  status: ('A' for Active; 'I' for Inactive)
REMARK    1  A    between atoms: C_7  and  C_8
REMARK    2  A    between atoms: N_15  and  C_16
REMARK    3  A    between atoms: C_16  and  C_17
REMARK                            x       y       z     vdW  Elec       q    Type
REMARK                         _______ _______ _______ _____ _____    ______ ____
ROOT
ATOM      1  O   UNL     1       1.800   9.618  17.477  0.00  0.00    +0.000 OA
ATOM      2  C   UNL     1       1.963   8.950  18.492  0.00  0.00    +0.000 C 
ATOM      3  N   UNL     1       1.264   9.150  19.659  0.00  0.00    +0.000 N 
ATOM      4  C   UNL     1       0.188  10.003  19.682  0.00  0.00    +0.000 A 
ATOM      5  N   UNL     1      -0.555  10.432  18.688  0.00  0.00    +0.000 NA
ATOM      6  N   UNL     1      -1.578  11.251  19.123  0.00  0.00    +0.000 NA
ATOM      7  C   UNL     1      -1.552  11.418  20.428  0.00  0.00    +0.000 A 
ATOM      8  S   UNL     1      -0.292  10.562  21.223  0.00  0.00    +0.000 S 
ATOM      9  N   UNL     1       2.928   7.954  18.543  0.00  0.00    +0.000 N 
ATOM     10  C   UNL     1       3.895   7.863  17.441  0.00  0.00    +0.000 C 
ATOM     11  C   UNL     1       4.087   6.443  16.869  0.00  0.00    +0.000 C 
ATOM     12  N   UNL     1       4.214   5.454  17.951  0.00  0.00    +0.000 NA
ATOM     13  C   UNL     1       2.998   5.435  18.822  0.00  0.00    +0.000 C 
ATOM     14  C   UNL     1       1.607   5.333  18.112  0.00  0.00    +0.000 C 
ATOM     15  C   UNL     1       1.305   3.971  17.513  0.00  0.00    +0.000 C 
ATOM     16  C   UNL     1       1.359   2.881  18.573  0.00  0.00    +0.000 C 
ATOM     17  C   UNL     1       2.643   2.914  19.394  0.00  0.00    +0.000 C 
ATOM     18  C   UNL     1       3.010   4.320  19.907  0.00  0.00    +0.000 C 
ATOM     19  C   UNL     1       3.013   6.849  19.532  0.00  0.00    +0.000 C 
ATOM     20  H   UNL     1       1.722   8.961  20.534  0.00  0.00    +0.000 HD
ENDROOT
BRANCH   7  21
ATOM     21  C   UNL     1      -2.578  12.288  21.158  0.00  0.00    +0.000 C 
ATOM     22  C   UNL     1      -2.653  13.764  20.798  0.00  0.00    +0.000 C 
ATOM     23  C   UNL     1      -3.739  12.847  20.353  0.00  0.00    +0.000 C 
ENDBRANCH   7  21
BRANCH  12  24
ATOM     24  C   UNL     1       4.915   4.227  17.578  0.00  0.00    +0.000 C 
BRANCH  24  25
ATOM     25  C   UNL     1       5.555   4.277  16.194  0.00  0.00    +0.000 A 
ATOM     26  C   UNL     1       4.877   3.756  15.078  0.00  0.00    +0.000 A 
ATOM     27  C   UNL     1       5.496   3.706  13.826  0.00  0.00    +0.000 A 
ATOM     28  C   UNL     1       6.796   4.180  13.673  0.00  0.00    +0.000 A 
ATOM     29  C   UNL     1       7.457   4.758  14.757  0.00  0.00    +0.000 A 
ATOM     30  C   UNL     1       6.835   4.818  16.008  0.00  0.00    +0.000 A 
ENDBRANCH  24  25
ENDBRANCH  12  24
TORSDOF 3
ENDMDL
MODEL 7
REMARK VINA RESULT:      -7.2      4.900     10.326
REMARK  Name = 
REMARK  3 active torsions:
REMARK  status: ('A' for Active; 'I' for Inactive)
REMARK    1  A    between atoms: C_7  and  C_8
REMARK    2  A    between atoms: N_15  and  C_16
REMARK    3  A    between atoms: C_16  and  C_17
REMARK                            x       y       z     vdW  Elec       q    Type
REMARK                         _______ _______ _______ _____ _____    ______ ____
ROOT
ATOM      1  O   UNL     1       0.347  10.511  17.912  0.00  0.00    +0.000 OA
ATOM      2  C   UNL     1       0.488  10.819  19.090  0.00  0.00    +0.000 C 
ATOM      3  N   UNL     1       0.954   9.957  20.055  0.00  0.00    +0.000 N 
ATOM      4  C   UNL     1       1.481   8.740  19.697  0.00  0.00    +0.000 A 
ATOM      5  N   UNL     1       1.962   8.350  18.539  0.00  0.00    +0.000 NA
ATOM      6  N   UNL     1       2.442   7.055  18.589  0.00  0.00    +0.000 NA
ATOM      7  C   UNL     1       2.286   6.520  19.780  0.00  0.00    +0.000 A 
ATOM      8  S   UNL     1       1.568   7.568  20.937  0.00  0.00    +0.000 S 
ATOM      9  N   UNL     1       0.126  12.078  19.547  0.00  0.00    +0.000 N 
ATOM     10  C   UNL     1      -0.631  12.955  18.644  0.00  0.00    +0.000 C 
ATOM     11  C   UNL     1      -0.088  14.396  18.542  0.00  0.00    +0.000 C 
ATOM     12  N   UNL     1       0.236  14.930  19.874  0.00  0.00    +0.000 NA
ATOM     13  C   UNL     1       1.273  14.098  20.561  0.00  0.00    +0.000 C 
ATOM     14  C   UNL     1       2.567  13.750  19.751  0.00  0.00    +0.000 C 
ATOM     15  C   UNL     1       3.514  14.919  19.548  0.00  0.00    +0.000 C 
ATOM     16  C   UNL     1       3.953  15.509  20.880  0.00  0.00    +0.000 C 
ATOM     17  C   UNL     1       2.781  15.828  21.802  0.00  0.00    +0.000 C 
ATOM     18  C   UNL     1       1.760  14.681  21.919  0.00  0.00    +0.000 C 
ATOM     19  C   UNL     1       0.547  12.717  20.820  0.00  0.00    +0.000 C 
ATOM     20  H   UNL     1       0.611  10.053  20.995  0.00  0.00    +0.000 HD
ENDROOT
BRANCH   7  21
ATOM     21  C   UNL     1       2.731   5.089  20.094  0.00  0.00    +0.000 C 
ATOM     22  C   UNL     1       1.658   4.028  20.279  0.00  0.00    +0.000 C 
ATOM     23  C   UNL     1       2.487   4.021  19.042  0.00  0.00    +0.000 C 
ENDBRANCH   7  21
BRANCH  12  24
ATOM     24  C   UNL     1       0.234  16.389  19.966  0.00  0.00    +0.000 C 
BRANCH  24  25
ATOM     25  C   UNL     1       0.390  17.092  18.620  0.00  0.00    +0.000 A 
ATOM     26  C   UNL     1       1.652  17.184  18.008  0.00  0.00    +0.000 A 
ATOM     27  C   UNL     1       1.821  17.913  16.828  0.00  0.00    +0.000 A 
ATOM     28  C   UNL     1       0.732  18.553  16.243  0.00  0.00    +0.000 A 
ATOM     29  C   UNL     1      -0.537  18.417  16.804  0.00  0.00    +0.000 A 
ATOM     30  C   UNL     1      -0.711  17.680  17.979  0.00  0.00    +0.000 A 
ENDBRANCH  24  25
ENDBRANCH  12  24
TORSDOF 3
ENDMDL
MODEL 8
REMARK VINA RESULT:      -7.1      1.361      1.587
REMARK  Name = 
REMARK  3 active torsions:
REMARK  status: ('A' for Active; 'I' for Inactive)
REMARK    1  A    between atoms: C_7  and  C_8
REMARK    2  A    between atoms: N_15  and  C_16
REMARK    3  A    between atoms: C_16  and  C_17
REMARK                            x       y       z     vdW  Elec       q    Type
REMARK                         _______ _______ _______ _____ _____    ______ ____
ROOT
ATOM      1  O   UNL     1       1.019   9.330  18.045  0.00  0.00    +0.000 OA
ATOM      2  C   UNL     1       1.373   8.876  19.128  0.00  0.00    +0.000 C 
ATOM      3  N   UNL     1       0.888   9.316  20.337  0.00  0.00    +0.000 N 
ATOM      4  C   UNL     1      -0.186  10.170  20.379  0.00  0.00    +0.000 A 
ATOM      5  N   UNL     1      -1.103  10.401  19.468  0.00  0.00    +0.000 NA
ATOM      6  N   UNL     1      -2.052  11.304  19.906  0.00  0.00    +0.000 NA
ATOM      7  C   UNL     1      -1.799  11.729  21.125  0.00  0.00    +0.000 A 
ATOM      8  S   UNL     1      -0.399  11.033  21.839  0.00  0.00    +0.000 S 
ATOM      9  N   UNL     1       2.354   7.898  19.204  0.00  0.00    +0.000 N 
ATOM     10  C   UNL     1       3.113   7.575  17.989  0.00  0.00    +0.000 C 
ATOM     11  C   UNL     1       3.234   6.067  17.687  0.00  0.00    +0.000 C 
ATOM     12  N   UNL     1       3.573   5.314  18.904  0.00  0.00    +0.000 NA
ATOM     13  C   UNL     1       2.530   5.486  19.964  0.00  0.00    +0.000 C 
ATOM     14  C   UNL     1       1.039   5.262  19.547  0.00  0.00    +0.000 C 
ATOM     15  C   UNL     1       0.667   3.811  19.296  0.00  0.00    +0.000 C 
ATOM     16  C   UNL     1       0.932   2.955  20.525  0.00  0.00    +0.000 C 
ATOM     17  C   UNL     1       2.340   3.136  21.081  0.00  0.00    +0.000 C 
ATOM     18  C   UNL     1       2.759   4.611  21.229  0.00  0.00    +0.000 C 
ATOM     19  C   UNL     1       2.639   7.013  20.363  0.00  0.00    +0.000 C 
ATOM     20  H   UNL     1       1.497   9.300  21.136  0.00  0.00    +0.000 HD
ENDROOT
BRANCH   7  21
ATOM     21  C   UNL     1      -2.699  12.742  21.837  0.00  0.00    +0.000 C 
ATOM     22  C   UNL     1      -3.204  12.399  23.230  0.00  0.00    +0.000 C 
ATOM     23  C   UNL     1      -2.149  13.439  23.069  0.00  0.00    +0.000 C 
ENDBRANCH   7  21
BRANCH  12  24
ATOM     24  C   UNL     1       4.224   4.027  18.666  0.00  0.00    +0.000 C 
BRANCH  24  25
ATOM     25  C   UNL     1       5.284   4.065  17.568  0.00  0.00    +0.000 A 
ATOM     26  C   UNL     1       6.575   4.547  17.842  0.00  0.00    +0.000 A 
ATOM     27  C   UNL     1       7.519   4.681  16.820  0.00  0.00    +0.000 A 
ATOM     28  C   UNL     1       7.187   4.329  15.515  0.00  0.00    +0.000 A 
ATOM     29  C   UNL     1       5.931   3.789  15.240  0.00  0.00    +0.000 A 
ATOM     30  C   UNL     1       4.988   3.645  16.263  0.00  0.00    +0.000 A 
ENDBRANCH  24  25
ENDBRANCH  12  24
TORSDOF 3
ENDMDL
MODEL 9
REMARK VINA RESULT:      -7.1      6.329      9.513
REMARK  Name = 
REMARK  3 active torsions:
REMARK  status: ('A' for Active; 'I' for Inactive)
REMARK    1  A    between atoms: C_7  and  C_8
REMARK    2  A    between atoms: N_15  and  C_16
REMARK    3  A    between atoms: C_16  and  C_17
REMARK                            x       y       z     vdW  Elec       q    Type
REMARK                         _______ _______ _______ _____ _____    ______ ____
ROOT
ATOM      1  O   UNL     1       2.496  15.802  18.940  0.00  0.00    +0.000 OA
ATOM      2  C   UNL     1       2.720  14.669  18.528  0.00  0.00    +0.000 C 
ATOM      3  N   UNL     1       3.978  14.196  18.239  0.00  0.00    +0.000 N 
ATOM      4  C   UNL     1       5.087  14.924  18.591  0.00  0.00    +0.000 A 
ATOM      5  N   UNL     1       5.210  15.871  19.493  0.00  0.00    +0.000 NA
ATOM      6  N   UNL     1       6.508  16.335  19.583  0.00  0.00    +0.000 NA
ATOM      7  C   UNL     1       7.306  15.728  18.731  0.00  0.00    +0.000 A 
ATOM      8  S   UNL     1       6.535  14.524  17.777  0.00  0.00    +0.000 S 
ATOM      9  N   UNL     1       1.681  13.785  18.272  0.00  0.00    +0.000 N 
ATOM     10  C   UNL     1       0.306  14.301  18.292  0.00  0.00    +0.000 C 
ATOM     11  C   UNL     1      -0.687  13.453  19.113  0.00  0.00    +0.000 C 
ATOM     12  N   UNL     1      -0.517  12.021  18.826  0.00  0.00    +0.000 NA
ATOM     13  C   UNL     1       0.866  11.555  19.159  0.00  0.00    +0.000 C 
ATOM     14  C   UNL     1       1.428  11.929  20.571  0.00  0.00    +0.000 C 
ATOM     15  C   UNL     1       0.800  11.162  21.721  0.00  0.00    +0.000 C 
ATOM     16  C   UNL     1       0.974   9.661  21.542  0.00  0.00    +0.000 C 
ATOM     17  C   UNL     1       0.527   9.173  20.168  0.00  0.00    +0.000 C 
ATOM     18  C   UNL     1       1.075  10.022  19.005  0.00  0.00    +0.000 C 
ATOM     19  C   UNL     1       1.786  12.311  18.118  0.00  0.00    +0.000 C 
ATOM     20  H   UNL     1       4.082  13.525  17.497  0.00  0.00    +0.000 HD
ENDROOT
BRANCH   7  21
ATOM     21  C   UNL     1       8.795  16.067  18.628  0.00  0.00    +0.000 C 
ATOM     22  C   UNL     1       9.778  15.237  19.439  0.00  0.00    +0.000 C 
ATOM     23  C   UNL     1       9.710  15.054  17.962  0.00  0.00    +0.000 C 
ENDBRANCH   7  21
BRANCH  12  24
ATOM     24  C   UNL     1      -1.694  11.198  19.099  0.00  0.00    +0.000 C 
BRANCH  24  25
ATOM     25  C   UNL     1      -2.525  10.878  17.859  0.00  0.00    +0.000 A 
ATOM     26  C   UNL     1      -2.026  10.009  16.874  0.00  0.00    +0.000 A 
ATOM     27  C   UNL     1      -2.735   9.791  15.690  0.00  0.00    +0.000 A 
ATOM     28  C   UNL     1      -3.952  10.433  15.478  0.00  0.00    +0.000 A 
ATOM     29  C   UNL     1      -4.489  11.248  16.474  0.00  0.00    +0.000 A 
ATOM     30  C   UNL     1      -3.786  11.459  17.664  0.00  0.00    +0.000 A 
ENDBRANCH  24  25
ENDBRANCH  12  24
TORSDOF 3
ENDMDL
