MODEL 1
REMARK VINA RESULT:      -8.8      0.000      0.000
REMARK  Name = 
REMARK  8 active torsions:
REMARK  status: ('A' for Active; 'I' for Inactive)
REMARK    1  A    between atoms: C_1  and  C_2
REMARK    2  A    between atoms: C_2  and  C_3
REMARK    3  A    between atoms: C_2  and  C_4
REMARK    4  A    between atoms: C_7  and  C_8
REMARK    5  A    between atoms: C_11  and  S_12
REMARK    6  A    between atoms: S_12  and  C_15
REMARK    7  A    between atoms: C_15  and  C_16
REMARK    8  A    between atoms: C_21  and  C_22
REMARK                            x       y       z     vdW  Elec       q    Type
REMARK                         _______ _______ _______ _____ _____    ______ ____
ROOT
ATOM      1  S   UNL     1       5.557   5.031  19.290  0.00  0.00    +0.000 S 
ATOM      2  O   UNL     1       6.704   5.049  20.182  0.00  0.00    +0.000 OA
ATOM      3  O   UNL     1       4.483   5.999  19.410  0.00  0.00    +0.000 OA
ENDROOT
BRANCH   1   7
ATOM      4  C   UNL     1       6.674   5.036  15.562  0.00  0.00    +0.000 A 
ATOM      5  N   UNL     1       7.350   6.084  16.007  0.00  0.00    +0.000 NA
ATOM      6  N   UNL     1       7.056   6.229  17.343  0.00  0.00    +0.000 NA
ATOM      7  C   UNL     1       6.210   5.262  17.655  0.00  0.00    +0.000 A 
ATOM      8  O   UNL     1       5.919   4.468  16.566  0.00  0.00    +0.000 OA
BRANCH   4  12
ATOM      9  C   UNL     1       6.199   3.385  12.381  0.00  0.00    +0.000 A 
ATOM     10  C   UNL     1       7.199   4.180  11.855  0.00  0.00    +0.000 A 
ATOM     11  S   UNL     1       7.818   5.226  13.058  0.00  0.00    +0.000 S 
ATOM     12  C   UNL     1       6.711   4.565  14.200  0.00  0.00    +0.000 A 
ATOM     13  N   UNL     1       5.916   3.625  13.723  0.00  0.00    +0.000 NA
BRANCH   9  15
ATOM     14  C   UNL     1       4.298   2.959  10.787  0.00  0.00    +0.000 C 
ATOM     15  C   UNL     1       5.418   2.341  11.625  0.00  0.00    +0.000 C 
ATOM     16  C   UNL     1       6.337   1.484  10.754  0.00  0.00    +0.000 C 
ENDBRANCH   9  15
ENDBRANCH   4  12
ENDBRANCH   1   7
BRANCH   1  17
ATOM     17  C   UNL     1       4.872   3.379  19.214  0.00  0.00    +0.000 C 
BRANCH  17  18
ATOM     18  C   UNL     1       3.465   3.396  19.789  0.00  0.00    +0.000 A 
ATOM     19  C   UNL     1       3.326   3.060  21.154  0.00  0.00    +0.000 A 
ATOM     20  C   UNL     1       2.076   3.008  21.769  0.00  0.00    +0.000 A 
ATOM     21  C   UNL     1       0.931   3.291  21.038  0.00  0.00    +0.000 A 
ATOM     22  C   UNL     1       1.042   3.632  19.693  0.00  0.00    +0.000 A 
ATOM     23  C   UNL     1       2.297   3.695  19.043  0.00  0.00    +0.000 A 
BRANCH  23  24
ATOM     24  C   UNL     1       2.265   4.094  17.579  0.00  0.00    +0.000 C 
ATOM     25  F   UNL     1       2.992   5.200  17.271  0.00  0.00    +0.000 F 
ATOM     26  F   UNL     1       2.711   3.105  16.757  0.00  0.00    +0.000 F 
ATOM     27  F   UNL     1       0.996   4.374  17.163  0.00  0.00    +0.000 F 
ENDBRANCH  23  24
ENDBRANCH  17  18
ENDBRANCH   1  17
TORSDOF 6
ENDMDL
MODEL 2
REMARK VINA RESULT:      -8.6      0.559      1.089
REMARK  Name = 
REMARK  8 active torsions:
REMARK  status: ('A' for Active; 'I' for Inactive)
REMARK    1  A    between atoms: C_1  and  C_2
REMARK    2  A    between atoms: C_2  and  C_3
REMARK    3  A    between atoms: C_2  and  C_4
REMARK    4  A    between atoms: C_7  and  C_8
REMARK    5  A    between atoms: C_11  and  S_12
REMARK    6  A    between atoms: S_12  and  C_15
REMARK    7  A    between atoms: C_15  and  C_16
REMARK    8  A    between atoms: C_21  and  C_22
REMARK                            x       y       z     vdW  Elec       q    Type
REMARK                         _______ _______ _______ _____ _____    ______ ____
ROOT
ATOM      1  S   UNL     1       5.429   4.899  19.207  0.00  0.00    +0.000 S 
ATOM      2  O   UNL     1       6.744   4.864  19.824  0.00  0.00    +0.000 OA
ATOM      3  O   UNL     1       4.398   5.813  19.663  0.00  0.00    +0.000 OA
ENDROOT
BRANCH   1   7
ATOM      4  C   UNL     1       6.136   5.229  15.394  0.00  0.00    +0.000 A 
ATOM      5  N   UNL     1       5.934   6.500  15.702  0.00  0.00    +0.000 NA
ATOM      6  N   UNL     1       5.659   6.561  17.049  0.00  0.00    +0.000 NA
ATOM      7  C   UNL     1       5.704   5.321  17.504  0.00  0.00    +0.000 A 
ATOM      8  O   UNL     1       5.996   4.420  16.502  0.00  0.00    +0.000 OA
BRANCH   4  12
ATOM      9  C   UNL     1       6.239   3.649  12.144  0.00  0.00    +0.000 A 
ATOM     10  C   UNL     1       7.434   4.300  11.901  0.00  0.00    +0.000 A 
ATOM     11  S   UNL     1       7.873   5.255  13.250  0.00  0.00    +0.000 S 
ATOM     12  C   UNL     1       6.442   4.753  14.068  0.00  0.00    +0.000 A 
ATOM     13  N   UNL     1       5.670   3.929  13.384  0.00  0.00    +0.000 NA
BRANCH   9  15
ATOM     14  C   UNL     1       5.909   1.257  11.435  0.00  0.00    +0.000 C 
ATOM     15  C   UNL     1       5.536   2.720  11.189  0.00  0.00    +0.000 C 
ATOM     16  C   UNL     1       4.020   2.908  11.246  0.00  0.00    +0.000 C 
ENDBRANCH   9  15
ENDBRANCH   4  12
ENDBRANCH   1   7
BRANCH   1  17
ATOM     17  C   UNL     1       4.762   3.242  19.103  0.00  0.00    +0.000 C 
BRANCH  17  18
ATOM     18  C   UNL     1       3.380   3.220  19.737  0.00  0.00    +0.000 A 
ATOM     19  C   UNL     1       3.293   2.759  21.069  0.00  0.00    +0.000 A 
ATOM     20  C   UNL     1       2.069   2.664  21.730  0.00  0.00    +0.000 A 
ATOM     21  C   UNL     1       0.900   3.027  21.079  0.00  0.00    +0.000 A 
ATOM     22  C   UNL     1       0.959   3.491  19.767  0.00  0.00    +0.000 A 
ATOM     23  C   UNL     1       2.187   3.601  19.073  0.00  0.00    +0.000 A 
BRANCH  23  24
ATOM     24  C   UNL     1       2.099   4.136  17.655  0.00  0.00    +0.000 C 
ATOM     25  F   UNL     1       2.856   3.469  16.744  0.00  0.00    +0.000 F 
ATOM     26  F   UNL     1       0.827   4.128  17.170  0.00  0.00    +0.000 F 
ATOM     27  F   UNL     1       2.512   5.434  17.582  0.00  0.00    +0.000 F 
ENDBRANCH  23  24
ENDBRANCH  17  18
ENDBRANCH   1  17
TORSDOF 6
ENDMDL
MODEL 3
REMARK VINA RESULT:      -8.5      0.845      1.180
REMARK  Name = 
REMARK  8 active torsions:
REMARK  status: ('A' for Active; 'I' for Inactive)
REMARK    1  A    between atoms: C_1  and  C_2
REMARK    2  A    between atoms: C_2  and  C_3
REMARK    3  A    between atoms: C_2  and  C_4
REMARK    4  A    between atoms: C_7  and  C_8
REMARK    5  A    between atoms: C_11  and  S_12
REMARK    6  A    between atoms: S_12  and  C_15
REMARK    7  A    between atoms: C_15  and  C_16
REMARK    8  A    between atoms: C_21  and  C_22
REMARK                            x       y       z     vdW  Elec       q    Type
REMARK                         _______ _______ _______ _____ _____    ______ ____
ROOT
ATOM      1  S   UNL     1       5.684   4.608  19.216  0.00  0.00    +0.000 S 
ATOM      2  O   UNL     1       5.431   3.178  19.173  0.00  0.00    +0.000 OA
ATOM      3  O   UNL     1       6.622   5.187  20.160  0.00  0.00    +0.000 OA
ENDROOT
BRANCH   1   7
ATOM      4  C   UNL     1       6.794   5.037  15.510  0.00  0.00    +0.000 A 
ATOM      5  N   UNL     1       7.387   6.088  16.051  0.00  0.00    +0.000 NA
ATOM      6  N   UNL     1       7.085   6.089  17.394  0.00  0.00    +0.000 NA
ATOM      7  C   UNL     1       6.316   5.036  17.612  0.00  0.00    +0.000 A 
ATOM      8  O   UNL     1       6.085   4.324  16.454  0.00  0.00    +0.000 OA
BRANCH   4  12
ATOM      9  C   UNL     1       6.369   3.725  12.168  0.00  0.00    +0.000 A 
ATOM     10  C   UNL     1       7.434   4.506  11.761  0.00  0.00    +0.000 A 
ATOM     11  S   UNL     1       8.057   5.394  13.083  0.00  0.00    +0.000 S 
ATOM     12  C   UNL     1       6.865   4.695  14.112  0.00  0.00    +0.000 A 
ATOM     13  N   UNL     1       6.040   3.854  13.515  0.00  0.00    +0.000 NA
BRANCH   9  15
ATOM     14  C   UNL     1       5.910   1.336  11.524  0.00  0.00    +0.000 C 
ATOM     15  C   UNL     1       5.566   2.807  11.284  0.00  0.00    +0.000 C 
ATOM     16  C   UNL     1       4.065   3.046  11.454  0.00  0.00    +0.000 C 
ENDBRANCH   9  15
ENDBRANCH   4  12
ENDBRANCH   1   7
BRANCH   1  17
ATOM     17  C   UNL     1       4.134   5.499  19.282  0.00  0.00    +0.000 C 
BRANCH  17  18
ATOM     18  C   UNL     1       3.045   4.567  19.789  0.00  0.00    +0.000 A 
ATOM     19  C   UNL     1       2.955   4.386  21.187  0.00  0.00    +0.000 A 
ATOM     20  C   UNL     1       2.016   3.523  21.753  0.00  0.00    +0.000 A 
ATOM     21  C   UNL     1       1.143   2.818  20.937  0.00  0.00    +0.000 A 
ATOM     22  C   UNL     1       1.207   2.984  19.556  0.00  0.00    +0.000 A 
ATOM     23  C   UNL     1       2.147   3.854  18.955  0.00  0.00    +0.000 A 
BRANCH  23  24
ATOM     24  C   UNL     1       2.090   3.944  17.441  0.00  0.00    +0.000 C 
ATOM     25  F   UNL     1       3.055   4.719  16.877  0.00  0.00    +0.000 F 
ATOM     26  F   UNL     1       2.182   2.727  16.840  0.00  0.00    +0.000 F 
ATOM     27  F   UNL     1       0.909   4.477  17.013  0.00  0.00    +0.000 F 
ENDBRANCH  23  24
ENDBRANCH  17  18
ENDBRANCH   1  17
TORSDOF 6
ENDMDL
MODEL 4
REMARK VINA RESULT:      -8.4      0.888      1.182
REMARK  Name = 
REMARK  8 active torsions:
REMARK  status: ('A' for Active; 'I' for Inactive)
REMARK    1  A    between atoms: C_1  and  C_2
REMARK    2  A    between atoms: C_2  and  C_3
REMARK    3  A    between atoms: C_2  and  C_4
REMARK    4  A    between atoms: C_7  and  C_8
REMARK    5  A    between atoms: C_11  and  S_12
REMARK    6  A    between atoms: S_12  and  C_15
REMARK    7  A    between atoms: C_15  and  C_16
REMARK    8  A    between atoms: C_21  and  C_22
REMARK                            x       y       z     vdW  Elec       q    Type
REMARK                         _______ _______ _______ _____ _____    ______ ____
ROOT
ATOM      1  S   UNL     1       5.549   4.755  19.394  0.00  0.00    +0.000 S 
ATOM      2  O   UNL     1       5.297   3.325  19.439  0.00  0.00    +0.000 OA
ATOM      3  O   UNL     1       6.658   5.356  20.113  0.00  0.00    +0.000 OA
ENDROOT
BRANCH   1   7
ATOM      4  C   UNL     1       6.186   5.002  15.562  0.00  0.00    +0.000 A 
ATOM      5  N   UNL     1       6.203   6.286  15.883  0.00  0.00    +0.000 NA
ATOM      6  N   UNL     1       5.982   6.378  17.238  0.00  0.00    +0.000 NA
ATOM      7  C   UNL     1       5.838   5.143  17.686  0.00  0.00    +0.000 A 
ATOM      8  O   UNL     1       5.949   4.217  16.671  0.00  0.00    +0.000 OA
BRANCH   4  12
ATOM      9  C   UNL     1       6.046   3.284  12.385  0.00  0.00    +0.000 A 
ATOM     10  C   UNL     1       7.122   4.041  11.964  0.00  0.00    +0.000 A 
ATOM     11  S   UNL     1       7.623   5.101  13.209  0.00  0.00    +0.000 S 
ATOM     12  C   UNL     1       6.371   4.496  14.226  0.00  0.00    +0.000 A 
ATOM     13  N   UNL     1       5.612   3.564  13.679  0.00  0.00    +0.000 NA
BRANCH   9  15
ATOM     14  C   UNL     1       4.272   2.857  10.651  0.00  0.00    +0.000 C 
ATOM     15  C   UNL     1       5.332   2.241  11.565  0.00  0.00    +0.000 C 
ATOM     16  C   UNL     1       6.320   1.399  10.757  0.00  0.00    +0.000 C 
ENDBRANCH   9  15
ENDBRANCH   4  12
ENDBRANCH   1   7
BRANCH   1  17
ATOM     17  C   UNL     1       4.042   5.650  19.755  0.00  0.00    +0.000 C 
BRANCH  17  18
ATOM     18  C   UNL     1       2.930   4.656  20.047  0.00  0.00    +0.000 A 
ATOM     19  C   UNL     1       2.794   4.219  21.384  0.00  0.00    +0.000 A 
ATOM     20  C   UNL     1       1.831   3.280  21.751  0.00  0.00    +0.000 A 
ATOM     21  C   UNL     1       0.978   2.751  20.793  0.00  0.00    +0.000 A 
ATOM     22  C   UNL     1       1.087   3.170  19.469  0.00  0.00    +0.000 A 
ATOM     23  C   UNL     1       2.052   4.124  19.069  0.00  0.00    +0.000 A 
BRANCH  23  24
ATOM     24  C   UNL     1       2.044   4.495  17.597  0.00  0.00    +0.000 C 
ATOM     25  F   UNL     1       2.846   3.730  16.809  0.00  0.00    +0.000 F 
ATOM     26  F   UNL     1       0.801   4.431  17.048  0.00  0.00    +0.000 F 
ATOM     27  F   UNL     1       2.468   5.776  17.400  0.00  0.00    +0.000 F 
ENDBRANCH  23  24
ENDBRANCH  17  18
ENDBRANCH   1  17
TORSDOF 6
ENDMDL
MODEL 5
REMARK VINA RESULT:      -8.1      1.945      2.623
REMARK  Name = 
REMARK  8 active torsions:
REMARK  status: ('A' for Active; 'I' for Inactive)
REMARK    1  A    between atoms: C_1  and  C_2
REMARK    2  A    between atoms: C_2  and  C_3
REMARK    3  A    between atoms: C_2  and  C_4
REMARK    4  A    between atoms: C_7  and  C_8
REMARK    5  A    between atoms: C_11  and  S_12
REMARK    6  A    between atoms: S_12  and  C_15
REMARK    7  A    between atoms: C_15  and  C_16
REMARK    8  A    between atoms: C_21  and  C_22
REMARK                            x       y       z     vdW  Elec       q    Type
REMARK                         _______ _______ _______ _____ _____    ______ ____
ROOT
ATOM      1  S   UNL     1       5.449   4.494  19.282  0.00  0.00    +0.000 S 
ATOM      2  O   UNL     1       5.206   3.064  19.206  0.00  0.00    +0.000 OA
ATOM      3  O   UNL     1       6.538   5.042  20.069  0.00  0.00    +0.000 OA
ENDROOT
BRANCH   1   7
ATOM      4  C   UNL     1       6.202   5.051  15.504  0.00  0.00    +0.000 A 
ATOM      5  N   UNL     1       6.119   6.308  15.911  0.00  0.00    +0.000 NA
ATOM      6  N   UNL     1       5.845   6.290  17.259  0.00  0.00    +0.000 NA
ATOM      7  C   UNL     1       5.770   5.020  17.616  0.00  0.00    +0.000 A 
ATOM      8  O   UNL     1       5.981   4.176  16.546  0.00  0.00    +0.000 OA
BRANCH   4  12
ATOM      9  C   UNL     1       6.221   3.642  12.175  0.00  0.00    +0.000 A 
ATOM     10  C   UNL     1       7.384   4.344  11.919  0.00  0.00    +0.000 A 
ATOM     11  S   UNL     1       7.848   5.243  13.298  0.00  0.00    +0.000 S 
ATOM     12  C   UNL     1       6.468   4.654  14.145  0.00  0.00    +0.000 A 
ATOM     13  N   UNL     1       5.695   3.841  13.449  0.00  0.00    +0.000 NA
BRANCH   9  15
ATOM     14  C   UNL     1       5.868   1.268  11.416  0.00  0.00    +0.000 C 
ATOM     15  C   UNL     1       5.508   2.740  11.202  0.00  0.00    +0.000 C 
ATOM     16  C   UNL     1       3.994   2.941  11.264  0.00  0.00    +0.000 C 
ENDBRANCH   9  15
ENDBRANCH   4  12
ENDBRANCH   1   7
BRANCH   1  17
ATOM     17  C   UNL     1       3.928   5.349  19.681  0.00  0.00    +0.000 C 
BRANCH  17  18
ATOM     18  C   UNL     1       2.749   4.512  19.214  0.00  0.00    +0.000 A 
ATOM     19  C   UNL     1       2.342   4.669  17.870  0.00  0.00    +0.000 A 
ATOM     20  C   UNL     1       1.249   3.977  17.352  0.00  0.00    +0.000 A 
ATOM     21  C   UNL     1       0.532   3.108  18.161  0.00  0.00    +0.000 A 
ATOM     22  C   UNL     1       0.916   2.930  19.488  0.00  0.00    +0.000 A 
ATOM     23  C   UNL     1       2.023   3.616  20.039  0.00  0.00    +0.000 A 
BRANCH  23  24
ATOM     24  C   UNL     1       2.332   3.311  21.494  0.00  0.00    +0.000 C 
ATOM     25  F   UNL     1       3.407   2.503  21.693  0.00  0.00    +0.000 F 
ATOM     26  F   UNL     1       2.561   4.435  22.227  0.00  0.00    +0.000 F 
ATOM     27  F   UNL     1       1.291   2.678  22.107  0.00  0.00    +0.000 F 
ENDBRANCH  23  24
ENDBRANCH  17  18
ENDBRANCH   1  17
TORSDOF 6
ENDMDL
MODEL 6
REMARK VINA RESULT:      -8.0      5.056      8.144
REMARK  Name = 
REMARK  8 active torsions:
REMARK  status: ('A' for Active; 'I' for Inactive)
REMARK    1  A    between atoms: C_1  and  C_2
REMARK    2  A    between atoms: C_2  and  C_3
REMARK    3  A    between atoms: C_2  and  C_4
REMARK    4  A    between atoms: C_7  and  C_8
REMARK    5  A    between atoms: C_11  and  S_12
REMARK    6  A    between atoms: S_12  and  C_15
REMARK    7  A    between atoms: C_15  and  C_16
REMARK    8  A    between atoms: C_21  and  C_22
REMARK                            x       y       z     vdW  Elec       q    Type
REMARK                         _______ _______ _______ _____ _____    ______ ____
ROOT
ATOM      1  S   UNL     1       3.437   6.072  18.108  0.00  0.00    +0.000 S 
ATOM      2  O   UNL     1       4.218   6.058  16.882  0.00  0.00    +0.000 OA
ATOM      3  O   UNL     1       4.057   5.894  19.408  0.00  0.00    +0.000 OA
ENDROOT
BRANCH   1   7
ATOM      4  C   UNL     1       1.547   9.403  18.801  0.00  0.00    +0.000 A 
ATOM      5  N   UNL     1       2.011   9.649  17.586  0.00  0.00    +0.000 NA
ATOM      6  N   UNL     1       2.726   8.544  17.184  0.00  0.00    +0.000 NA
ATOM      7  C   UNL     1       2.669   7.671  18.174  0.00  0.00    +0.000 A 
ATOM      8  O   UNL     1       1.939   8.155  19.239  0.00  0.00    +0.000 OA
BRANCH   4  12
ATOM      9  C   UNL     1      -0.315  11.225  21.306  0.00  0.00    +0.000 A 
ATOM     10  C   UNL     1      -0.600  12.183  20.352  0.00  0.00    +0.000 A 
ATOM     11  S   UNL     1       0.104  11.754  18.854  0.00  0.00    +0.000 S 
ATOM     12  C   UNL     1       0.753  10.328  19.569  0.00  0.00    +0.000 A 
ATOM     13  N   UNL     1       0.475  10.173  20.851  0.00  0.00    +0.000 NA
BRANCH   9  15
ATOM     14  C   UNL     1      -2.168  11.850  22.892  0.00  0.00    +0.000 C 
ATOM     15  C   UNL     1      -0.765  11.257  22.743  0.00  0.00    +0.000 C 
ATOM     16  C   UNL     1      -0.695   9.868  23.378  0.00  0.00    +0.000 C 
ENDBRANCH   9  15
ENDBRANCH   4  12
ENDBRANCH   1   7
BRANCH   1  17
ATOM     17  C   UNL     1       2.039   4.966  17.951  0.00  0.00    +0.000 C 
BRANCH  17  18
ATOM     18  C   UNL     1       2.022   4.013  19.135  0.00  0.00    +0.000 A 
ATOM     19  C   UNL     1       1.366   4.455  20.305  0.00  0.00    +0.000 A 
ATOM     20  C   UNL     1       1.325   3.674  21.459  0.00  0.00    +0.000 A 
ATOM     21  C   UNL     1       1.940   2.431  21.476  0.00  0.00    +0.000 A 
ATOM     22  C   UNL     1       2.588   1.968  20.334  0.00  0.00    +0.000 A 
ATOM     23  C   UNL     1       2.641   2.738  19.148  0.00  0.00    +0.000 A 
BRANCH  23  24
ATOM     24  C   UNL     1       3.369   2.100  17.978  0.00  0.00    +0.000 C 
ATOM     25  F   UNL     1       4.381   2.844  17.459  0.00  0.00    +0.000 F 
ATOM     26  F   UNL     1       3.911   0.892  18.295  0.00  0.00    +0.000 F 
ATOM     27  F   UNL     1       2.527   1.863  16.932  0.00  0.00    +0.000 F 
ENDBRANCH  23  24
ENDBRANCH  17  18
ENDBRANCH   1  17
TORSDOF 6
ENDMDL
MODEL 7
REMARK VINA RESULT:      -8.0      1.913      2.532
REMARK  Name = 
REMARK  8 active torsions:
REMARK  status: ('A' for Active; 'I' for Inactive)
REMARK    1  A    between atoms: C_1  and  C_2
REMARK    2  A    between atoms: C_2  and  C_3
REMARK    3  A    between atoms: C_2  and  C_4
REMARK    4  A    between atoms: C_7  and  C_8
REMARK    5  A    between atoms: C_11  and  S_12
REMARK    6  A    between atoms: S_12  and  C_15
REMARK    7  A    between atoms: C_15  and  C_16
REMARK    8  A    between atoms: C_21  and  C_22
REMARK                            x       y       z     vdW  Elec       q    Type
REMARK                         _______ _______ _______ _____ _____    ______ ____
ROOT
ATOM      1  S   UNL     1       5.414   4.961  19.187  0.00  0.00    +0.000 S 
ATOM      2  O   UNL     1       6.394   5.307  20.202  0.00  0.00    +0.000 OA
ATOM      3  O   UNL     1       4.354   5.878  18.809  0.00  0.00    +0.000 OA
ENDROOT
BRANCH   1   7
ATOM      4  C   UNL     1       6.904   4.409  15.634  0.00  0.00    +0.000 A 
ATOM      5  N   UNL     1       7.992   4.241  16.369  0.00  0.00    +0.000 NA
ATOM      6  N   UNL     1       7.632   4.412  17.686  0.00  0.00    +0.000 NA
ATOM      7  C   UNL     1       6.337   4.680  17.696  0.00  0.00    +0.000 A 
ATOM      8  O   UNL     1       5.811   4.700  16.422  0.00  0.00    +0.000 OA
BRANCH   4  12
ATOM      9  C   UNL     1       6.287   3.646  12.154  0.00  0.00    +0.000 A 
ATOM     10  C   UNL     1       7.237   4.590  11.812  0.00  0.00    +0.000 A 
ATOM     11  S   UNL     1       7.899   5.300  13.219  0.00  0.00    +0.000 S 
ATOM     12  C   UNL     1       6.874   4.319  14.196  0.00  0.00    +0.000 A 
ATOM     13  N   UNL     1       6.075   3.510  13.524  0.00  0.00    +0.000 NA
BRANCH   9  15
ATOM     14  C   UNL     1       5.799   1.321  11.323  0.00  0.00    +0.000 C 
ATOM     15  C   UNL     1       5.489   2.813  11.186  0.00  0.00    +0.000 C 
ATOM     16  C   UNL     1       3.990   3.070  11.337  0.00  0.00    +0.000 C 
ENDBRANCH   9  15
ENDBRANCH   4  12
ENDBRANCH   1   7
BRANCH   1  17
ATOM     17  C   UNL     1       4.720   3.349  19.534  0.00  0.00    +0.000 C 
BRANCH  17  18
ATOM     18  C   UNL     1       3.253   3.342  19.139  0.00  0.00    +0.000 A 
ATOM     19  C   UNL     1       2.957   3.509  17.767  0.00  0.00    +0.000 A 
ATOM     20  C   UNL     1       1.643   3.556  17.304  0.00  0.00    +0.000 A 
ATOM     21  C   UNL     1       0.588   3.436  18.198  0.00  0.00    +0.000 A 
ATOM     22  C   UNL     1       0.853   3.263  19.554  0.00  0.00    +0.000 A 
ATOM     23  C   UNL     1       2.176   3.209  20.051  0.00  0.00    +0.000 A 
BRANCH  23  24
ATOM     24  C   UNL     1       2.311   3.002  21.549  0.00  0.00    +0.000 C 
ATOM     25  F   UNL     1       3.274   2.117  21.920  0.00  0.00    +0.000 F 
ATOM     26  F   UNL     1       2.581   4.158  22.215  0.00  0.00    +0.000 F 
ATOM     27  F   UNL     1       1.157   2.523  22.096  0.00  0.00    +0.000 F 
ENDBRANCH  23  24
ENDBRANCH  17  18
ENDBRANCH   1  17
TORSDOF 6
ENDMDL
MODEL 8
REMARK VINA RESULT:      -8.0      2.402      3.096
REMARK  Name = 
REMARK  8 active torsions:
REMARK  status: ('A' for Active; 'I' for Inactive)
REMARK    1  A    between atoms: C_1  and  C_2
REMARK    2  A    between atoms: C_2  and  C_3
REMARK    3  A    between atoms: C_2  and  C_4
REMARK    4  A    between atoms: C_7  and  C_8
REMARK    5  A    between atoms: C_11  and  S_12
REMARK    6  A    between atoms: S_12  and  C_15
REMARK    7  A    between atoms: C_15  and  C_16
REMARK    8  A    between atoms: C_21  and  C_22
REMARK                            x       y       z     vdW  Elec       q    Type
REMARK                         _______ _______ _______ _____ _____    ______ ____
ROOT
ATOM      1  S   UNL     1       5.061   4.243  19.150  0.00  0.00    +0.000 S 
ATOM      2  O   UNL     1       5.248   2.903  19.682  0.00  0.00    +0.000 OA
ATOM      3  O   UNL     1       5.404   5.423  19.921  0.00  0.00    +0.000 OA
ENDROOT
BRANCH   1   7
ATOM      4  C   UNL     1       6.765   4.313  15.651  0.00  0.00    +0.000 A 
ATOM      5  N   UNL     1       7.818   4.524  16.425  0.00  0.00    +0.000 NA
ATOM      6  N   UNL     1       7.378   4.533  17.728  0.00  0.00    +0.000 NA
ATOM      7  C   UNL     1       6.073   4.330  17.693  0.00  0.00    +0.000 A 
ATOM      8  O   UNL     1       5.614   4.188  16.400  0.00  0.00    +0.000 OA
BRANCH   4  12
ATOM      9  C   UNL     1       6.341   3.607  12.131  0.00  0.00    +0.000 A 
ATOM     10  C   UNL     1       7.313   4.550  11.857  0.00  0.00    +0.000 A 
ATOM     11  S   UNL     1       7.899   5.236  13.310  0.00  0.00    +0.000 S 
ATOM     12  C   UNL     1       6.816   4.245  14.212  0.00  0.00    +0.000 A 
ATOM     13  N   UNL     1       6.052   3.451  13.484  0.00  0.00    +0.000 NA
BRANCH   9  15
ATOM     14  C   UNL     1       5.876   1.296  11.248  0.00  0.00    +0.000 C 
ATOM     15  C   UNL     1       5.595   2.793  11.107  0.00  0.00    +0.000 C 
ATOM     16  C   UNL     1       4.092   3.068  11.166  0.00  0.00    +0.000 C 
ENDBRANCH   9  15
ENDBRANCH   4  12
ENDBRANCH   1   7
BRANCH   1  17
ATOM     17  C   UNL     1       3.405   4.411  18.493  0.00  0.00    +0.000 C 
BRANCH  17  18
ATOM     18  C   UNL     1       3.006   5.878  18.518  0.00  0.00    +0.000 A 
ATOM     19  C   UNL     1       3.494   6.694  17.474  0.00  0.00    +0.000 A 
ATOM     20  C   UNL     1       3.219   8.060  17.424  0.00  0.00    +0.000 A 
ATOM     21  C   UNL     1       2.448   8.647  18.417  0.00  0.00    +0.000 A 
ATOM     22  C   UNL     1       1.949   7.864  19.454  0.00  0.00    +0.000 A 
ATOM     23  C   UNL     1       2.210   6.475  19.528  0.00  0.00    +0.000 A 
BRANCH  23  24
ATOM     24  C   UNL     1       1.589   5.747  20.706  0.00  0.00    +0.000 C 
ATOM     25  F   UNL     1       0.713   4.763  20.374  0.00  0.00    +0.000 F 
ATOM     26  F   UNL     1       2.519   5.170  21.515  0.00  0.00    +0.000 F 
ATOM     27  F   UNL     1       0.883   6.598  21.507  0.00  0.00    +0.000 F 
ENDBRANCH  23  24
ENDBRANCH  17  18
ENDBRANCH   1  17
TORSDOF 6
ENDMDL
MODEL 9
REMARK VINA RESULT:      -7.9      4.669      7.226
REMARK  Name = 
REMARK  8 active torsions:
REMARK  status: ('A' for Active; 'I' for Inactive)
REMARK    1  A    between atoms: C_1  and  C_2
REMARK    2  A    between atoms: C_2  and  C_3
REMARK    3  A    between atoms: C_2  and  C_4
REMARK    4  A    between atoms: C_7  and  C_8
REMARK    5  A    between atoms: C_11  and  S_12
REMARK    6  A    between atoms: S_12  and  C_15
REMARK    7  A    between atoms: C_15  and  C_16
REMARK    8  A    between atoms: C_21  and  C_22
REMARK                            x       y       z     vdW  Elec       q    Type
REMARK                         _______ _______ _______ _____ _____    ______ ____
ROOT
ATOM      1  S   UNL     1       7.103   5.246  18.121  0.00  0.00    +0.000 S 
ATOM      2  O   UNL     1       6.593   4.846  16.821  0.00  0.00    +0.000 OA
ATOM      3  O   UNL     1       8.263   4.606  18.714  0.00  0.00    +0.000 OA
ENDROOT
BRANCH   1   7
ATOM      4  C   UNL     1       8.374   8.921  18.299  0.00  0.00    +0.000 A 
ATOM      5  N   UNL     1       7.660   8.977  17.186  0.00  0.00    +0.000 NA
ATOM      6  N   UNL     1       7.131   7.726  16.970  0.00  0.00    +0.000 NA
ATOM      7  C   UNL     1       7.548   6.958  17.961  0.00  0.00    +0.000 A 
ATOM      8  O   UNL     1       8.350   7.653  18.842  0.00  0.00    +0.000 OA
BRANCH   4  12
ATOM      9  C   UNL     1       9.769  11.566  20.330  0.00  0.00    +0.000 A 
ATOM     10  C   UNL     1      10.572  11.919  19.263  0.00  0.00    +0.000 A 
ATOM     11  S   UNL     1      10.269  10.893  17.929  0.00  0.00    +0.000 S 
ATOM     12  C   UNL     1       9.097  10.036  18.857  0.00  0.00    +0.000 A 
ATOM     13  N   UNL     1       8.938  10.474  20.092  0.00  0.00    +0.000 NA
BRANCH   9  15
ATOM     14  C   UNL     1       9.921  13.756  21.561  0.00  0.00    +0.000 C 
ATOM     15  C   UNL     1       9.753  12.240  21.677  0.00  0.00    +0.000 C 
ATOM     16  C   UNL     1       8.484  11.895  22.456  0.00  0.00    +0.000 C 
ENDBRANCH   9  15
ENDBRANCH   4  12
ENDBRANCH   1   7
BRANCH   1  17
ATOM     17  C   UNL     1       5.767   5.293  19.311  0.00  0.00    +0.000 C 
BRANCH  17  18
ATOM     18  C   UNL     1       4.582   4.516  18.760  0.00  0.00    +0.000 A 
ATOM     19  C   UNL     1       4.683   3.107  18.759  0.00  0.00    +0.000 A 
ATOM     20  C   UNL     1       3.670   2.302  18.241  0.00  0.00    +0.000 A 
ATOM     21  C   UNL     1       2.527   2.883  17.711  0.00  0.00    +0.000 A 
ATOM     22  C   UNL     1       2.399   4.269  17.706  0.00  0.00    +0.000 A 
ATOM     23  C   UNL     1       3.411   5.110  18.227  0.00  0.00    +0.000 A 
BRANCH  23  24
ATOM     24  C   UNL     1       3.127   6.600  18.167  0.00  0.00    +0.000 C 
ATOM     25  F   UNL     1       3.117   7.230  19.372  0.00  0.00    +0.000 F 
ATOM     26  F   UNL     1       4.024   7.273  17.395  0.00  0.00    +0.000 F 
ATOM     27  F   UNL     1       1.905   6.858  17.619  0.00  0.00    +0.000 F 
ENDBRANCH  23  24
ENDBRANCH  17  18
ENDBRANCH   1  17
TORSDOF 6
ENDMDL
