MODEL 1
REMARK VINA RESULT:      -8.2      0.000      0.000
REMARK  Name = 
REMARK  6 active torsions:
REMARK  status: ('A' for Active; 'I' for Inactive)
REMARK    1  A    between atoms: C_1  and  N_2
REMARK    2  A    between atoms: N_2  and  C_3
REMARK    3  A    between atoms: C_3  and  C_4
REMARK    4  A    between atoms: C_10  and  C_11
REMARK    5  A    between atoms: C_15  and  O_16
REMARK    6  A    between atoms: O_16  and  C_17
REMARK                            x       y       z     vdW  Elec       q    Type
REMARK                         _______ _______ _______ _____ _____    ______ ____
ROOT
ATOM      1  C   UNL     1       4.751   5.710  17.821  0.00  0.00    +0.000 A 
ATOM      2  C   UNL     1       5.420   5.149  18.908  0.00  0.00    +0.000 A 
ATOM      3  N   UNL     1       6.718   4.765  18.869  0.00  0.00    +0.000 NA
ATOM      4  C   UNL     1       7.327   4.946  17.674  0.00  0.00    +0.000 A 
ATOM      5  C   UNL     1       6.685   5.517  16.586  0.00  0.00    +0.000 A 
ATOM      6  N   UNL     1       5.391   5.908  16.640  0.00  0.00    +0.000 NA
ENDROOT
BRANCH   1  13
ATOM      7  C   UNL     1       2.140   4.147  18.778  0.00  0.00    +0.000 C 
ATOM      8  O   UNL     1       2.570   3.455  17.853  0.00  0.00    +0.000 OA
ATOM      9  N   UNL     1       2.551   5.454  18.969  0.00  0.00    +0.000 N 
ATOM     10  C   UNL     1       2.110   6.374  19.997  0.00  0.00    +0.000 C 
ATOM     11  C   UNL     1       2.042   7.714  19.287  0.00  0.00    +0.000 C 
ATOM     12  C   UNL     1       3.157   7.642  18.247  0.00  0.00    +0.000 C 
ATOM     13  C   UNL     1       3.303   6.145  17.919  0.00  0.00    +0.000 C 
BRANCH   7  14
ATOM     14  C   UNL     1       1.068   3.582  19.716  0.00  0.00    +0.000 C 
BRANCH  14  16
ATOM     15  C   UNL     1       2.496   2.872  21.552  0.00  0.00    +0.000 C 
ATOM     16  N   UNL     1       1.586   2.433  20.491  0.00  0.00    +0.000 NA
ATOM     17  H   UNL     1       0.794   1.967  20.933  0.00  0.00    +0.000 HD
ENDBRANCH  14  16
ENDBRANCH   7  14
ENDBRANCH   1  13
BRANCH   5  18
ATOM     18  O   UNL     1       7.413   5.643  15.416  0.00  0.00    +0.000 OA
BRANCH  18  19
ATOM     19  C   UNL     1       7.006   4.945  14.299  0.00  0.00    +0.000 A 
ATOM     20  C   UNL     1       7.680   4.958  13.074  0.00  0.00    +0.000 A 
ATOM     21  C   UNL     1       7.215   4.184  12.011  0.00  0.00    +0.000 A 
ATOM     22  C   UNL     1       6.101   3.373  12.191  0.00  0.00    +0.000 A 
ATOM     23  F   UNL     1       5.663   2.620  11.173  0.00  0.00    +0.000 F 
ATOM     24  C   UNL     1       5.441   3.323  13.414  0.00  0.00    +0.000 A 
ATOM     25  C   UNL     1       5.896   4.111  14.472  0.00  0.00    +0.000 A 
ENDBRANCH  18  19
ENDBRANCH   5  18
TORSDOF 5
ENDMDL
MODEL 2
REMARK VINA RESULT:      -8.1      0.333      1.037
REMARK  Name = 
REMARK  6 active torsions:
REMARK  status: ('A' for Active; 'I' for Inactive)
REMARK    1  A    between atoms: C_1  and  N_2
REMARK    2  A    between atoms: N_2  and  C_3
REMARK    3  A    between atoms: C_3  and  C_4
REMARK    4  A    between atoms: C_10  and  C_11
REMARK    5  A    between atoms: C_15  and  O_16
REMARK    6  A    between atoms: O_16  and  C_17
REMARK                            x       y       z     vdW  Elec       q    Type
REMARK                         _______ _______ _______ _____ _____    ______ ____
ROOT
ATOM      1  C   UNL     1       4.770   5.754  17.873  0.00  0.00    +0.000 A 
ATOM      2  C   UNL     1       5.494   5.272  18.963  0.00  0.00    +0.000 A 
ATOM      3  N   UNL     1       6.807   4.949  18.903  0.00  0.00    +0.000 NA
ATOM      4  C   UNL     1       7.375   5.107  17.684  0.00  0.00    +0.000 A 
ATOM      5  C   UNL     1       6.677   5.599  16.593  0.00  0.00    +0.000 A 
ATOM      6  N   UNL     1       5.368   5.931  16.668  0.00  0.00    +0.000 NA
ENDROOT
BRANCH   1  13
ATOM      7  C   UNL     1       2.194   3.985  18.517  0.00  0.00    +0.000 C 
ATOM      8  O   UNL     1       2.669   3.452  17.511  0.00  0.00    +0.000 OA
ATOM      9  N   UNL     1       2.555   5.261  18.911  0.00  0.00    +0.000 N 
ATOM     10  C   UNL     1       2.059   6.003  20.050  0.00  0.00    +0.000 C 
ATOM     11  C   UNL     1       1.960   7.431  19.545  0.00  0.00    +0.000 C 
ATOM     12  C   UNL     1       3.100   7.550  18.537  0.00  0.00    +0.000 C 
ATOM     13  C   UNL     1       3.305   6.124  17.995  0.00  0.00    +0.000 C 
BRANCH   7  14
ATOM     14  C   UNL     1       1.122   3.253  19.331  0.00  0.00    +0.000 C 
BRANCH  14  16
ATOM     15  C   UNL     1       1.519   2.693  21.664  0.00  0.00    +0.000 C 
ATOM     16  N   UNL     1       1.731   2.287  20.272  0.00  0.00    +0.000 NA
ATOM     17  H   UNL     1       1.275   1.385  20.138  0.00  0.00    +0.000 HD
ENDBRANCH  14  16
ENDBRANCH   7  14
ENDBRANCH   1  13
BRANCH   5  18
ATOM     18  O   UNL     1       7.367   5.710  15.397  0.00  0.00    +0.000 OA
BRANCH  18  19
ATOM     19  C   UNL     1       7.021   4.883  14.350  0.00  0.00    +0.000 A 
ATOM     20  C   UNL     1       5.996   3.934  14.403  0.00  0.00    +0.000 A 
ATOM     21  C   UNL     1       5.690   3.170  13.277  0.00  0.00    +0.000 A 
ATOM     22  C   UNL     1       6.385   3.387  12.094  0.00  0.00    +0.000 A 
ATOM     23  F   UNL     1       6.081   2.662  11.008  0.00  0.00    +0.000 F 
ATOM     24  C   UNL     1       7.383   4.352  12.015  0.00  0.00    +0.000 A 
ATOM     25  C   UNL     1       7.702   5.104  13.148  0.00  0.00    +0.000 A 
ENDBRANCH  18  19
ENDBRANCH   5  18
TORSDOF 5
ENDMDL
MODEL 3
REMARK VINA RESULT:      -7.7      2.959      6.800
REMARK  Name = 
REMARK  6 active torsions:
REMARK  status: ('A' for Active; 'I' for Inactive)
REMARK    1  A    between atoms: C_1  and  N_2
REMARK    2  A    between atoms: N_2  and  C_3
REMARK    3  A    between atoms: C_3  and  C_4
REMARK    4  A    between atoms: C_10  and  C_11
REMARK    5  A    between atoms: C_15  and  O_16
REMARK    6  A    between atoms: O_16  and  C_17
REMARK                            x       y       z     vdW  Elec       q    Type
REMARK                         _______ _______ _______ _____ _____    ______ ____
ROOT
ATOM      1  C   UNL     1       4.900   4.324  19.252  0.00  0.00    +0.000 A 
ATOM      2  C   UNL     1       4.541   3.006  19.534  0.00  0.00    +0.000 A 
ATOM      3  N   UNL     1       3.386   2.663  20.152  0.00  0.00    +0.000 NA
ATOM      4  C   UNL     1       2.598   3.707  20.503  0.00  0.00    +0.000 A 
ATOM      5  C   UNL     1       2.930   5.022  20.217  0.00  0.00    +0.000 A 
ATOM      6  N   UNL     1       4.081   5.353  19.589  0.00  0.00    +0.000 NA
ENDROOT
BRANCH   1  13
ATOM      7  C   UNL     1       5.559   4.732  16.157  0.00  0.00    +0.000 C 
ATOM      8  O   UNL     1       5.097   3.590  16.207  0.00  0.00    +0.000 OA
ATOM      9  N   UNL     1       6.004   5.394  17.287  0.00  0.00    +0.000 N 
ATOM     10  C   UNL     1       6.583   6.719  17.360  0.00  0.00    +0.000 C 
ATOM     11  C   UNL     1       7.668   6.590  18.413  0.00  0.00    +0.000 C 
ATOM     12  C   UNL     1       7.122   5.548  19.385  0.00  0.00    +0.000 C 
ATOM     13  C   UNL     1       6.195   4.657  18.539  0.00  0.00    +0.000 C 
BRANCH   7  14
ATOM     14  C   UNL     1       5.713   5.431  14.803  0.00  0.00    +0.000 C 
BRANCH  14  16
ATOM     15  C   UNL     1       6.580   3.949  13.081  0.00  0.00    +0.000 C 
ATOM     16  N   UNL     1       6.919   4.957  14.089  0.00  0.00    +0.000 NA
ATOM     17  H   UNL     1       7.334   5.754  13.605  0.00  0.00    +0.000 HD
ENDBRANCH  14  16
ENDBRANCH   7  14
ENDBRANCH   1  13
BRANCH   5  18
ATOM     18  O   UNL     1       2.045   6.003  20.633  0.00  0.00    +0.000 OA
BRANCH  18  19
ATOM     19  C   UNL     1       1.951   7.168  19.902  0.00  0.00    +0.000 A 
ATOM     20  C   UNL     1       2.327   7.288  18.560  0.00  0.00    +0.000 A 
ATOM     21  C   UNL     1       2.155   8.499  17.890  0.00  0.00    +0.000 A 
ATOM     22  C   UNL     1       1.573   9.571  18.555  0.00  0.00    +0.000 A 
ATOM     23  F   UNL     1       1.396  10.731  17.906  0.00  0.00    +0.000 F 
ATOM     24  C   UNL     1       1.162   9.458  19.878  0.00  0.00    +0.000 A 
ATOM     25  C   UNL     1       1.351   8.250  20.554  0.00  0.00    +0.000 A 
ENDBRANCH  18  19
ENDBRANCH   5  18
TORSDOF 5
ENDMDL
MODEL 4
REMARK VINA RESULT:      -7.6      4.287      7.882
REMARK  Name = 
REMARK  6 active torsions:
REMARK  status: ('A' for Active; 'I' for Inactive)
REMARK    1  A    between atoms: C_1  and  N_2
REMARK    2  A    between atoms: N_2  and  C_3
REMARK    3  A    between atoms: C_3  and  C_4
REMARK    4  A    between atoms: C_10  and  C_11
REMARK    5  A    between atoms: C_15  and  O_16
REMARK    6  A    between atoms: O_16  and  C_17
REMARK                            x       y       z     vdW  Elec       q    Type
REMARK                         _______ _______ _______ _____ _____    ______ ____
ROOT
ATOM      1  C   UNL     1       2.452   6.343  18.687  0.00  0.00    +0.000 A 
ATOM      2  C   UNL     1       2.177   6.039  20.019  0.00  0.00    +0.000 A 
ATOM      3  N   UNL     1       1.708   6.945  20.910  0.00  0.00    +0.000 NA
ATOM      4  C   UNL     1       1.541   8.194  20.415  0.00  0.00    +0.000 A 
ATOM      5  C   UNL     1       1.793   8.512  19.089  0.00  0.00    +0.000 A 
ATOM      6  N   UNL     1       2.251   7.596  18.205  0.00  0.00    +0.000 NA
ENDROOT
BRANCH   1  13
ATOM      7  C   UNL     1       5.410   5.458  17.885  0.00  0.00    +0.000 C 
ATOM      8  O   UNL     1       5.382   6.660  17.610  0.00  0.00    +0.000 OA
ATOM      9  N   UNL     1       4.256   4.725  18.092  0.00  0.00    +0.000 N 
ATOM     10  C   UNL     1       4.152   3.314  18.398  0.00  0.00    +0.000 C 
ATOM     11  C   UNL     1       2.929   2.858  17.625  0.00  0.00    +0.000 C 
ATOM     12  C   UNL     1       2.011   4.077  17.625  0.00  0.00    +0.000 C 
ATOM     13  C   UNL     1       2.956   5.289  17.721  0.00  0.00    +0.000 C 
BRANCH   7  14
ATOM     14  C   UNL     1       6.753   4.722  17.941  0.00  0.00    +0.000 C 
BRANCH  14  16
ATOM     15  C   UNL     1       6.779   4.232  15.559  0.00  0.00    +0.000 C 
ATOM     16  N   UNL     1       7.496   4.866  16.669  0.00  0.00    +0.000 NA
ATOM     17  H   UNL     1       7.577   5.861  16.460  0.00  0.00    +0.000 HD
ENDBRANCH  14  16
ENDBRANCH   7  14
ENDBRANCH   1  13
BRANCH   5  18
ATOM     18  O   UNL     1       1.591   9.826  18.704  0.00  0.00    +0.000 OA
BRANCH  18  19
ATOM     19  C   UNL     1       0.311  10.337  18.724  0.00  0.00    +0.000 A 
ATOM     20  C   UNL     1      -0.105  11.388  19.549  0.00  0.00    +0.000 A 
ATOM     21  C   UNL     1      -1.412  11.865  19.469  0.00  0.00    +0.000 A 
ATOM     22  C   UNL     1      -2.286  11.316  18.539  0.00  0.00    +0.000 A 
ATOM     23  F   UNL     1      -3.539  11.785  18.455  0.00  0.00    +0.000 F 
ATOM     24  C   UNL     1      -1.879  10.294  17.689  0.00  0.00    +0.000 A 
ATOM     25  C   UNL     1      -0.574   9.803  17.781  0.00  0.00    +0.000 A 
ENDBRANCH  18  19
ENDBRANCH   5  18
TORSDOF 5
ENDMDL
MODEL 5
REMARK VINA RESULT:      -7.6      5.036      7.783
REMARK  Name = 
REMARK  6 active torsions:
REMARK  status: ('A' for Active; 'I' for Inactive)
REMARK    1  A    between atoms: C_1  and  N_2
REMARK    2  A    between atoms: N_2  and  C_3
REMARK    3  A    between atoms: C_3  and  C_4
REMARK    4  A    between atoms: C_10  and  C_11
REMARK    5  A    between atoms: C_15  and  O_16
REMARK    6  A    between atoms: O_16  and  C_17
REMARK                            x       y       z     vdW  Elec       q    Type
REMARK                         _______ _______ _______ _____ _____    ______ ____
ROOT
ATOM      1  C   UNL     1       0.840   9.680  19.093  0.00  0.00    +0.000 A 
ATOM      2  C   UNL     1       1.504  10.028  17.917  0.00  0.00    +0.000 A 
ATOM      3  N   UNL     1       2.501   9.288  17.375  0.00  0.00    +0.000 NA
ATOM      4  C   UNL     1       2.830   8.178  18.078  0.00  0.00    +0.000 A 
ATOM      5  C   UNL     1       2.171   7.807  19.240  0.00  0.00    +0.000 A 
ATOM      6  N   UNL     1       1.169   8.548  19.766  0.00  0.00    +0.000 NA
ENDROOT
BRANCH   1  13
ATOM      7  C   UNL     1       0.875  12.426  20.717  0.00  0.00    +0.000 C 
ATOM      8  O   UNL     1       1.550  11.666  21.417  0.00  0.00    +0.000 OA
ATOM      9  N   UNL     1       0.037  11.957  19.722  0.00  0.00    +0.000 N 
ATOM     10  C   UNL     1      -0.818  12.736  18.852  0.00  0.00    +0.000 C 
ATOM     11  C   UNL     1      -2.070  11.891  18.711  0.00  0.00    +0.000 C 
ATOM     12  C   UNL     1      -1.561  10.454  18.792  0.00  0.00    +0.000 C 
ATOM     13  C   UNL     1      -0.284  10.529  19.650  0.00  0.00    +0.000 C 
BRANCH   7  14
ATOM     14  C   UNL     1       0.904  13.934  20.987  0.00  0.00    +0.000 C 
BRANCH  14  16
ATOM     15  C   UNL     1      -0.824  14.012  22.695  0.00  0.00    +0.000 C 
ATOM     16  N   UNL     1       0.595  14.231  22.403  0.00  0.00    +0.000 NA
ATOM     17  H   UNL     1       1.135  13.593  22.986  0.00  0.00    +0.000 HD
ENDBRANCH  14  16
ENDBRANCH   7  14
ENDBRANCH   1  13
BRANCH   5  18
ATOM     18  O   UNL     1       2.604   6.654  19.872  0.00  0.00    +0.000 OA
BRANCH  18  19
ATOM     19  C   UNL     1       2.062   5.444  19.494  0.00  0.00    +0.000 A 
ATOM     20  C   UNL     1       2.173   4.898  18.212  0.00  0.00    +0.000 A 
ATOM     21  C   UNL     1       1.626   3.645  17.934  0.00  0.00    +0.000 A 
ATOM     22  C   UNL     1       1.005   2.930  18.950  0.00  0.00    +0.000 A 
ATOM     23  F   UNL     1       0.492   1.720  18.685  0.00  0.00    +0.000 F 
ATOM     24  C   UNL     1       0.916   3.444  20.239  0.00  0.00    +0.000 A 
ATOM     25  C   UNL     1       1.448   4.706  20.512  0.00  0.00    +0.000 A 
ENDBRANCH  18  19
ENDBRANCH   5  18
TORSDOF 5
ENDMDL
MODEL 6
REMARK VINA RESULT:      -7.5      5.173      7.753
REMARK  Name = 
REMARK  6 active torsions:
REMARK  status: ('A' for Active; 'I' for Inactive)
REMARK    1  A    between atoms: C_1  and  N_2
REMARK    2  A    between atoms: N_2  and  C_3
REMARK    3  A    between atoms: C_3  and  C_4
REMARK    4  A    between atoms: C_10  and  C_11
REMARK    5  A    between atoms: C_15  and  O_16
REMARK    6  A    between atoms: O_16  and  C_17
REMARK                            x       y       z     vdW  Elec       q    Type
REMARK                         _______ _______ _______ _____ _____    ______ ____
ROOT
ATOM      1  C   UNL     1       0.769   9.956  19.651  0.00  0.00    +0.000 A 
ATOM      2  C   UNL     1       0.072   9.860  20.855  0.00  0.00    +0.000 A 
ATOM      3  N   UNL     1       0.223   8.834  21.725  0.00  0.00    +0.000 NA
ATOM      4  C   UNL     1       1.097   7.879  21.330  0.00  0.00    +0.000 A 
ATOM      5  C   UNL     1       1.812   7.964  20.145  0.00  0.00    +0.000 A 
ATOM      6  N   UNL     1       1.662   9.000  19.288  0.00  0.00    +0.000 NA
ENDROOT
BRANCH   1  13
ATOM      7  C   UNL     1      -1.601  10.711  17.653  0.00  0.00    +0.000 C 
ATOM      8  O   UNL     1      -1.234   9.600  17.262  0.00  0.00    +0.000 OA
ATOM      9  N   UNL     1      -0.821  11.489  18.490  0.00  0.00    +0.000 N 
ATOM     10  C   UNL     1      -1.124  12.809  19.000  0.00  0.00    +0.000 C 
ATOM     11  C   UNL     1       0.212  13.526  18.983  0.00  0.00    +0.000 C 
ATOM     12  C   UNL     1       1.231  12.423  19.258  0.00  0.00    +0.000 C 
ATOM     13  C   UNL     1       0.582  11.136  18.718  0.00  0.00    +0.000 C 
BRANCH   7  14
ATOM     14  C   UNL     1      -2.928  11.292  17.155  0.00  0.00    +0.000 C 
BRANCH  14  16
ATOM     15  C   UNL     1      -3.373  10.570  14.876  0.00  0.00    +0.000 C 
ATOM     16  N   UNL     1      -3.647  10.326  16.294  0.00  0.00    +0.000 NA
ATOM     17  H   UNL     1      -3.311   9.390  16.520  0.00  0.00    +0.000 HD
ENDBRANCH  14  16
ENDBRANCH   7  14
ENDBRANCH   1  13
BRANCH   5  18
ATOM     18  O   UNL     1       2.672   6.920  19.848  0.00  0.00    +0.000 OA
BRANCH  18  19
ATOM     19  C   UNL     1       2.143   5.673  19.595  0.00  0.00    +0.000 A 
ATOM     20  C   UNL     1       1.578   4.845  20.571  0.00  0.00    +0.000 A 
ATOM     21  C   UNL     1       1.027   3.615  20.213  0.00  0.00    +0.000 A 
ATOM     22  C   UNL     1       1.011   3.236  18.876  0.00  0.00    +0.000 A 
ATOM     23  F   UNL     1       0.470   2.059  18.532  0.00  0.00    +0.000 F 
ATOM     24  C   UNL     1       1.538   4.063  17.890  0.00  0.00    +0.000 A 
ATOM     25  C   UNL     1       2.105   5.287  18.251  0.00  0.00    +0.000 A 
ENDBRANCH  18  19
ENDBRANCH   5  18
TORSDOF 5
ENDMDL
MODEL 7
REMARK VINA RESULT:      -7.5      5.050      7.877
REMARK  Name = 
REMARK  6 active torsions:
REMARK  status: ('A' for Active; 'I' for Inactive)
REMARK    1  A    between atoms: C_1  and  N_2
REMARK    2  A    between atoms: N_2  and  C_3
REMARK    3  A    between atoms: C_3  and  C_4
REMARK    4  A    between atoms: C_10  and  C_11
REMARK    5  A    between atoms: C_15  and  O_16
REMARK    6  A    between atoms: O_16  and  C_17
REMARK                            x       y       z     vdW  Elec       q    Type
REMARK                         _______ _______ _______ _____ _____    ______ ____
ROOT
ATOM      1  C   UNL     1       0.770   9.617  19.079  0.00  0.00    +0.000 A 
ATOM      2  C   UNL     1       1.377   9.968  17.874  0.00  0.00    +0.000 A 
ATOM      3  N   UNL     1       2.396   9.269  17.320  0.00  0.00    +0.000 NA
ATOM      4  C   UNL     1       2.806   8.198  18.039  0.00  0.00    +0.000 A 
ATOM      5  C   UNL     1       2.205   7.823  19.230  0.00  0.00    +0.000 A 
ATOM      6  N   UNL     1       1.180   8.523  19.769  0.00  0.00    +0.000 NA
ENDROOT
BRANCH   1  13
ATOM      7  C   UNL     1       0.719  12.292  20.817  0.00  0.00    +0.000 C 
ATOM      8  O   UNL     1       1.397  11.517  21.496  0.00  0.00    +0.000 OA
ATOM      9  N   UNL     1      -0.092  11.849  19.788  0.00  0.00    +0.000 N 
ATOM     10  C   UNL     1      -0.947  12.647  18.935  0.00  0.00    +0.000 C 
ATOM     11  C   UNL     1      -2.178  11.783  18.736  0.00  0.00    +0.000 C 
ATOM     12  C   UNL     1      -1.641  10.355  18.766  0.00  0.00    +0.000 C 
ATOM     13  C   UNL     1      -0.382  10.420  19.650  0.00  0.00    +0.000 C 
BRANCH   7  14
ATOM     14  C   UNL     1       0.712  13.788  21.150  0.00  0.00    +0.000 C 
BRANCH  14  16
ATOM     15  C   UNL     1       2.395  15.492  21.566  0.00  0.00    +0.000 C 
ATOM     16  N   UNL     1       1.900  14.166  21.946  0.00  0.00    +0.000 NA
ATOM     17  H   UNL     1       1.625  14.205  22.927  0.00  0.00    +0.000 HD
ENDBRANCH  14  16
ENDBRANCH   7  14
ENDBRANCH   1  13
BRANCH   5  18
ATOM     18  O   UNL     1       2.719   6.712  19.877  0.00  0.00    +0.000 OA
BRANCH  18  19
ATOM     19  C   UNL     1       2.147   5.480  19.640  0.00  0.00    +0.000 A 
ATOM     20  C   UNL     1       1.452   4.737  20.600  0.00  0.00    +0.000 A 
ATOM     21  C   UNL     1       0.870   3.518  20.255  0.00  0.00    +0.000 A 
ATOM     22  C   UNL     1       0.954   3.067  18.944  0.00  0.00    +0.000 A 
ATOM     23  F   UNL     1       0.383   1.901  18.611  0.00  0.00    +0.000 F 
ATOM     24  C   UNL     1       1.611   3.810  17.970  0.00  0.00    +0.000 A 
ATOM     25  C   UNL     1       2.210   5.022  18.319  0.00  0.00    +0.000 A 
ENDBRANCH  18  19
ENDBRANCH   5  18
TORSDOF 5
ENDMDL
MODEL 8
REMARK VINA RESULT:      -7.4      4.271      7.803
REMARK  Name = 
REMARK  6 active torsions:
REMARK  status: ('A' for Active; 'I' for Inactive)
REMARK    1  A    between atoms: C_1  and  N_2
REMARK    2  A    between atoms: N_2  and  C_3
REMARK    3  A    between atoms: C_3  and  C_4
REMARK    4  A    between atoms: C_10  and  C_11
REMARK    5  A    between atoms: C_15  and  O_16
REMARK    6  A    between atoms: O_16  and  C_17
REMARK                            x       y       z     vdW  Elec       q    Type
REMARK                         _______ _______ _______ _____ _____    ______ ____
ROOT
ATOM      1  C   UNL     1       2.371   6.262  18.620  0.00  0.00    +0.000 A 
ATOM      2  C   UNL     1       2.148   5.986  19.969  0.00  0.00    +0.000 A 
ATOM      3  N   UNL     1       1.758   6.921  20.867  0.00  0.00    +0.000 NA
ATOM      4  C   UNL     1       1.619   8.170  20.362  0.00  0.00    +0.000 A 
ATOM      5  C   UNL     1       1.820   8.461  19.022  0.00  0.00    +0.000 A 
ATOM      6  N   UNL     1       2.198   7.516  18.131  0.00  0.00    +0.000 NA
ENDROOT
BRANCH   1  13
ATOM      7  C   UNL     1       5.238   5.401  17.517  0.00  0.00    +0.000 C 
ATOM      8  O   UNL     1       5.149   6.588  17.197  0.00  0.00    +0.000 OA
ATOM      9  N   UNL     1       4.134   4.655  17.888  0.00  0.00    +0.000 N 
ATOM     10  C   UNL     1       4.102   3.257  18.263  0.00  0.00    +0.000 C 
ATOM     11  C   UNL     1       2.809   2.743  17.657  0.00  0.00    +0.000 C 
ATOM     12  C   UNL     1       1.867   3.942  17.713  0.00  0.00    +0.000 C 
ATOM     13  C   UNL     1       2.786   5.176  17.648  0.00  0.00    +0.000 C 
BRANCH   7  14
ATOM     14  C   UNL     1       6.596   4.695  17.446  0.00  0.00    +0.000 C 
BRANCH  14  16
ATOM     15  C   UNL     1       7.853   5.918  19.130  0.00  0.00    +0.000 C 
ATOM     16  N   UNL     1       7.240   4.635  18.778  0.00  0.00    +0.000 NA
ATOM     17  H   UNL     1       6.518   4.434  19.469  0.00  0.00    +0.000 HD
ENDBRANCH  14  16
ENDBRANCH   7  14
ENDBRANCH   1  13
BRANCH   5  18
ATOM     18  O   UNL     1       1.652   9.777  18.627  0.00  0.00    +0.000 OA
BRANCH  18  19
ATOM     19  C   UNL     1       0.378  10.300  18.577  0.00  0.00    +0.000 A 
ATOM     20  C   UNL     1      -0.651   9.789  17.780  0.00  0.00    +0.000 A 
ATOM     21  C   UNL     1      -1.923  10.359  17.828  0.00  0.00    +0.000 A 
ATOM     22  C   UNL     1      -2.168  11.412  18.700  0.00  0.00    +0.000 A 
ATOM     23  F   UNL     1      -3.394  11.951  18.755  0.00  0.00    +0.000 F 
ATOM     24  C   UNL     1      -1.165  11.909  19.525  0.00  0.00    +0.000 A 
ATOM     25  C   UNL     1       0.113  11.349  19.464  0.00  0.00    +0.000 A 
ENDBRANCH  18  19
ENDBRANCH   5  18
TORSDOF 5
ENDMDL
MODEL 9
REMARK VINA RESULT:      -7.4      5.158      7.749
REMARK  Name = 
REMARK  6 active torsions:
REMARK  status: ('A' for Active; 'I' for Inactive)
REMARK    1  A    between atoms: C_1  and  N_2
REMARK    2  A    between atoms: N_2  and  C_3
REMARK    3  A    between atoms: C_3  and  C_4
REMARK    4  A    between atoms: C_10  and  C_11
REMARK    5  A    between atoms: C_15  and  O_16
REMARK    6  A    between atoms: O_16  and  C_17
REMARK                            x       y       z     vdW  Elec       q    Type
REMARK                         _______ _______ _______ _____ _____    ______ ____
ROOT
ATOM      1  C   UNL     1       0.766   9.905  19.532  0.00  0.00    +0.000 A 
ATOM      2  C   UNL     1       0.047   9.895  20.727  0.00  0.00    +0.000 A 
ATOM      3  N   UNL     1       0.167   8.922  21.662  0.00  0.00    +0.000 NA
ATOM      4  C   UNL     1       1.032   7.931  21.342  0.00  0.00    +0.000 A 
ATOM      5  C   UNL     1       1.768   7.931  20.168  0.00  0.00    +0.000 A 
ATOM      6  N   UNL     1       1.649   8.914  19.246  0.00  0.00    +0.000 NA
ENDROOT
BRANCH   1  13
ATOM      7  C   UNL     1      -1.668  10.726  17.640  0.00  0.00    +0.000 C 
ATOM      8  O   UNL     1      -1.427   9.562  17.314  0.00  0.00    +0.000 OA
ATOM      9  N   UNL     1      -0.766  11.488  18.362  0.00  0.00    +0.000 N 
ATOM     10  C   UNL     1      -0.918  12.864  18.786  0.00  0.00    +0.000 C 
ATOM     11  C   UNL     1       0.470  13.454  18.627  0.00  0.00    +0.000 C 
ATOM     12  C   UNL     1       1.408  12.286  18.920  0.00  0.00    +0.000 C 
ATOM     13  C   UNL     1       0.614  11.027  18.525  0.00  0.00    +0.000 C 
BRANCH   7  14
ATOM     14  C   UNL     1      -2.973  11.389  17.186  0.00  0.00    +0.000 C 
BRANCH  14  16
ATOM     15  C   UNL     1      -5.371  11.489  17.573  0.00  0.00    +0.000 C 
ATOM     16  N   UNL     1      -4.072  11.115  18.138  0.00  0.00    +0.000 NA
ATOM     17  H   UNL     1      -4.089  10.112  18.322  0.00  0.00    +0.000 HD
ENDBRANCH  14  16
ENDBRANCH   7  14
ENDBRANCH   1  13
BRANCH   5  18
ATOM     18  O   UNL     1       2.615   6.858  19.951  0.00  0.00    +0.000 OA
BRANCH  18  19
ATOM     19  C   UNL     1       2.079   5.662  19.526  0.00  0.00    +0.000 A 
ATOM     20  C   UNL     1       2.085   5.225  18.197  0.00  0.00    +0.000 A 
ATOM     21  C   UNL     1       1.556   3.978  17.867  0.00  0.00    +0.000 A 
ATOM     22  C   UNL     1       1.059   3.158  18.873  0.00  0.00    +0.000 A 
ATOM     23  F   UNL     1       0.563   1.954  18.557  0.00  0.00    +0.000 F 
ATOM     24  C   UNL     1       1.078   3.563  20.203  0.00  0.00    +0.000 A 
ATOM     25  C   UNL     1       1.592   4.820  20.531  0.00  0.00    +0.000 A 
ENDBRANCH  18  19
ENDBRANCH   5  18
TORSDOF 5
ENDMDL
