MODEL 1
REMARK VINA RESULT:      -8.5      0.000      0.000
REMARK  Name = 
REMARK  3 active torsions:
REMARK  status: ('A' for Active; 'I' for Inactive)
REMARK    1  A    between atoms: C_2  and  C_4
REMARK    2  A    between atoms: C_11  and  C_12
REMARK    3  A    between atoms: C_15  and  C_16
REMARK                            x       y       z     vdW  Elec       q    Type
REMARK                         _______ _______ _______ _____ _____    ______ ____
ROOT
ATOM      1  C   UNL     1       4.116   3.896  17.126  0.00  0.00    +0.000 A 
ATOM      2  C   UNL     1       5.147   3.684  16.197  0.00  0.00    +0.000 A 
ATOM      3  C   UNL     1       5.823   4.770  15.637  0.00  0.00    +0.000 A 
ATOM      4 CL   UNL     1       7.081   4.483  14.493  0.00  0.00    +0.000 Cl
ATOM      5  C   UNL     1       5.507   6.093  15.969  0.00  0.00    +0.000 A 
ATOM      6  C   UNL     1       4.483   6.273  16.902  0.00  0.00    +0.000 A 
ATOM      7  N   UNL     1       3.908   7.393  17.445  0.00  0.00    +0.000 N 
ATOM      8  C   UNL     1       2.919   7.003  18.318  0.00  0.00    +0.000 A 
ATOM      9  N   UNL     1       2.834   5.689  18.347  0.00  0.00    +0.000 NA
ATOM     10  C   UNL     1       3.793   5.216  17.482  0.00  0.00    +0.000 A 
ATOM     11  H   UNL     1       4.132   8.349  17.209  0.00  0.00    +0.000 HD
ENDROOT
BRANCH   8  12
ATOM     12  C   UNL     1       2.051   7.916  19.052  0.00  0.00    +0.000 A 
ATOM     13  C   UNL     1       1.537   9.039  18.391  0.00  0.00    +0.000 A 
ATOM     14  C   UNL     1       0.727   9.950  19.066  0.00  0.00    +0.000 A 
ATOM     15  C   UNL     1       0.396   9.749  20.413  0.00  0.00    +0.000 A 
ATOM     16  C   UNL     1       0.897   8.614  21.068  0.00  0.00    +0.000 A 
ATOM     17  C   UNL     1       1.715   7.703  20.393  0.00  0.00    +0.000 A 
BRANCH  15  18
ATOM     18  C   UNL     1      -0.467  10.737  21.155  0.00  0.00    +0.000 C 
ATOM     19  C   UNL     1      -1.322  11.617  20.254  0.00  0.00    +0.000 C 
ATOM     20  C   UNL     1      -1.668  12.781  21.163  0.00  0.00    +0.000 C 
ATOM     21  C   UNL     1      -0.490  12.889  22.121  0.00  0.00    +0.000 C 
ATOM     22  N   UNL     1       0.343  11.711  21.896  0.00  0.00    +0.000 NA
ATOM     23  H   UNL     1       0.672  11.308  22.770  0.00  0.00    +0.000 HD
ENDBRANCH  15  18
ENDBRANCH   8  12
BRANCH   1  25
ATOM     24  N   UNL     1       4.024   1.974  18.613  0.00  0.00    +0.000 N 
ATOM     25  C   UNL     1       3.371   2.747  17.695  0.00  0.00    +0.000 C 
ATOM     26  O   UNL     1       2.216   2.516  17.369  0.00  0.00    +0.000 OA
ATOM     27  H   UNL     1       3.541   1.209  19.060  0.00  0.00    +0.000 HD
ATOM     28  H   UNL     1       4.978   2.194  18.900  0.00  0.00    +0.000 HD
ENDBRANCH   1  25
TORSDOF 3
ENDMDL
MODEL 2
REMARK VINA RESULT:      -8.4      1.042      1.194
REMARK  Name = 
REMARK  3 active torsions:
REMARK  status: ('A' for Active; 'I' for Inactive)
REMARK    1  A    between atoms: C_2  and  C_4
REMARK    2  A    between atoms: C_11  and  C_12
REMARK    3  A    between atoms: C_15  and  C_16
REMARK                            x       y       z     vdW  Elec       q    Type
REMARK                         _______ _______ _______ _____ _____    ______ ____
ROOT
ATOM      1  C   UNL     1       3.572   3.960  17.727  0.00  0.00    +0.000 A 
ATOM      2  C   UNL     1       4.513   3.641  16.735  0.00  0.00    +0.000 A 
ATOM      3  C   UNL     1       5.186   4.656  16.052  0.00  0.00    +0.000 A 
ATOM      4 CL   UNL     1       6.332   4.237  14.834  0.00  0.00    +0.000 Cl
ATOM      5  C   UNL     1       4.954   6.011  16.318  0.00  0.00    +0.000 A 
ATOM      6  C   UNL     1       4.019   6.298  17.314  0.00  0.00    +0.000 A 
ATOM      7  N   UNL     1       3.537   7.476  17.825  0.00  0.00    +0.000 N 
ATOM      8  C   UNL     1       2.608   7.190  18.798  0.00  0.00    +0.000 A 
ATOM      9  N   UNL     1       2.471   5.886  18.923  0.00  0.00    +0.000 NA
ATOM     10  C   UNL     1       3.334   5.314  18.018  0.00  0.00    +0.000 A 
ATOM     11  H   UNL     1       3.781   8.404  17.508  0.00  0.00    +0.000 HD
ENDROOT
BRANCH   8  12
ATOM     12  C   UNL     1       1.842   8.188  19.536  0.00  0.00    +0.000 A 
ATOM     13  C   UNL     1       1.440   9.356  18.875  0.00  0.00    +0.000 A 
ATOM     14  C   UNL     1       0.731  10.346  19.553  0.00  0.00    +0.000 A 
ATOM     15  C   UNL     1       0.391  10.183  20.903  0.00  0.00    +0.000 A 
ATOM     16  C   UNL     1       0.780   9.004  21.557  0.00  0.00    +0.000 A 
ATOM     17  C   UNL     1       1.496   8.014  20.880  0.00  0.00    +0.000 A 
BRANCH  15  18
ATOM     18  C   UNL     1      -0.361  11.255  21.648  0.00  0.00    +0.000 C 
ATOM     19  C   UNL     1      -1.051  10.765  22.915  0.00  0.00    +0.000 C 
ATOM     20  C   UNL     1      -2.086  11.846  23.164  0.00  0.00    +0.000 C 
ATOM     21  C   UNL     1      -2.430  12.381  21.780  0.00  0.00    +0.000 C 
ATOM     22  N   UNL     1      -1.472  11.787  20.851  0.00  0.00    +0.000 NA
ATOM     23  H   UNL     1      -1.130  12.466  20.175  0.00  0.00    +0.000 HD
ENDBRANCH  15  18
ENDBRANCH   8  12
BRANCH   1  25
ATOM     24  N   UNL     1       2.895   2.873  19.795  0.00  0.00    +0.000 N 
ATOM     25  C   UNL     1       2.829   2.887  18.430  0.00  0.00    +0.000 C 
ATOM     26  O   UNL     1       2.172   2.062  17.812  0.00  0.00    +0.000 OA
ATOM     27  H   UNL     1       2.369   2.189  20.316  0.00  0.00    +0.000 HD
ATOM     28  H   UNL     1       3.423   3.584  20.301  0.00  0.00    +0.000 HD
ENDBRANCH   1  25
TORSDOF 3
ENDMDL
MODEL 3
REMARK VINA RESULT:      -8.3      1.179      1.669
REMARK  Name = 
REMARK  3 active torsions:
REMARK  status: ('A' for Active; 'I' for Inactive)
REMARK    1  A    between atoms: C_2  and  C_4
REMARK    2  A    between atoms: C_11  and  C_12
REMARK    3  A    between atoms: C_15  and  C_16
REMARK                            x       y       z     vdW  Elec       q    Type
REMARK                         _______ _______ _______ _____ _____    ______ ____
ROOT
ATOM      1  C   UNL     1       3.355   3.839  18.034  0.00  0.00    +0.000 A 
ATOM      2  C   UNL     1       4.271   3.427  17.052  0.00  0.00    +0.000 A 
ATOM      3  C   UNL     1       4.972   4.374  16.303  0.00  0.00    +0.000 A 
ATOM      4 CL   UNL     1       6.086   3.842  15.100  0.00  0.00    +0.000 Cl
ATOM      5  C   UNL     1       4.795   5.750  16.492  0.00  0.00    +0.000 A 
ATOM      6  C   UNL     1       3.884   6.130  17.480  0.00  0.00    +0.000 A 
ATOM      7  N   UNL     1       3.453   7.353  17.926  0.00  0.00    +0.000 N 
ATOM      8  C   UNL     1       2.527   7.160  18.924  0.00  0.00    +0.000 A 
ATOM      9  N   UNL     1       2.343   5.871  19.126  0.00  0.00    +0.000 NA
ATOM     10  C   UNL     1       3.172   5.215  18.247  0.00  0.00    +0.000 A 
ATOM     11  H   UNL     1       3.728   8.251  17.553  0.00  0.00    +0.000 HD
ENDROOT
BRANCH   8  12
ATOM     12  C   UNL     1       1.809   8.227  19.610  0.00  0.00    +0.000 A 
ATOM     13  C   UNL     1       1.490   8.066  20.965  0.00  0.00    +0.000 A 
ATOM     14  C   UNL     1       0.780   9.050  21.648  0.00  0.00    +0.000 A 
ATOM     15  C   UNL     1       0.388  10.229  20.998  0.00  0.00    +0.000 A 
ATOM     16  C   UNL     1       0.724  10.396  19.647  0.00  0.00    +0.000 A 
ATOM     17  C   UNL     1       1.431   9.406  18.958  0.00  0.00    +0.000 A 
BRANCH  15  18
ATOM     18  C   UNL     1      -0.394  11.292  21.725  0.00  0.00    +0.000 C 
ATOM     19  C   UNL     1      -1.120  10.791  22.967  0.00  0.00    +0.000 C 
ATOM     20  C   UNL     1      -2.169  11.864  23.190  0.00  0.00    +0.000 C 
ATOM     21  C   UNL     1      -2.473  12.404  21.799  0.00  0.00    +0.000 C 
ATOM     22  N   UNL     1      -1.483  11.822  20.897  0.00  0.00    +0.000 NA
ATOM     23  H   UNL     1      -1.125  12.507  20.235  0.00  0.00    +0.000 HD
ENDBRANCH  15  18
ENDBRANCH   8  12
BRANCH   1  25
ATOM     24  N   UNL     1       2.834   2.753  20.147  0.00  0.00    +0.000 N 
ATOM     25  C   UNL     1       2.582   2.837  18.807  0.00  0.00    +0.000 C 
ATOM     26  O   UNL     1       1.742   2.131  18.267  0.00  0.00    +0.000 OA
ATOM     27  H   UNL     1       2.300   2.117  20.719  0.00  0.00    +0.000 HD
ATOM     28  H   UNL     1       3.516   3.367  20.591  0.00  0.00    +0.000 HD
ENDBRANCH   1  25
TORSDOF 3
ENDMDL
MODEL 4
REMARK VINA RESULT:      -8.3      2.227      2.897
REMARK  Name = 
REMARK  3 active torsions:
REMARK  status: ('A' for Active; 'I' for Inactive)
REMARK    1  A    between atoms: C_2  and  C_4
REMARK    2  A    between atoms: C_11  and  C_12
REMARK    3  A    between atoms: C_15  and  C_16
REMARK                            x       y       z     vdW  Elec       q    Type
REMARK                         _______ _______ _______ _____ _____    ______ ____
ROOT
ATOM      1  C   UNL     1       2.586   4.297  19.989  0.00  0.00    +0.000 A 
ATOM      2  C   UNL     1       3.406   3.833  18.948  0.00  0.00    +0.000 A 
ATOM      3  C   UNL     1       3.880   4.718  17.978  0.00  0.00    +0.000 A 
ATOM      4 CL   UNL     1       4.880   4.121  16.707  0.00  0.00    +0.000 Cl
ATOM      5  C   UNL     1       3.562   6.082  17.998  0.00  0.00    +0.000 A 
ATOM      6  C   UNL     1       2.752   6.516  19.049  0.00  0.00    +0.000 A 
ATOM      7  N   UNL     1       2.239   7.744  19.380  0.00  0.00    +0.000 N 
ATOM      8  C   UNL     1       1.485   7.615  20.522  0.00  0.00    +0.000 A 
ATOM      9  N   UNL     1       1.488   6.361  20.928  0.00  0.00    +0.000 NA
ATOM     10  C   UNL     1       2.266   5.665  20.034  0.00  0.00    +0.000 A 
ATOM     11  H   UNL     1       2.349   8.596  18.849  0.00  0.00    +0.000 HD
ENDROOT
BRANCH   8  12
ATOM     12  C   UNL     1       0.739   8.698  21.154  0.00  0.00    +0.000 A 
ATOM     13  C   UNL     1       0.233   9.729  20.351  0.00  0.00    +0.000 A 
ATOM     14  C   UNL     1      -0.460  10.795  20.919  0.00  0.00    +0.000 A 
ATOM     15  C   UNL     1      -0.680  10.847  22.303  0.00  0.00    +0.000 A 
ATOM     16  C   UNL     1      -0.188   9.805  23.102  0.00  0.00    +0.000 A 
ATOM     17  C   UNL     1       0.513   8.738  22.534  0.00  0.00    +0.000 A 
BRANCH  15  18
ATOM     18  C   UNL     1      -1.415  12.005  22.928  0.00  0.00    +0.000 C 
ATOM     19  C   UNL     1      -2.494  12.610  22.040  0.00  0.00    +0.000 C 
ATOM     20  C   UNL     1      -2.699  13.980  22.659  0.00  0.00    +0.000 C 
ATOM     21  C   UNL     1      -1.348  14.339  23.263  0.00  0.00    +0.000 C 
ATOM     22  N   UNL     1      -0.519  13.139  23.180  0.00  0.00    +0.000 NA
ATOM     23  H   UNL     1       0.015  12.988  24.033  0.00  0.00    +0.000 HD
ENDBRANCH  15  18
ENDBRANCH   8  12
BRANCH   1  25
ATOM     24  N   UNL     1       0.733   3.012  20.898  0.00  0.00    +0.000 N 
ATOM     25  C   UNL     1       2.051   3.354  21.001  0.00  0.00    +0.000 C 
ATOM     26  O   UNL     1       2.767   2.891  21.877  0.00  0.00    +0.000 OA
ATOM     27  H   UNL     1       0.337   2.339  21.537  0.00  0.00    +0.000 HD
ATOM     28  H   UNL     1       0.152   3.383  20.146  0.00  0.00    +0.000 HD
ENDBRANCH   1  25
TORSDOF 3
ENDMDL
MODEL 5
REMARK VINA RESULT:      -8.2      2.411      3.283
REMARK  Name = 
REMARK  3 active torsions:
REMARK  status: ('A' for Active; 'I' for Inactive)
REMARK    1  A    between atoms: C_2  and  C_4
REMARK    2  A    between atoms: C_11  and  C_12
REMARK    3  A    between atoms: C_15  and  C_16
REMARK                            x       y       z     vdW  Elec       q    Type
REMARK                         _______ _______ _______ _____ _____    ______ ____
ROOT
ATOM      1  C   UNL     1       2.334   4.574  19.996  0.00  0.00    +0.000 A 
ATOM      2  C   UNL     1       3.113   4.049  18.952  0.00  0.00    +0.000 A 
ATOM      3  C   UNL     1       3.626   4.892  17.964  0.00  0.00    +0.000 A 
ATOM      4 CL   UNL     1       4.574   4.221  16.690  0.00  0.00    +0.000 Cl
ATOM      5  C   UNL     1       3.388   6.272  17.969  0.00  0.00    +0.000 A 
ATOM      6  C   UNL     1       2.617   6.767  19.023  0.00  0.00    +0.000 A 
ATOM      7  N   UNL     1       2.179   8.026  19.342  0.00  0.00    +0.000 N 
ATOM      8  C   UNL     1       1.433   7.957  20.495  0.00  0.00    +0.000 A 
ATOM      9  N   UNL     1       1.369   6.711  20.918  0.00  0.00    +0.000 NA
ATOM     10  C   UNL     1       2.095   5.958  20.025  0.00  0.00    +0.000 A 
ATOM     11  H   UNL     1       2.332   8.863  18.798  0.00  0.00    +0.000 HD
ENDROOT
BRANCH   8  12
ATOM     12  C   UNL     1       0.759   9.090  21.119  0.00  0.00    +0.000 A 
ATOM     13  C   UNL     1       0.158   8.912  22.372  0.00  0.00    +0.000 A 
ATOM     14  C   UNL     1      -0.519   9.962  22.989  0.00  0.00    +0.000 A 
ATOM     15  C   UNL     1      -0.596  11.220  22.376  0.00  0.00    +0.000 A 
ATOM     16  C   UNL     1       0.022  11.400  21.129  0.00  0.00    +0.000 A 
ATOM     17  C   UNL     1       0.697  10.346  20.507  0.00  0.00    +0.000 A 
BRANCH  15  18
ATOM     18  C   UNL     1      -1.340  12.356  23.028  0.00  0.00    +0.000 C 
ATOM     19  C   UNL     1      -2.783  12.030  23.388  0.00  0.00    +0.000 C 
ATOM     20  C   UNL     1      -3.404  13.406  23.537  0.00  0.00    +0.000 C 
ATOM     21  C   UNL     1      -2.611  14.294  22.589  0.00  0.00    +0.000 C 
ATOM     22  N   UNL     1      -1.477  13.502  22.121  0.00  0.00    +0.000 NA
ATOM     23  H   UNL     1      -0.617  14.046  22.104  0.00  0.00    +0.000 HD
ENDBRANCH  15  18
ENDBRANCH   8  12
BRANCH   1  25
ATOM     24  N   UNL     1       0.597   3.030  20.711  0.00  0.00    +0.000 N 
ATOM     25  C   UNL     1       1.758   3.677  21.026  0.00  0.00    +0.000 C 
ATOM     26  O   UNL     1       2.311   3.512  22.104  0.00  0.00    +0.000 OA
ATOM     27  H   UNL     1       0.193   2.376  21.364  0.00  0.00    +0.000 HD
ATOM     28  H   UNL     1       0.160   3.153  19.798  0.00  0.00    +0.000 HD
ENDBRANCH   1  25
TORSDOF 3
ENDMDL
MODEL 6
REMARK VINA RESULT:      -8.2      0.759      1.244
REMARK  Name = 
REMARK  3 active torsions:
REMARK  status: ('A' for Active; 'I' for Inactive)
REMARK    1  A    between atoms: C_2  and  C_4
REMARK    2  A    between atoms: C_11  and  C_12
REMARK    3  A    between atoms: C_15  and  C_16
REMARK                            x       y       z     vdW  Elec       q    Type
REMARK                         _______ _______ _______ _____ _____    ______ ____
ROOT
ATOM      1  C   UNL     1       3.993   3.996  17.586  0.00  0.00    +0.000 A 
ATOM      2  C   UNL     1       4.973   3.706  16.623  0.00  0.00    +0.000 A 
ATOM      3  C   UNL     1       5.584   4.738  15.908  0.00  0.00    +0.000 A 
ATOM      4 CL   UNL     1       6.779   4.355  14.727  0.00  0.00    +0.000 Cl
ATOM      5  C   UNL     1       5.251   6.082  16.115  0.00  0.00    +0.000 A 
ATOM      6  C   UNL     1       4.280   6.341  17.084  0.00  0.00    +0.000 A 
ATOM      7  N   UNL     1       3.706   7.501  17.538  0.00  0.00    +0.000 N 
ATOM      8  C   UNL     1       2.782   7.188  18.507  0.00  0.00    +0.000 A 
ATOM      9  N   UNL     1       2.736   5.883  18.684  0.00  0.00    +0.000 NA
ATOM     10  C   UNL     1       3.654   5.340  17.817  0.00  0.00    +0.000 A 
ATOM     11  H   UNL     1       3.889   8.430  17.188  0.00  0.00    +0.000 HD
ENDROOT
BRANCH   8  12
ATOM     12  C   UNL     1       1.934   8.157  19.192  0.00  0.00    +0.000 A 
ATOM     13  C   UNL     1       1.616   7.945  20.540  0.00  0.00    +0.000 A 
ATOM     14  C   UNL     1       0.785   8.832  21.220  0.00  0.00    +0.000 A 
ATOM     15  C   UNL     1       0.268   9.964  20.575  0.00  0.00    +0.000 A 
ATOM     16  C   UNL     1       0.602  10.184  19.230  0.00  0.00    +0.000 A 
ATOM     17  C   UNL     1       1.430   9.290  18.545  0.00  0.00    +0.000 A 
BRANCH  15  18
ATOM     18  C   UNL     1      -0.644  10.920  21.299  0.00  0.00    +0.000 C 
ATOM     19  C   UNL     1      -1.470  11.810  20.379  0.00  0.00    +0.000 C 
ATOM     20  C   UNL     1      -1.877  12.946  21.298  0.00  0.00    +0.000 C 
ATOM     21  C   UNL     1      -0.746  13.048  22.313  0.00  0.00    +0.000 C 
ATOM     22  N   UNL     1       0.115  11.887  22.100  0.00  0.00    +0.000 NA
ATOM     23  H   UNL     1       0.409  11.468  22.979  0.00  0.00    +0.000 HD
ENDBRANCH  15  18
ENDBRANCH   8  12
BRANCH   1  25
ATOM     24  N   UNL     1       1.967   2.772  18.144  0.00  0.00    +0.000 N 
ATOM     25  C   UNL     1       3.316   2.900  18.321  0.00  0.00    +0.000 C 
ATOM     26  O   UNL     1       3.943   2.135  19.039  0.00  0.00    +0.000 OA
ATOM     27  H   UNL     1       1.472   2.014  18.589  0.00  0.00    +0.000 HD
ATOM     28  H   UNL     1       1.458   3.398  17.520  0.00  0.00    +0.000 HD
ENDBRANCH   1  25
TORSDOF 3
ENDMDL
MODEL 7
REMARK VINA RESULT:      -8.0      1.676      1.915
REMARK  Name = 
REMARK  3 active torsions:
REMARK  status: ('A' for Active; 'I' for Inactive)
REMARK    1  A    between atoms: C_2  and  C_4
REMARK    2  A    between atoms: C_11  and  C_12
REMARK    3  A    between atoms: C_15  and  C_16
REMARK                            x       y       z     vdW  Elec       q    Type
REMARK                         _______ _______ _______ _____ _____    ______ ____
ROOT
ATOM      1  C   UNL     1       3.546   3.942  18.981  0.00  0.00    +0.000 A 
ATOM      2  C   UNL     1       4.336   3.485  17.913  0.00  0.00    +0.000 A 
ATOM      3  C   UNL     1       4.722   4.362  16.898  0.00  0.00    +0.000 A 
ATOM      4 CL   UNL     1       5.687   3.774  15.596  0.00  0.00    +0.000 Cl
ATOM      5  C   UNL     1       4.343   5.710  16.897  0.00  0.00    +0.000 A 
ATOM      6  C   UNL     1       3.564   6.138  17.974  0.00  0.00    +0.000 A 
ATOM      7  N   UNL     1       3.011   7.351  18.297  0.00  0.00    +0.000 N 
ATOM      8  C   UNL     1       2.319   7.222  19.478  0.00  0.00    +0.000 A 
ATOM      9  N   UNL     1       2.399   5.982  19.916  0.00  0.00    +0.000 NA
ATOM     10  C   UNL     1       3.166   5.295  19.004  0.00  0.00    +0.000 A 
ATOM     11  H   UNL     1       3.057   8.191  17.739  0.00  0.00    +0.000 HD
ENDROOT
BRANCH   8  12
ATOM     12  C   UNL     1       1.555   8.288  20.116  0.00  0.00    +0.000 A 
ATOM     13  C   UNL     1       1.098   9.355  19.331  0.00  0.00    +0.000 A 
ATOM     14  C   UNL     1       0.390  10.406  19.908  0.00  0.00    +0.000 A 
ATOM     15  C   UNL     1       0.104  10.407  21.280  0.00  0.00    +0.000 A 
ATOM     16  C   UNL     1       0.547   9.329  22.060  0.00  0.00    +0.000 A 
ATOM     17  C   UNL     1       1.264   8.276  21.484  0.00  0.00    +0.000 A 
BRANCH  15  18
ATOM     18  C   UNL     1      -0.647  11.548  21.915  0.00  0.00    +0.000 C 
ATOM     19  C   UNL     1      -1.510  11.141  23.102  0.00  0.00    +0.000 C 
ATOM     20  C   UNL     1      -2.485  12.298  23.212  0.00  0.00    +0.000 C 
ATOM     21  C   UNL     1      -2.630  12.820  21.790  0.00  0.00    +0.000 C 
ATOM     22  N   UNL     1      -1.619  12.137  20.987  0.00  0.00    +0.000 NA
ATOM     23  H   UNL     1      -1.155  12.773  20.343  0.00  0.00    +0.000 HD
ENDBRANCH  15  18
ENDBRANCH   8  12
BRANCH   1  25
ATOM     24  N   UNL     1       1.760   2.906  20.264  0.00  0.00    +0.000 N 
ATOM     25  C   UNL     1       3.104   3.006  20.042  0.00  0.00    +0.000 C 
ATOM     26  O   UNL     1       3.909   2.340  20.676  0.00  0.00    +0.000 OA
ATOM     27  H   UNL     1       1.411   2.249  20.945  0.00  0.00    +0.000 HD
ATOM     28  H   UNL     1       1.095   3.445  19.709  0.00  0.00    +0.000 HD
ENDBRANCH   1  25
TORSDOF 3
ENDMDL
MODEL 8
REMARK VINA RESULT:      -8.0      3.764      8.764
REMARK  Name = 
REMARK  3 active torsions:
REMARK  status: ('A' for Active; 'I' for Inactive)
REMARK    1  A    between atoms: C_2  and  C_4
REMARK    2  A    between atoms: C_11  and  C_12
REMARK    3  A    between atoms: C_15  and  C_16
REMARK                            x       y       z     vdW  Elec       q    Type
REMARK                         _______ _______ _______ _____ _____    ______ ____
ROOT
ATOM      1  C   UNL     1       0.947   9.985  19.663  0.00  0.00    +0.000 A 
ATOM      2  C   UNL     1       0.311  10.126  20.907  0.00  0.00    +0.000 A 
ATOM      3  C   UNL     1       0.406   9.114  21.864  0.00  0.00    +0.000 A 
ATOM      4 CL   UNL     1      -0.389   9.310  23.381  0.00  0.00    +0.000 Cl
ATOM      5  C   UNL     1       1.123   7.935  21.630  0.00  0.00    +0.000 A 
ATOM      6  C   UNL     1       1.751   7.825  20.387  0.00  0.00    +0.000 A 
ATOM      7  N   UNL     1       2.510   6.837  19.814  0.00  0.00    +0.000 N 
ATOM      8  C   UNL     1       2.877   7.238  18.551  0.00  0.00    +0.000 A 
ATOM      9  N   UNL     1       2.380   8.430  18.292  0.00  0.00    +0.000 NA
ATOM     10  C   UNL     1       1.682   8.813  19.413  0.00  0.00    +0.000 A 
ATOM     11  H   UNL     1       2.725   5.940  20.225  0.00  0.00    +0.000 HD
ENDROOT
BRANCH   8  12
ATOM     12  C   UNL     1       3.651   6.430  17.614  0.00  0.00    +0.000 A 
ATOM     13  C   UNL     1       4.515   7.075  16.719  0.00  0.00    +0.000 A 
ATOM     14  C   UNL     1       5.249   6.341  15.790  0.00  0.00    +0.000 A 
ATOM     15  C   UNL     1       5.151   4.944  15.746  0.00  0.00    +0.000 A 
ATOM     16  C   UNL     1       4.299   4.299  16.655  0.00  0.00    +0.000 A 
ATOM     17  C   UNL     1       3.557   5.035  17.584  0.00  0.00    +0.000 A 
BRANCH  15  18
ATOM     18  C   UNL     1       5.930   4.143  14.734  0.00  0.00    +0.000 C 
ATOM     19  C   UNL     1       7.049   4.921  14.053  0.00  0.00    +0.000 C 
ATOM     20  C   UNL     1       7.308   4.098  12.805  0.00  0.00    +0.000 C 
ATOM     21  C   UNL     1       5.966   3.456  12.478  0.00  0.00    +0.000 C 
ATOM     22  N   UNL     1       5.084   3.728  13.609  0.00  0.00    +0.000 NA
ATOM     23  H   UNL     1       4.532   2.912  13.863  0.00  0.00    +0.000 HD
ENDBRANCH  15  18
ENDBRANCH   8  12
BRANCH   1  25
ATOM     24  N   UNL     1       1.938  11.346  17.908  0.00  0.00    +0.000 N 
ATOM     25  C   UNL     1       0.819  11.041  18.630  0.00  0.00    +0.000 C 
ATOM     26  O   UNL     1      -0.249  11.598  18.422  0.00  0.00    +0.000 OA
ATOM     27  H   UNL     1       1.887  12.026  17.165  0.00  0.00    +0.000 HD
ATOM     28  H   UNL     1       2.817  10.854  18.070  0.00  0.00    +0.000 HD
ENDBRANCH   1  25
TORSDOF 3
ENDMDL
MODEL 9
REMARK VINA RESULT:      -7.9      4.267      8.977
REMARK  Name = 
REMARK  3 active torsions:
REMARK  status: ('A' for Active; 'I' for Inactive)
REMARK    1  A    between atoms: C_2  and  C_4
REMARK    2  A    between atoms: C_11  and  C_12
REMARK    3  A    between atoms: C_15  and  C_16
REMARK                            x       y       z     vdW  Elec       q    Type
REMARK                         _______ _______ _______ _____ _____    ______ ____
ROOT
ATOM      1  C   UNL     1      -1.787  11.738  19.555  0.00  0.00    +0.000 A 
ATOM      2  C   UNL     1      -2.329  12.449  20.638  0.00  0.00    +0.000 A 
ATOM      3  C   UNL     1      -1.804  12.285  21.921  0.00  0.00    +0.000 A 
ATOM      4 CL   UNL     1      -2.492  13.164  23.234  0.00  0.00    +0.000 Cl
ATOM      5  C   UNL     1      -0.734  11.419  22.181  0.00  0.00    +0.000 A 
ATOM      6  C   UNL     1      -0.210  10.732  21.084  0.00  0.00    +0.000 A 
ATOM      7  N   UNL     1       0.803   9.816  20.960  0.00  0.00    +0.000 N 
ATOM      8  C   UNL     1       0.901   9.441  19.640  0.00  0.00    +0.000 A 
ATOM      9  N   UNL     1      -0.009  10.069  18.923  0.00  0.00    +0.000 NA
ATOM     10  C   UNL     1      -0.705  10.873  19.794  0.00  0.00    +0.000 A 
ATOM     11  H   UNL     1       1.356   9.436  21.714  0.00  0.00    +0.000 HD
ENDROOT
BRANCH   8  12
ATOM     12  C   UNL     1       1.833   8.445  19.126  0.00  0.00    +0.000 A 
ATOM     13  C   UNL     1       2.095   7.303  19.894  0.00  0.00    +0.000 A 
ATOM     14  C   UNL     1       3.001   6.342  19.450  0.00  0.00    +0.000 A 
ATOM     15  C   UNL     1       3.653   6.490  18.218  0.00  0.00    +0.000 A 
ATOM     16  C   UNL     1       3.375   7.626  17.442  0.00  0.00    +0.000 A 
ATOM     17  C   UNL     1       2.471   8.594  17.890  0.00  0.00    +0.000 A 
BRANCH  15  18
ATOM     18  C   UNL     1       4.646   5.464  17.737  0.00  0.00    +0.000 C 
ATOM     19  C   UNL     1       5.853   5.291  18.650  0.00  0.00    +0.000 C 
ATOM     20  C   UNL     1       6.866   4.632  17.733  0.00  0.00    +0.000 C 
ATOM     21  C   UNL     1       6.520   5.143  16.341  0.00  0.00    +0.000 C 
ATOM     22  N   UNL     1       5.251   5.856  16.459  0.00  0.00    +0.000 NA
ATOM     23  H   UNL     1       4.623   5.642  15.688  0.00  0.00    +0.000 HD
ENDBRANCH  15  18
ENDBRANCH   8  12
BRANCH   1  25
ATOM     24  N   UNL     1      -1.535  12.330  17.210  0.00  0.00    +0.000 N 
ATOM     25  C   UNL     1      -2.365  11.881  18.198  0.00  0.00    +0.000 C 
ATOM     26  O   UNL     1      -3.532  11.592  17.972  0.00  0.00    +0.000 OA
ATOM     27  H   UNL     1      -1.873  12.399  16.263  0.00  0.00    +0.000 HD
ATOM     28  H   UNL     1      -0.556  12.540  17.404  0.00  0.00    +0.000 HD
ENDBRANCH   1  25
TORSDOF 3
ENDMDL
