MODEL 1
REMARK VINA RESULT:      -7.8      0.000      0.000
REMARK  Name = 
REMARK  11 active torsions:
REMARK  status: ('A' for Active; 'I' for Inactive)
REMARK    1  A    between atoms: C_1  and  C_2
REMARK    2  A    between atoms: C_2  and  C_3
REMARK    3  A    between atoms: C_3  and  C_4
REMARK    4  A    between atoms: C_3  and  C_6
REMARK    5  A    between atoms: C_4  and  C_5
REMARK    6  A    between atoms: C_10  and  C_11
REMARK    7  A    between atoms: C_14  and  N_15
REMARK    8  A    between atoms: N_15  and  S_16
REMARK    9  A    between atoms: S_16  and  C_17
REMARK   10  A    between atoms: C_23  and  C_24
REMARK   11  A    between atoms: C_27  and  C_28
REMARK                            x       y       z     vdW  Elec       q    Type
REMARK                         _______ _______ _______ _____ _____    ______ ____
ROOT
ATOM      1  C   UNL     1       4.138   3.671  19.377  0.00  0.00    +0.000 C 
ATOM      2  O   UNL     1       5.177   3.018  19.279  0.00  0.00    +0.000 OA
ATOM      3  N   UNL     1       4.047   5.002  18.969  0.00  0.00    +0.000 N 
ATOM      4  N   UNL     1       2.935   5.753  19.241  0.00  0.00    +0.000 NA
ATOM      5  C   UNL     1       3.169   6.956  18.822  0.00  0.00    +0.000 C 
ATOM      6  C   UNL     1       4.514   7.183  18.189  0.00  0.00    +0.000 C 
ATOM      7  C   UNL     1       5.119   5.780  18.320  0.00  0.00    +0.000 C 
ENDROOT
BRANCH   7   8
ATOM      8  C   UNL     1       5.527   5.223  16.967  0.00  0.00    +0.000 A 
ATOM      9  C   UNL     1       4.559   4.745  16.069  0.00  0.00    +0.000 A 
ATOM     10  C   UNL     1       4.926   4.300  14.795  0.00  0.00    +0.000 A 
ATOM     11  C   UNL     1       6.268   4.304  14.400  0.00  0.00    +0.000 A 
ATOM     12  C   UNL     1       6.673   3.874  13.021  0.00  0.00    +0.000 C 
ATOM     13  C   UNL     1       7.241   4.726  15.310  0.00  0.00    +0.000 A 
ATOM     14  C   UNL     1       6.874   5.188  16.575  0.00  0.00    +0.000 A 
ENDBRANCH   7   8
BRANCH   5  15
ATOM     15  C   UNL     1       2.158   8.028  18.904  0.00  0.00    +0.000 A 
ATOM     16  C   UNL     1       1.515   8.325  20.109  0.00  0.00    +0.000 A 
ATOM     17  C   UNL     1       0.602   9.380  20.159  0.00  0.00    +0.000 A 
ATOM     18  C   UNL     1       0.326  10.132  19.019  0.00  0.00    +0.000 A 
ATOM     19  C   UNL     1       0.945   9.824  17.808  0.00  0.00    +0.000 A 
ATOM     20  C   UNL     1       1.860   8.766  17.750  0.00  0.00    +0.000 A 
BRANCH  18  21
ATOM     21  N   UNL     1      -0.574  11.225  19.146  0.00  0.00    +0.000 N 
ATOM     22  H   UNL     1      -0.723  11.598  20.087  0.00  0.00    +0.000 HD
BRANCH  21  23
ATOM     23  S   UNL     1      -2.024  11.177  18.278  0.00  0.00    +0.000 S 
ATOM     24  C   UNL     1      -3.109  12.078  19.367  0.00  0.00    +0.000 C 
ATOM     25  O   UNL     1      -1.884  11.912  17.038  0.00  0.00    +0.000 OA
ATOM     26  O   UNL     1      -2.436   9.799  18.291  0.00  0.00    +0.000 OA
ENDBRANCH  21  23
ENDBRANCH  18  21
ENDBRANCH   5  15
BRANCH   1  27
ATOM     27  C   UNL     1       2.812   3.033  19.874  0.00  0.00    +0.000 C 
BRANCH  27  29
ATOM     28  C   UNL     1       2.438   2.108  17.471  0.00  0.00    +0.000 C 
ATOM     29  C   UNL     1       2.530   1.807  18.963  0.00  0.00    +0.000 C 
ENDBRANCH  27  29
BRANCH  27  30
ATOM     30  C   UNL     1       2.864   2.600  21.355  0.00  0.00    +0.000 C 
ATOM     31  C   UNL     1       1.518   2.526  22.066  0.00  0.00    +0.000 C 
ENDBRANCH  27  30
ENDBRANCH   1  27
TORSDOF 7
ENDMDL
MODEL 2
REMARK VINA RESULT:      -7.8      1.137      1.297
REMARK  Name = 
REMARK  11 active torsions:
REMARK  status: ('A' for Active; 'I' for Inactive)
REMARK    1  A    between atoms: C_1  and  C_2
REMARK    2  A    between atoms: C_2  and  C_3
REMARK    3  A    between atoms: C_3  and  C_4
REMARK    4  A    between atoms: C_3  and  C_6
REMARK    5  A    between atoms: C_4  and  C_5
REMARK    6  A    between atoms: C_10  and  C_11
REMARK    7  A    between atoms: C_14  and  N_15
REMARK    8  A    between atoms: N_15  and  S_16
REMARK    9  A    between atoms: S_16  and  C_17
REMARK   10  A    between atoms: C_23  and  C_24
REMARK   11  A    between atoms: C_27  and  C_28
REMARK                            x       y       z     vdW  Elec       q    Type
REMARK                         _______ _______ _______ _____ _____    ______ ____
ROOT
ATOM      1  C   UNL     1       4.145   3.674  19.395  0.00  0.00    +0.000 C 
ATOM      2  O   UNL     1       5.190   3.030  19.297  0.00  0.00    +0.000 OA
ATOM      3  N   UNL     1       4.045   5.007  18.994  0.00  0.00    +0.000 N 
ATOM      4  N   UNL     1       2.925   5.746  19.266  0.00  0.00    +0.000 NA
ATOM      5  C   UNL     1       3.150   6.953  18.854  0.00  0.00    +0.000 C 
ATOM      6  C   UNL     1       4.495   7.196  18.227  0.00  0.00    +0.000 C 
ATOM      7  C   UNL     1       5.111   5.797  18.352  0.00  0.00    +0.000 C 
ENDROOT
BRANCH   7   8
ATOM      8  C   UNL     1       5.529   5.251  16.998  0.00  0.00    +0.000 A 
ATOM      9  C   UNL     1       4.571   4.745  16.105  0.00  0.00    +0.000 A 
ATOM     10  C   UNL     1       4.945   4.309  14.829  0.00  0.00    +0.000 A 
ATOM     11  C   UNL     1       6.285   4.351  14.428  0.00  0.00    +0.000 A 
ATOM     12  C   UNL     1       6.695   3.932  13.048  0.00  0.00    +0.000 C 
ATOM     13  C   UNL     1       7.249   4.802  15.333  0.00  0.00    +0.000 A 
ATOM     14  C   UNL     1       6.875   5.254  16.600  0.00  0.00    +0.000 A 
ENDBRANCH   7   8
BRANCH   5  15
ATOM     15  C   UNL     1       2.129   8.016  18.939  0.00  0.00    +0.000 A 
ATOM     16  C   UNL     1       1.534   8.352  20.158  0.00  0.00    +0.000 A 
ATOM     17  C   UNL     1       0.611   9.398  20.207  0.00  0.00    +0.000 A 
ATOM     18  C   UNL     1       0.276  10.102  19.051  0.00  0.00    +0.000 A 
ATOM     19  C   UNL     1       0.847   9.754  17.827  0.00  0.00    +0.000 A 
ATOM     20  C   UNL     1       1.772   8.705  17.771  0.00  0.00    +0.000 A 
BRANCH  18  21
ATOM     21  N   UNL     1      -0.632  11.188  19.175  0.00  0.00    +0.000 N 
ATOM     22  H   UNL     1      -1.482  11.150  18.607  0.00  0.00    +0.000 HD
BRANCH  21  23
ATOM     23  S   UNL     1      -0.007  12.758  19.224  0.00  0.00    +0.000 S 
ATOM     24  C   UNL     1      -0.880  13.434  20.624  0.00  0.00    +0.000 C 
ATOM     25  O   UNL     1       1.409  12.720  19.525  0.00  0.00    +0.000 OA
ATOM     26  O   UNL     1      -0.506  13.409  18.042  0.00  0.00    +0.000 OA
ENDBRANCH  21  23
ENDBRANCH  18  21
ENDBRANCH   5  15
BRANCH   1  27
ATOM     27  C   UNL     1       2.823   3.022  19.884  0.00  0.00    +0.000 C 
BRANCH  27  29
ATOM     28  C   UNL     1       2.420   2.114  17.479  0.00  0.00    +0.000 C 
ATOM     29  C   UNL     1       2.555   1.798  18.966  0.00  0.00    +0.000 C 
ENDBRANCH  27  29
BRANCH  27  30
ATOM     30  C   UNL     1       2.875   2.581  21.363  0.00  0.00    +0.000 C 
ATOM     31  C   UNL     1       1.533   2.546  22.085  0.00  0.00    +0.000 C 
ENDBRANCH  27  30
ENDBRANCH   1  27
TORSDOF 7
ENDMDL
MODEL 3
REMARK VINA RESULT:      -7.5      1.037      1.681
REMARK  Name = 
REMARK  11 active torsions:
REMARK  status: ('A' for Active; 'I' for Inactive)
REMARK    1  A    between atoms: C_1  and  C_2
REMARK    2  A    between atoms: C_2  and  C_3
REMARK    3  A    between atoms: C_3  and  C_4
REMARK    4  A    between atoms: C_3  and  C_6
REMARK    5  A    between atoms: C_4  and  C_5
REMARK    6  A    between atoms: C_10  and  C_11
REMARK    7  A    between atoms: C_14  and  N_15
REMARK    8  A    between atoms: N_15  and  S_16
REMARK    9  A    between atoms: S_16  and  C_17
REMARK   10  A    between atoms: C_23  and  C_24
REMARK   11  A    between atoms: C_27  and  C_28
REMARK                            x       y       z     vdW  Elec       q    Type
REMARK                         _______ _______ _______ _____ _____    ______ ____
ROOT
ATOM      1  C   UNL     1       4.129   3.807  19.404  0.00  0.00    +0.000 C 
ATOM      2  O   UNL     1       5.183   3.177  19.315  0.00  0.00    +0.000 OA
ATOM      3  N   UNL     1       4.022   5.149  19.037  0.00  0.00    +0.000 N 
ATOM      4  N   UNL     1       2.887   5.868  19.301  0.00  0.00    +0.000 NA
ATOM      5  C   UNL     1       3.109   7.088  18.928  0.00  0.00    +0.000 C 
ATOM      6  C   UNL     1       4.466   7.363  18.343  0.00  0.00    +0.000 C 
ATOM      7  C   UNL     1       5.096   5.968  18.446  0.00  0.00    +0.000 C 
ENDROOT
BRANCH   7   8
ATOM      8  C   UNL     1       5.555   5.465  17.087  0.00  0.00    +0.000 A 
ATOM      9  C   UNL     1       6.768   4.771  16.955  0.00  0.00    +0.000 A 
ATOM     10  C   UNL     1       7.157   4.244  15.719  0.00  0.00    +0.000 A 
ATOM     11  C   UNL     1       6.353   4.418  14.587  0.00  0.00    +0.000 A 
ATOM     12  C   UNL     1       6.733   3.819  13.266  0.00  0.00    +0.000 C 
ATOM     13  C   UNL     1       5.172   5.157  14.703  0.00  0.00    +0.000 A 
ATOM     14  C   UNL     1       4.774   5.668  15.939  0.00  0.00    +0.000 A 
ENDBRANCH   7   8
BRANCH   5  15
ATOM     15  C   UNL     1       2.073   8.137  19.016  0.00  0.00    +0.000 A 
ATOM     16  C   UNL     1       1.648   8.830  17.880  0.00  0.00    +0.000 A 
ATOM     17  C   UNL     1       0.630   9.778  17.994  0.00  0.00    +0.000 A 
ATOM     18  C   UNL     1       0.042  10.040  19.230  0.00  0.00    +0.000 A 
ATOM     19  C   UNL     1       0.481   9.371  20.372  0.00  0.00    +0.000 A 
ATOM     20  C   UNL     1       1.503   8.420  20.265  0.00  0.00    +0.000 A 
BRANCH  18  21
ATOM     21  N   UNL     1      -1.023  10.980  19.273  0.00  0.00    +0.000 N 
ATOM     22  H   UNL     1      -1.814  10.817  18.644  0.00  0.00    +0.000 HD
BRANCH  21  23
ATOM     23  S   UNL     1      -0.642  12.625  19.350  0.00  0.00    +0.000 S 
ATOM     24  C   UNL     1      -2.043  13.264  20.247  0.00  0.00    +0.000 C 
ATOM     25  O   UNL     1       0.555  12.821  20.142  0.00  0.00    +0.000 OA
ATOM     26  O   UNL     1      -0.733  13.106  17.997  0.00  0.00    +0.000 OA
ENDBRANCH  21  23
ENDBRANCH  18  21
ENDBRANCH   5  15
BRANCH   1  27
ATOM     27  C   UNL     1       2.802   3.126  19.840  0.00  0.00    +0.000 C 
BRANCH  27  29
ATOM     28  C   UNL     1       2.558   2.279  17.392  0.00  0.00    +0.000 C 
ATOM     29  C   UNL     1       2.569   1.930  18.877  0.00  0.00    +0.000 C 
ENDBRANCH  27  29
BRANCH  27  30
ATOM     30  C   UNL     1       2.824   2.639  21.305  0.00  0.00    +0.000 C 
ATOM     31  C   UNL     1       1.460   2.500  21.971  0.00  0.00    +0.000 C 
ENDBRANCH  27  30
ENDBRANCH   1  27
TORSDOF 7
ENDMDL
MODEL 4
REMARK VINA RESULT:      -7.5      1.386      1.688
REMARK  Name = 
REMARK  11 active torsions:
REMARK  status: ('A' for Active; 'I' for Inactive)
REMARK    1  A    between atoms: C_1  and  C_2
REMARK    2  A    between atoms: C_2  and  C_3
REMARK    3  A    between atoms: C_3  and  C_4
REMARK    4  A    between atoms: C_3  and  C_6
REMARK    5  A    between atoms: C_4  and  C_5
REMARK    6  A    between atoms: C_10  and  C_11
REMARK    7  A    between atoms: C_14  and  N_15
REMARK    8  A    between atoms: N_15  and  S_16
REMARK    9  A    between atoms: S_16  and  C_17
REMARK   10  A    between atoms: C_23  and  C_24
REMARK   11  A    between atoms: C_27  and  C_28
REMARK                            x       y       z     vdW  Elec       q    Type
REMARK                         _______ _______ _______ _____ _____    ______ ____
ROOT
ATOM      1  C   UNL     1       4.073   3.711  19.396  0.00  0.00    +0.000 C 
ATOM      2  O   UNL     1       5.086   3.018  19.288  0.00  0.00    +0.000 OA
ATOM      3  N   UNL     1       4.021   5.036  18.964  0.00  0.00    +0.000 N 
ATOM      4  N   UNL     1       2.943   5.832  19.246  0.00  0.00    +0.000 NA
ATOM      5  C   UNL     1       3.211   7.017  18.798  0.00  0.00    +0.000 C 
ATOM      6  C   UNL     1       4.549   7.184  18.130  0.00  0.00    +0.000 C 
ATOM      7  C   UNL     1       5.105   5.762  18.275  0.00  0.00    +0.000 C 
ENDROOT
BRANCH   7   8
ATOM      8  C   UNL     1       5.461   5.165  16.924  0.00  0.00    +0.000 A 
ATOM      9  C   UNL     1       4.487   4.515  16.150  0.00  0.00    +0.000 A 
ATOM     10  C   UNL     1       4.795   4.029  14.876  0.00  0.00    +0.000 A 
ATOM     11  C   UNL     1       6.088   4.164  14.358  0.00  0.00    +0.000 A 
ATOM     12  C   UNL     1       6.422   3.690  12.974  0.00  0.00    +0.000 C 
ATOM     13  C   UNL     1       7.075   4.760  15.147  0.00  0.00    +0.000 A 
ATOM     14  C   UNL     1       6.764   5.261  16.412  0.00  0.00    +0.000 A 
ENDBRANCH   7   8
BRANCH   5  15
ATOM     15  C   UNL     1       2.241   8.128  18.882  0.00  0.00    +0.000 A 
ATOM     16  C   UNL     1       1.982   8.946  17.779  0.00  0.00    +0.000 A 
ATOM     17  C   UNL     1       1.020   9.952  17.882  0.00  0.00    +0.000 A 
ATOM     18  C   UNL     1       0.324  10.148  19.074  0.00  0.00    +0.000 A 
ATOM     19  C   UNL     1       0.598   9.351  20.185  0.00  0.00    +0.000 A 
ATOM     20  C   UNL     1       1.563   8.342  20.090  0.00  0.00    +0.000 A 
BRANCH  18  21
ATOM     21  N   UNL     1      -0.677  11.156  19.100  0.00  0.00    +0.000 N 
ATOM     22  H   UNL     1      -1.206  11.310  18.238  0.00  0.00    +0.000 HD
BRANCH  21  23
ATOM     23  S   UNL     1      -0.322  12.624  19.861  0.00  0.00    +0.000 S 
ATOM     24  C   UNL     1      -0.360  13.748  18.478  0.00  0.00    +0.000 C 
ATOM     25  O   UNL     1      -1.381  12.975  20.783  0.00  0.00    +0.000 OA
ATOM     26  O   UNL     1       1.045  12.511  20.295  0.00  0.00    +0.000 OA
ENDBRANCH  21  23
ENDBRANCH  18  21
ENDBRANCH   5  15
BRANCH   1  27
ATOM     27  C   UNL     1       2.737   3.131  19.935  0.00  0.00    +0.000 C 
BRANCH  27  29
ATOM     28  C   UNL     1       0.801   2.120  18.521  0.00  0.00    +0.000 C 
ATOM     29  C   UNL     1       2.271   2.049  18.923  0.00  0.00    +0.000 C 
ENDBRANCH  27  29
BRANCH  27  30
ATOM     30  C   UNL     1       2.866   2.523  21.348  0.00  0.00    +0.000 C 
ATOM     31  C   UNL     1       1.567   2.413  22.138  0.00  0.00    +0.000 C 
ENDBRANCH  27  30
ENDBRANCH   1  27
TORSDOF 7
ENDMDL
MODEL 5
REMARK VINA RESULT:      -7.5      0.515      1.242
REMARK  Name = 
REMARK  11 active torsions:
REMARK  status: ('A' for Active; 'I' for Inactive)
REMARK    1  A    between atoms: C_1  and  C_2
REMARK    2  A    between atoms: C_2  and  C_3
REMARK    3  A    between atoms: C_3  and  C_4
REMARK    4  A    between atoms: C_3  and  C_6
REMARK    5  A    between atoms: C_4  and  C_5
REMARK    6  A    between atoms: C_10  and  C_11
REMARK    7  A    between atoms: C_14  and  N_15
REMARK    8  A    between atoms: N_15  and  S_16
REMARK    9  A    between atoms: S_16  and  C_17
REMARK   10  A    between atoms: C_23  and  C_24
REMARK   11  A    between atoms: C_27  and  C_28
REMARK                            x       y       z     vdW  Elec       q    Type
REMARK                         _______ _______ _______ _____ _____    ______ ____
ROOT
ATOM      1  C   UNL     1       4.052   3.914  19.375  0.00  0.00    +0.000 C 
ATOM      2  O   UNL     1       5.108   3.285  19.300  0.00  0.00    +0.000 OA
ATOM      3  N   UNL     1       3.944   5.248  18.980  0.00  0.00    +0.000 N 
ATOM      4  N   UNL     1       2.807   5.970  19.228  0.00  0.00    +0.000 NA
ATOM      5  C   UNL     1       3.026   7.183  18.830  0.00  0.00    +0.000 C 
ATOM      6  C   UNL     1       4.384   7.448  18.240  0.00  0.00    +0.000 C 
ATOM      7  C   UNL     1       5.016   6.057  18.372  0.00  0.00    +0.000 C 
ENDROOT
BRANCH   7   8
ATOM      8  C   UNL     1       5.477   5.527  17.025  0.00  0.00    +0.000 A 
ATOM      9  C   UNL     1       6.505   4.574  16.946  0.00  0.00    +0.000 A 
ATOM     10  C   UNL     1       6.880   4.031  15.713  0.00  0.00    +0.000 A 
ATOM     11  C   UNL     1       6.252   4.444  14.533  0.00  0.00    +0.000 A 
ATOM     12  C   UNL     1       6.610   3.837  13.209  0.00  0.00    +0.000 C 
ATOM     13  C   UNL     1       5.267   5.433  14.601  0.00  0.00    +0.000 A 
ATOM     14  C   UNL     1       4.879   5.962  15.833  0.00  0.00    +0.000 A 
ENDBRANCH   7   8
BRANCH   5  15
ATOM     15  C   UNL     1       1.989   8.232  18.895  0.00  0.00    +0.000 A 
ATOM     16  C   UNL     1       1.630   8.965  17.762  0.00  0.00    +0.000 A 
ATOM     17  C   UNL     1       0.608   9.912  17.851  0.00  0.00    +0.000 A 
ATOM     18  C   UNL     1      -0.049  10.133  19.060  0.00  0.00    +0.000 A 
ATOM     19  C   UNL     1       0.322   9.422  20.201  0.00  0.00    +0.000 A 
ATOM     20  C   UNL     1       1.347   8.472  20.119  0.00  0.00    +0.000 A 
BRANCH  18  21
ATOM     21  N   UNL     1      -1.114  11.074  19.075  0.00  0.00    +0.000 N 
ATOM     22  H   UNL     1      -1.465  11.365  19.991  0.00  0.00    +0.000 HD
BRANCH  21  23
ATOM     23  S   UNL     1      -2.384  10.870  17.978  0.00  0.00    +0.000 S 
ATOM     24  C   UNL     1      -3.693  11.764  18.793  0.00  0.00    +0.000 C 
ATOM     25  O   UNL     1      -2.071  11.528  16.727  0.00  0.00    +0.000 OA
ATOM     26  O   UNL     1      -2.715   9.470  18.027  0.00  0.00    +0.000 OA
ENDBRANCH  21  23
ENDBRANCH  18  21
ENDBRANCH   5  15
BRANCH   1  27
ATOM     27  C   UNL     1       2.727   3.241  19.825  0.00  0.00    +0.000 C 
BRANCH  27  29
ATOM     28  C   UNL     1       2.495   2.346  17.393  0.00  0.00    +0.000 C 
ATOM     29  C   UNL     1       2.494   2.026  18.885  0.00  0.00    +0.000 C 
ENDBRANCH  27  29
BRANCH  27  30
ATOM     30  C   UNL     1       2.750   2.781  21.298  0.00  0.00    +0.000 C 
ATOM     31  C   UNL     1       1.386   2.520  21.927  0.00  0.00    +0.000 C 
ENDBRANCH  27  30
ENDBRANCH   1  27
TORSDOF 7
ENDMDL
MODEL 6
REMARK VINA RESULT:      -7.4      1.742      2.288
REMARK  Name = 
REMARK  11 active torsions:
REMARK  status: ('A' for Active; 'I' for Inactive)
REMARK    1  A    between atoms: C_1  and  C_2
REMARK    2  A    between atoms: C_2  and  C_3
REMARK    3  A    between atoms: C_3  and  C_4
REMARK    4  A    between atoms: C_3  and  C_6
REMARK    5  A    between atoms: C_4  and  C_5
REMARK    6  A    between atoms: C_10  and  C_11
REMARK    7  A    between atoms: C_14  and  N_15
REMARK    8  A    between atoms: N_15  and  S_16
REMARK    9  A    between atoms: S_16  and  C_17
REMARK   10  A    between atoms: C_23  and  C_24
REMARK   11  A    between atoms: C_27  and  C_28
REMARK                            x       y       z     vdW  Elec       q    Type
REMARK                         _______ _______ _______ _____ _____    ______ ____
ROOT
ATOM      1  C   UNL     1       4.228   3.071  19.660  0.00  0.00    +0.000 C 
ATOM      2  O   UNL     1       5.264   2.434  19.470  0.00  0.00    +0.000 OA
ATOM      3  N   UNL     1       4.128   4.438  19.394  0.00  0.00    +0.000 N 
ATOM      4  N   UNL     1       3.022   5.153  19.769  0.00  0.00    +0.000 NA
ATOM      5  C   UNL     1       3.247   6.394  19.471  0.00  0.00    +0.000 C 
ATOM      6  C   UNL     1       4.577   6.689  18.835  0.00  0.00    +0.000 C 
ATOM      7  C   UNL     1       5.184   5.281  18.805  0.00  0.00    +0.000 C 
ENDROOT
BRANCH   7   8
ATOM      8  C   UNL     1       5.561   4.869  17.392  0.00  0.00    +0.000 A 
ATOM      9  C   UNL     1       4.575   4.465  16.478  0.00  0.00    +0.000 A 
ATOM     10  C   UNL     1       4.911   4.156  15.156  0.00  0.00    +0.000 A 
ATOM     11  C   UNL     1       6.241   4.223  14.727  0.00  0.00    +0.000 A 
ATOM     12  C   UNL     1       6.611   3.939  13.301  0.00  0.00    +0.000 C 
ATOM     13  C   UNL     1       7.233   4.570  15.647  0.00  0.00    +0.000 A 
ATOM     14  C   UNL     1       6.896   4.897  16.962  0.00  0.00    +0.000 A 
ENDBRANCH   7   8
BRANCH   5  15
ATOM     15  C   UNL     1       2.237   7.449  19.688  0.00  0.00    +0.000 A 
ATOM     16  C   UNL     1       1.526   7.534  20.888  0.00  0.00    +0.000 A 
ATOM     17  C   UNL     1       0.617   8.576  21.076  0.00  0.00    +0.000 A 
ATOM     18  C   UNL     1       0.413   9.527  20.077  0.00  0.00    +0.000 A 
ATOM     19  C   UNL     1       1.101   9.432  18.867  0.00  0.00    +0.000 A 
ATOM     20  C   UNL     1       2.012   8.388  18.671  0.00  0.00    +0.000 A 
BRANCH  18  21
ATOM     21  N   UNL     1      -0.488  10.592  20.347  0.00  0.00    +0.000 N 
ATOM     22  H   UNL     1      -0.947  11.029  19.544  0.00  0.00    +0.000 HD
BRANCH  21  23
ATOM     23  S   UNL     1      -0.041  11.753  21.492  0.00  0.00    +0.000 S 
ATOM     24  C   UNL     1      -1.148  13.088  21.083  0.00  0.00    +0.000 C 
ATOM     25  O   UNL     1      -0.347  11.279  22.826  0.00  0.00    +0.000 OA
ATOM     26  O   UNL     1       1.290  12.161  21.128  0.00  0.00    +0.000 OA
ENDBRANCH  21  23
ENDBRANCH  18  21
ENDBRANCH   5  15
BRANCH   1  27
ATOM     27  C   UNL     1       2.914   2.382  20.117  0.00  0.00    +0.000 C 
BRANCH  27  29
ATOM     28  C   UNL     1       1.186   2.641  22.045  0.00  0.00    +0.000 C 
ATOM     29  C   UNL     1       2.605   2.899  21.549  0.00  0.00    +0.000 C 
ENDBRANCH  27  29
BRANCH  27  30
ATOM     30  C   UNL     1       1.722   2.664  19.177  0.00  0.00    +0.000 C 
ATOM     31  C   UNL     1       1.935   2.292  17.715  0.00  0.00    +0.000 C 
ENDBRANCH  27  30
ENDBRANCH   1  27
TORSDOF 7
ENDMDL
MODEL 7
REMARK VINA RESULT:      -7.2      3.121      9.567
REMARK  Name = 
REMARK  11 active torsions:
REMARK  status: ('A' for Active; 'I' for Inactive)
REMARK    1  A    between atoms: C_1  and  C_2
REMARK    2  A    between atoms: C_2  and  C_3
REMARK    3  A    between atoms: C_3  and  C_4
REMARK    4  A    between atoms: C_3  and  C_6
REMARK    5  A    between atoms: C_4  and  C_5
REMARK    6  A    between atoms: C_10  and  C_11
REMARK    7  A    between atoms: C_14  and  N_15
REMARK    8  A    between atoms: N_15  and  S_16
REMARK    9  A    between atoms: S_16  and  C_17
REMARK   10  A    between atoms: C_23  and  C_24
REMARK   11  A    between atoms: C_27  and  C_28
REMARK                            x       y       z     vdW  Elec       q    Type
REMARK                         _______ _______ _______ _____ _____    ______ ____
ROOT
ATOM      1  C   UNL     1      -1.508  11.424  17.905  0.00  0.00    +0.000 C 
ATOM      2  O   UNL     1      -1.872  12.592  18.040  0.00  0.00    +0.000 OA
ATOM      3  N   UNL     1      -0.436  10.885  18.618  0.00  0.00    +0.000 N 
ATOM      4  N   UNL     1       0.052   9.638  18.328  0.00  0.00    +0.000 NA
ATOM      5  C   UNL     1       1.085   9.444  19.085  0.00  0.00    +0.000 C 
ATOM      6  C   UNL     1       1.442  10.570  20.016  0.00  0.00    +0.000 C 
ATOM      7  C   UNL     1       0.350  11.583  19.652  0.00  0.00    +0.000 C 
ENDROOT
BRANCH   7   8
ATOM      8  C   UNL     1      -0.473  11.974  20.868  0.00  0.00    +0.000 A 
ATOM      9  C   UNL     1      -0.926  13.293  21.030  0.00  0.00    +0.000 A 
ATOM     10  C   UNL     1      -1.744  13.638  22.111  0.00  0.00    +0.000 A 
ATOM     11  C   UNL     1      -2.108  12.678  23.062  0.00  0.00    +0.000 A 
ATOM     12  C   UNL     1      -3.023  13.021  24.200  0.00  0.00    +0.000 C 
ATOM     13  C   UNL     1      -1.614  11.377  22.934  0.00  0.00    +0.000 A 
ATOM     14  C   UNL     1      -0.812  11.028  21.846  0.00  0.00    +0.000 A 
ENDBRANCH   7   8
BRANCH   5  15
ATOM     15  C   UNL     1       1.836   8.173  19.079  0.00  0.00    +0.000 A 
ATOM     16  C   UNL     1       1.736   7.269  20.140  0.00  0.00    +0.000 A 
ATOM     17  C   UNL     1       2.420   6.054  20.074  0.00  0.00    +0.000 A 
ATOM     18  C   UNL     1       3.203   5.741  18.965  0.00  0.00    +0.000 A 
ATOM     19  C   UNL     1       3.328   6.651  17.915  0.00  0.00    +0.000 A 
ATOM     20  C   UNL     1       2.646   7.872  17.975  0.00  0.00    +0.000 A 
BRANCH  18  21
ATOM     21  N   UNL     1       3.835   4.468  18.935  0.00  0.00    +0.000 N 
ATOM     22  H   UNL     1       4.814   4.442  18.638  0.00  0.00    +0.000 HD
BRANCH  21  23
ATOM     23  S   UNL     1       2.975   3.158  18.301  0.00  0.00    +0.000 S 
ATOM     24  C   UNL     1       2.345   2.405  19.788  0.00  0.00    +0.000 C 
ATOM     25  O   UNL     1       1.863   3.632  17.505  0.00  0.00    +0.000 OA
ATOM     26  O   UNL     1       3.969   2.274  17.751  0.00  0.00    +0.000 OA
ENDBRANCH  21  23
ENDBRANCH  18  21
ENDBRANCH   5  15
BRANCH   1  27
ATOM     27  C   UNL     1      -2.278  10.424  16.999  0.00  0.00    +0.000 C 
BRANCH  27  29
ATOM     28  C   UNL     1      -4.717  10.758  17.839  0.00  0.00    +0.000 C 
ATOM     29  C   UNL     1      -3.469   9.881  17.834  0.00  0.00    +0.000 C 
ENDBRANCH  27  29
BRANCH  27  30
ATOM     30  C   UNL     1      -2.788  11.062  15.689  0.00  0.00    +0.000 C 
ATOM     31  C   UNL     1      -3.056  10.092  14.545  0.00  0.00    +0.000 C 
ENDBRANCH  27  30
ENDBRANCH   1  27
TORSDOF 7
ENDMDL
MODEL 8
REMARK VINA RESULT:      -7.2      1.521      1.847
REMARK  Name = 
REMARK  11 active torsions:
REMARK  status: ('A' for Active; 'I' for Inactive)
REMARK    1  A    between atoms: C_1  and  C_2
REMARK    2  A    between atoms: C_2  and  C_3
REMARK    3  A    between atoms: C_3  and  C_4
REMARK    4  A    between atoms: C_3  and  C_6
REMARK    5  A    between atoms: C_4  and  C_5
REMARK    6  A    between atoms: C_10  and  C_11
REMARK    7  A    between atoms: C_14  and  N_15
REMARK    8  A    between atoms: N_15  and  S_16
REMARK    9  A    between atoms: S_16  and  C_17
REMARK   10  A    between atoms: C_23  and  C_24
REMARK   11  A    between atoms: C_27  and  C_28
REMARK                            x       y       z     vdW  Elec       q    Type
REMARK                         _______ _______ _______ _____ _____    ______ ____
ROOT
ATOM      1  C   UNL     1       4.127   3.759  19.183  0.00  0.00    +0.000 C 
ATOM      2  O   UNL     1       5.141   3.080  19.020  0.00  0.00    +0.000 OA
ATOM      3  N   UNL     1       4.056   5.102  18.811  0.00  0.00    +0.000 N 
ATOM      4  N   UNL     1       2.979   5.876  19.153  0.00  0.00    +0.000 NA
ATOM      5  C   UNL     1       3.228   7.082  18.751  0.00  0.00    +0.000 C 
ATOM      6  C   UNL     1       4.548   7.288  18.061  0.00  0.00    +0.000 C 
ATOM      7  C   UNL     1       5.117   5.866  18.130  0.00  0.00    +0.000 C 
ENDROOT
BRANCH   7   8
ATOM      8  C   UNL     1       5.446   5.332  16.746  0.00  0.00    +0.000 A 
ATOM      9  C   UNL     1       6.745   5.448  16.224  0.00  0.00    +0.000 A 
ATOM     10  C   UNL     1       7.066   4.894  14.982  0.00  0.00    +0.000 A 
ATOM     11  C   UNL     1       6.094   4.231  14.226  0.00  0.00    +0.000 A 
ATOM     12  C   UNL     1       6.434   3.589  12.913  0.00  0.00    +0.000 C 
ATOM     13  C   UNL     1       4.787   4.161  14.716  0.00  0.00    +0.000 A 
ATOM     14  C   UNL     1       4.468   4.699  15.964  0.00  0.00    +0.000 A 
ENDBRANCH   7   8
BRANCH   5  15
ATOM     15  C   UNL     1       2.252   8.180  18.907  0.00  0.00    +0.000 A 
ATOM     16  C   UNL     1       1.578   8.382  20.114  0.00  0.00    +0.000 A 
ATOM     17  C   UNL     1       0.702   9.461  20.239  0.00  0.00    +0.000 A 
ATOM     18  C   UNL     1       0.493  10.331  19.171  0.00  0.00    +0.000 A 
ATOM     19  C   UNL     1       1.144  10.119  17.955  0.00  0.00    +0.000 A 
ATOM     20  C   UNL     1       2.022   9.037  17.822  0.00  0.00    +0.000 A 
BRANCH  18  21
ATOM     21  N   UNL     1      -0.372  11.440  19.376  0.00  0.00    +0.000 N 
ATOM     22  H   UNL     1      -0.949  11.733  18.583  0.00  0.00    +0.000 HD
BRANCH  21  23
ATOM     23  S   UNL     1       0.222  12.779  20.219  0.00  0.00    +0.000 S 
ATOM     24  C   UNL     1      -1.042  13.990  19.881  0.00  0.00    +0.000 C 
ATOM     25  O   UNL     1       0.243  12.503  21.640  0.00  0.00    +0.000 OA
ATOM     26  O   UNL     1       1.411  13.181  19.515  0.00  0.00    +0.000 OA
ENDBRANCH  21  23
ENDBRANCH  18  21
ENDBRANCH   5  15
BRANCH   1  27
ATOM     27  C   UNL     1       2.808   3.146  19.727  0.00  0.00    +0.000 C 
BRANCH  27  29
ATOM     28  C   UNL     1       0.766   2.095  18.504  0.00  0.00    +0.000 C 
ATOM     29  C   UNL     1       2.284   2.165  18.642  0.00  0.00    +0.000 C 
ENDBRANCH  27  29
BRANCH  27  30
ATOM     30  C   UNL     1       2.991   2.410  21.071  0.00  0.00    +0.000 C 
ATOM     31  C   UNL     1       1.876   2.614  22.090  0.00  0.00    +0.000 C 
ENDBRANCH  27  30
ENDBRANCH   1  27
TORSDOF 7
ENDMDL
MODEL 9
REMARK VINA RESULT:      -7.1      1.412      2.079
REMARK  Name = 
REMARK  11 active torsions:
REMARK  status: ('A' for Active; 'I' for Inactive)
REMARK    1  A    between atoms: C_1  and  C_2
REMARK    2  A    between atoms: C_2  and  C_3
REMARK    3  A    between atoms: C_3  and  C_4
REMARK    4  A    between atoms: C_3  and  C_6
REMARK    5  A    between atoms: C_4  and  C_5
REMARK    6  A    between atoms: C_10  and  C_11
REMARK    7  A    between atoms: C_14  and  N_15
REMARK    8  A    between atoms: N_15  and  S_16
REMARK    9  A    between atoms: S_16  and  C_17
REMARK   10  A    between atoms: C_23  and  C_24
REMARK   11  A    between atoms: C_27  and  C_28
REMARK                            x       y       z     vdW  Elec       q    Type
REMARK                         _______ _______ _______ _____ _____    ______ ____
ROOT
ATOM      1  C   UNL     1       4.160   3.464  19.278  0.00  0.00    +0.000 C 
ATOM      2  O   UNL     1       5.182   2.789  19.146  0.00  0.00    +0.000 OA
ATOM      3  N   UNL     1       4.095   4.808  18.911  0.00  0.00    +0.000 N 
ATOM      4  N   UNL     1       3.004   5.576  19.221  0.00  0.00    +0.000 NA
ATOM      5  C   UNL     1       3.262   6.785  18.835  0.00  0.00    +0.000 C 
ATOM      6  C   UNL     1       4.603   7.001  18.191  0.00  0.00    +0.000 C 
ATOM      7  C   UNL     1       5.176   5.580  18.271  0.00  0.00    +0.000 C 
ENDROOT
BRANCH   7   8
ATOM      8  C   UNL     1       5.554   5.056  16.896  0.00  0.00    +0.000 A 
ATOM      9  C   UNL     1       4.597   4.426  16.084  0.00  0.00    +0.000 A 
ATOM     10  C   UNL     1       4.924   4.008  14.790  0.00  0.00    +0.000 A 
ATOM     11  C   UNL     1       6.218   4.191  14.289  0.00  0.00    +0.000 A 
ATOM     12  C   UNL     1       6.571   3.791  12.888  0.00  0.00    +0.000 C 
ATOM     13  C   UNL     1       7.188   4.767  15.114  0.00  0.00    +0.000 A 
ATOM     14  C   UNL     1       6.858   5.200  16.399  0.00  0.00    +0.000 A 
ENDBRANCH   7   8
BRANCH   5  15
ATOM     15  C   UNL     1       2.277   7.878  18.963  0.00  0.00    +0.000 A 
ATOM     16  C   UNL     1       1.910   8.655  17.862  0.00  0.00    +0.000 A 
ATOM     17  C   UNL     1       0.938   9.644  18.011  0.00  0.00    +0.000 A 
ATOM     18  C   UNL     1       0.336   9.865  19.249  0.00  0.00    +0.000 A 
ATOM     19  C   UNL     1       0.717   9.110  20.359  0.00  0.00    +0.000 A 
ATOM     20  C   UNL     1       1.693   8.117  20.216  0.00  0.00    +0.000 A 
BRANCH  18  21
ATOM     21  N   UNL     1      -0.683  10.853  19.326  0.00  0.00    +0.000 N 
ATOM     22  H   UNL     1      -1.355  10.889  18.556  0.00  0.00    +0.000 HD
BRANCH  21  23
ATOM     23  S   UNL     1      -0.257  12.409  19.833  0.00  0.00    +0.000 S 
ATOM     24  C   UNL     1      -0.433  13.326  18.315  0.00  0.00    +0.000 C 
ATOM     25  O   UNL     1      -1.222  12.899  20.794  0.00  0.00    +0.000 OA
ATOM     26  O   UNL     1       1.146  12.343  20.144  0.00  0.00    +0.000 OA
ENDBRANCH  21  23
ENDBRANCH  18  21
ENDBRANCH   5  15
BRANCH   1  27
ATOM     27  C   UNL     1       2.825   2.841  19.773  0.00  0.00    +0.000 C 
BRANCH  27  29
ATOM     28  C   UNL     1       1.533   2.572  22.014  0.00  0.00    +0.000 C 
ATOM     29  C   UNL     1       2.630   3.300  21.244  0.00  0.00    +0.000 C 
ENDBRANCH  27  29
BRANCH  27  30
ATOM     30  C   UNL     1       1.609   3.255  18.916  0.00  0.00    +0.000 C 
ATOM     31  C   UNL     1       0.592   2.153  18.644  0.00  0.00    +0.000 C 
ENDBRANCH  27  30
ENDBRANCH   1  27
TORSDOF 7
ENDMDL
