MODEL 1
REMARK VINA RESULT:      -8.0      0.000      0.000
REMARK  Name = 
REMARK  12 active torsions:
REMARK  status: ('A' for Active; 'I' for Inactive)
REMARK    1  A    between atoms: C_1  and  C_2
REMARK    2  A    between atoms: C_2  and  C_3
REMARK    3  A    between atoms: C_3  and  C_4
REMARK    4  A    between atoms: C_3  and  C_5
REMARK    5  A    between atoms: C_3  and  C_6
REMARK    6  A    between atoms: C_9  and  O_10
REMARK    7  A    between atoms: O_10  and  C_11
REMARK    8  A    between atoms: C_14  and  N_15
REMARK    9  A    between atoms: C_16  and  C_18
REMARK   10  A    between atoms: C_18  and  O_19
REMARK   11  A    between atoms: O_19  and  C_20
REMARK   12  A    between atoms: C_20  and  C_22
REMARK                            x       y       z     vdW  Elec       q    Type
REMARK                         _______ _______ _______ _____ _____    ______ ____
ROOT
ATOM      1  C   UNL     1       0.831  10.091  18.922  0.00  0.00    +0.000 A 
ATOM      2  C   UNL     1       0.648   9.529  20.186  0.00  0.00    +0.000 A 
ATOM      3  C   UNL     1       1.308   8.356  20.543  0.00  0.00    +0.000 A 
ATOM      4  C   UNL     1       2.099   7.664  19.627  0.00  0.00    +0.000 A 
ATOM      5  C   UNL     1       2.238   8.199  18.333  0.00  0.00    +0.000 A 
ATOM      6  C   UNL     1       1.605   9.405  17.986  0.00  0.00    +0.000 A 
ENDROOT
BRANCH   4   7
ATOM      7  N   UNL     1       2.753   6.447  19.949  0.00  0.00    +0.000 N 
ATOM      8  C   UNL     1       2.438   5.198  19.432  0.00  0.00    +0.000 C 
ATOM      9  O   UNL     1       1.524   4.943  18.651  0.00  0.00    +0.000 OA
ATOM     10  H   UNL     1       3.462   6.495  20.664  0.00  0.00    +0.000 HD
BRANCH   8  11
ATOM     11  C   UNL     1       3.335   4.056  19.914  0.00  0.00    +0.000 C 
BRANCH  11  12
ATOM     12  O   UNL     1       4.310   3.735  18.922  0.00  0.00    +0.000 OA
BRANCH  12  13
ATOM     13  C   UNL     1       5.314   4.645  18.824  0.00  0.00    +0.000 C 
ATOM     14  O   UNL     1       5.729   5.325  19.756  0.00  0.00    +0.000 OA
BRANCH  13  15
ATOM     15  C   UNL     1       5.817   4.718  17.421  0.00  0.00    +0.000 C 
ATOM     16  C   UNL     1       7.141   4.620  17.247  0.00  0.00    +0.000 C 
ATOM     17  O   UNL     1       7.806   4.707  16.062  0.00  0.00    +0.000 OA
ATOM     18  C   UNL     1       6.971   4.784  14.910  0.00  0.00    +0.000 C 
ATOM     19  C   UNL     1       5.522   5.222  15.134  0.00  0.00    +0.000 C 
ATOM     20  O   UNL     1       4.927   4.885  16.385  0.00  0.00    +0.000 OA
ENDBRANCH  13  15
ENDBRANCH  12  13
ENDBRANCH  11  12
ENDBRANCH   8  11
ENDBRANCH   4   7
BRANCH   1  21
ATOM     21  O   UNL     1       0.283  11.314  18.572  0.00  0.00    +0.000 OA
BRANCH  21  25
ATOM     22  C   UNL     1      -3.897  11.857  18.805  0.00  0.00    +0.000 A 
ATOM     23  C   UNL     1      -3.321  11.090  17.782  0.00  0.00    +0.000 A 
ATOM     24  C   UNL     1      -1.950  10.842  17.739  0.00  0.00    +0.000 A 
ATOM     25  C   UNL     1      -1.095  11.427  18.668  0.00  0.00    +0.000 A 
ATOM     26  C   UNL     1      -1.635  12.164  19.720  0.00  0.00    +0.000 A 
ATOM     27  C   UNL     1      -3.026  12.370  19.790  0.00  0.00    +0.000 A 
BRANCH  22  28
ATOM     28  C   UNL     1      -5.420  12.094  18.866  0.00  0.00    +0.000 C 
ATOM     29  C   UNL     1      -6.109  11.978  17.482  0.00  0.00    +0.000 C 
ATOM     30  C   UNL     1      -5.711  13.532  19.363  0.00  0.00    +0.000 C 
BRANCH  28  32
ATOM     31  C   UNL     1      -6.948  10.010  19.209  0.00  0.00    +0.000 C 
ATOM     32  C   UNL     1      -6.094  11.097  19.856  0.00  0.00    +0.000 C 
ENDBRANCH  28  32
ENDBRANCH  22  28
ENDBRANCH  21  25
ENDBRANCH   1  21
TORSDOF 9
ENDMDL
MODEL 2
REMARK VINA RESULT:      -8.0      1.098      1.820
REMARK  Name = 
REMARK  12 active torsions:
REMARK  status: ('A' for Active; 'I' for Inactive)
REMARK    1  A    between atoms: C_1  and  C_2
REMARK    2  A    between atoms: C_2  and  C_3
REMARK    3  A    between atoms: C_3  and  C_4
REMARK    4  A    between atoms: C_3  and  C_5
REMARK    5  A    between atoms: C_3  and  C_6
REMARK    6  A    between atoms: C_9  and  O_10
REMARK    7  A    between atoms: O_10  and  C_11
REMARK    8  A    between atoms: C_14  and  N_15
REMARK    9  A    between atoms: C_16  and  C_18
REMARK   10  A    between atoms: C_18  and  O_19
REMARK   11  A    between atoms: O_19  and  C_20
REMARK   12  A    between atoms: C_20  and  C_22
REMARK                            x       y       z     vdW  Elec       q    Type
REMARK                         _______ _______ _______ _____ _____    ______ ____
ROOT
ATOM      1  C   UNL     1       1.072   9.773  19.046  0.00  0.00    +0.000 A 
ATOM      2  C   UNL     1       0.897   9.186  20.300  0.00  0.00    +0.000 A 
ATOM      3  C   UNL     1       1.523   7.982  20.613  0.00  0.00    +0.000 A 
ATOM      4  C   UNL     1       2.267   7.285  19.661  0.00  0.00    +0.000 A 
ATOM      5  C   UNL     1       2.395   7.846  18.378  0.00  0.00    +0.000 A 
ATOM      6  C   UNL     1       1.798   9.083  18.075  0.00  0.00    +0.000 A 
ENDROOT
BRANCH   4   7
ATOM      7  N   UNL     1       2.884   6.038  19.937  0.00  0.00    +0.000 N 
ATOM      8  C   UNL     1       2.529   4.818  19.379  0.00  0.00    +0.000 C 
ATOM      9  O   UNL     1       1.605   4.619  18.593  0.00  0.00    +0.000 OA
ATOM     10  H   UNL     1       3.596   6.039  20.651  0.00  0.00    +0.000 HD
BRANCH   8  11
ATOM     11  C   UNL     1       3.391   3.633  19.817  0.00  0.00    +0.000 C 
BRANCH  11  12
ATOM     12  O   UNL     1       4.768   3.887  19.537  0.00  0.00    +0.000 OA
BRANCH  12  13
ATOM     13  C   UNL     1       5.031   4.095  18.221  0.00  0.00    +0.000 C 
ATOM     14  O   UNL     1       4.590   3.408  17.307  0.00  0.00    +0.000 OA
BRANCH  13  15
ATOM     15  C   UNL     1       5.951   5.259  18.051  0.00  0.00    +0.000 C 
ATOM     16  C   UNL     1       5.816   5.977  16.930  0.00  0.00    +0.000 C 
ATOM     17  O   UNL     1       6.580   7.043  16.560  0.00  0.00    +0.000 OA
ATOM     18  C   UNL     1       7.515   7.480  17.541  0.00  0.00    +0.000 C 
ATOM     19  C   UNL     1       7.883   6.480  18.640  0.00  0.00    +0.000 C 
ATOM     20  O   UNL     1       6.883   5.538  19.024  0.00  0.00    +0.000 OA
ENDBRANCH  13  15
ENDBRANCH  12  13
ENDBRANCH  11  12
ENDBRANCH   8  11
ENDBRANCH   4   7
BRANCH   1  21
ATOM     21  O   UNL     1       0.560  11.022  18.738  0.00  0.00    +0.000 OA
BRANCH  21  25
ATOM     22  C   UNL     1      -3.623  11.555  18.538  0.00  0.00    +0.000 A 
ATOM     23  C   UNL     1      -2.971  10.623  17.718  0.00  0.00    +0.000 A 
ATOM     24  C   UNL     1      -1.602  10.386  17.829  0.00  0.00    +0.000 A 
ATOM     25  C   UNL     1      -0.820  11.137  18.703  0.00  0.00    +0.000 A 
ATOM     26  C   UNL     1      -1.440  12.045  19.560  0.00  0.00    +0.000 A 
ATOM     27  C   UNL     1      -2.831  12.245  19.481  0.00  0.00    +0.000 A 
BRANCH  22  28
ATOM     28  C   UNL     1      -5.145  11.784  18.436  0.00  0.00    +0.000 C 
ATOM     29  C   UNL     1      -5.969  10.485  18.635  0.00  0.00    +0.000 C 
ATOM     30  C   UNL     1      -5.507  12.301  17.021  0.00  0.00    +0.000 C 
BRANCH  28  32
ATOM     31  C   UNL     1      -6.488  13.967  18.913  0.00  0.00    +0.000 C 
ATOM     32  C   UNL     1      -5.614  12.848  19.472  0.00  0.00    +0.000 C 
ENDBRANCH  28  32
ENDBRANCH  22  28
ENDBRANCH  21  25
ENDBRANCH   1  21
TORSDOF 9
ENDMDL
MODEL 3
REMARK VINA RESULT:      -7.9      0.981      1.320
REMARK  Name = 
REMARK  12 active torsions:
REMARK  status: ('A' for Active; 'I' for Inactive)
REMARK    1  A    between atoms: C_1  and  C_2
REMARK    2  A    between atoms: C_2  and  C_3
REMARK    3  A    between atoms: C_3  and  C_4
REMARK    4  A    between atoms: C_3  and  C_5
REMARK    5  A    between atoms: C_3  and  C_6
REMARK    6  A    between atoms: C_9  and  O_10
REMARK    7  A    between atoms: O_10  and  C_11
REMARK    8  A    between atoms: C_14  and  N_15
REMARK    9  A    between atoms: C_16  and  C_18
REMARK   10  A    between atoms: C_18  and  O_19
REMARK   11  A    between atoms: O_19  and  C_20
REMARK   12  A    between atoms: C_20  and  C_22
REMARK                            x       y       z     vdW  Elec       q    Type
REMARK                         _______ _______ _______ _____ _____    ______ ____
ROOT
ATOM      1  C   UNL     1       1.315   9.970  18.956  0.00  0.00    +0.000 A 
ATOM      2  C   UNL     1       2.067   9.481  17.887  0.00  0.00    +0.000 A 
ATOM      3  C   UNL     1       2.553   8.176  17.901  0.00  0.00    +0.000 A 
ATOM      4  C   UNL     1       2.382   7.352  19.012  0.00  0.00    +0.000 A 
ATOM      5  C   UNL     1       1.675   7.865  20.115  0.00  0.00    +0.000 A 
ATOM      6  C   UNL     1       1.147   9.168  20.085  0.00  0.00    +0.000 A 
ENDROOT
BRANCH   4   7
ATOM      7  N   UNL     1       2.898   6.032  19.072  0.00  0.00    +0.000 N 
ATOM      8  C   UNL     1       2.362   4.924  18.434  0.00  0.00    +0.000 C 
ATOM      9  O   UNL     1       1.339   4.900  17.752  0.00  0.00    +0.000 OA
ATOM     10  H   UNL     1       3.683   5.886  19.687  0.00  0.00    +0.000 HD
BRANCH   8  11
ATOM     11  C   UNL     1       3.146   3.624  18.629  0.00  0.00    +0.000 C 
BRANCH  11  12
ATOM     12  O   UNL     1       4.048   3.417  17.542  0.00  0.00    +0.000 OA
BRANCH  12  13
ATOM     13  C   UNL     1       5.292   3.915  17.760  0.00  0.00    +0.000 C 
ATOM     14  O   UNL     1       5.776   4.118  18.867  0.00  0.00    +0.000 OA
BRANCH  13  15
ATOM     15  C   UNL     1       5.972   4.203  16.462  0.00  0.00    +0.000 C 
ATOM     16  C   UNL     1       6.875   5.192  16.459  0.00  0.00    +0.000 C 
ATOM     17  O   UNL     1       7.570   5.644  15.379  0.00  0.00    +0.000 OA
ATOM     18  C   UNL     1       7.385   4.886  14.186  0.00  0.00    +0.000 C 
ATOM     19  C   UNL     1       6.139   4.001  14.116  0.00  0.00    +0.000 C 
ATOM     20  O   UNL     1       5.650   3.467  15.345  0.00  0.00    +0.000 OA
ENDBRANCH  13  15
ENDBRANCH  12  13
ENDBRANCH  11  12
ENDBRANCH   8  11
ENDBRANCH   4   7
BRANCH   1  21
ATOM     21  O   UNL     1       0.720  11.220  18.928  0.00  0.00    +0.000 OA
BRANCH  21  25
ATOM     22  C   UNL     1      -3.469  11.489  18.483  0.00  0.00    +0.000 A 
ATOM     23  C   UNL     1      -2.718  10.568  17.739  0.00  0.00    +0.000 A 
ATOM     24  C   UNL     1      -1.346  10.419  17.932  0.00  0.00    +0.000 A 
ATOM     25  C   UNL     1      -0.660  11.249  18.814  0.00  0.00    +0.000 A 
ATOM     26  C   UNL     1      -1.379  12.150  19.599  0.00  0.00    +0.000 A 
ATOM     27  C   UNL     1      -2.773  12.262  19.437  0.00  0.00    +0.000 A 
BRANCH  22  28
ATOM     28  C   UNL     1      -4.994  11.620  18.290  0.00  0.00    +0.000 C 
ATOM     29  C   UNL     1      -5.388  12.069  16.859  0.00  0.00    +0.000 C 
ATOM     30  C   UNL     1      -5.555  12.706  19.242  0.00  0.00    +0.000 C 
BRANCH  28  32
ATOM     31  C   UNL     1      -6.934  10.388  19.519  0.00  0.00    +0.000 C 
ATOM     32  C   UNL     1      -5.709  10.275  18.617  0.00  0.00    +0.000 C 
ENDBRANCH  28  32
ENDBRANCH  22  28
ENDBRANCH  21  25
ENDBRANCH   1  21
TORSDOF 9
ENDMDL
MODEL 4
REMARK VINA RESULT:      -7.7      1.982      2.779
REMARK  Name = 
REMARK  12 active torsions:
REMARK  status: ('A' for Active; 'I' for Inactive)
REMARK    1  A    between atoms: C_1  and  C_2
REMARK    2  A    between atoms: C_2  and  C_3
REMARK    3  A    between atoms: C_3  and  C_4
REMARK    4  A    between atoms: C_3  and  C_5
REMARK    5  A    between atoms: C_3  and  C_6
REMARK    6  A    between atoms: C_9  and  O_10
REMARK    7  A    between atoms: O_10  and  C_11
REMARK    8  A    between atoms: C_14  and  N_15
REMARK    9  A    between atoms: C_16  and  C_18
REMARK   10  A    between atoms: C_18  and  O_19
REMARK   11  A    between atoms: O_19  and  C_20
REMARK   12  A    between atoms: C_20  and  C_22
REMARK                            x       y       z     vdW  Elec       q    Type
REMARK                         _______ _______ _______ _____ _____    ______ ____
ROOT
ATOM      1  C   UNL     1       1.400   9.289  19.006  0.00  0.00    +0.000 A 
ATOM      2  C   UNL     1       1.039   8.910  20.300  0.00  0.00    +0.000 A 
ATOM      3  C   UNL     1       1.474   7.698  20.831  0.00  0.00    +0.000 A 
ATOM      4  C   UNL     1       2.205   6.793  20.063  0.00  0.00    +0.000 A 
ATOM      5  C   UNL     1       2.519   7.148  18.738  0.00  0.00    +0.000 A 
ATOM      6  C   UNL     1       2.116   8.389  18.216  0.00  0.00    +0.000 A 
ENDROOT
BRANCH   4   7
ATOM      7  N   UNL     1       2.630   5.535  20.563  0.00  0.00    +0.000 N 
ATOM      8  C   UNL     1       1.837   4.402  20.681  0.00  0.00    +0.000 C 
ATOM      9  O   UNL     1       0.641   4.319  20.410  0.00  0.00    +0.000 OA
ATOM     10  H   UNL     1       3.570   5.490  20.922  0.00  0.00    +0.000 HD
BRANCH   8  11
ATOM     11  C   UNL     1       2.560   3.161  21.209  0.00  0.00    +0.000 C 
BRANCH  11  12
ATOM     12  O   UNL     1       3.021   2.353  20.125  0.00  0.00    +0.000 OA
BRANCH  12  13
ATOM     13  C   UNL     1       4.370   2.371  19.964  0.00  0.00    +0.000 C 
ATOM     14  O   UNL     1       5.157   1.694  20.615  0.00  0.00    +0.000 OA
BRANCH  13  15
ATOM     15  C   UNL     1       4.755   3.349  18.903  0.00  0.00    +0.000 C 
ATOM     16  C   UNL     1       4.018   3.349  17.785  0.00  0.00    +0.000 C 
ATOM     17  O   UNL     1       4.226   4.124  16.684  0.00  0.00    +0.000 OA
ATOM     18  C   UNL     1       5.255   5.099  16.823  0.00  0.00    +0.000 C 
ATOM     19  C   UNL     1       6.279   4.871  17.937  0.00  0.00    +0.000 C 
ATOM     20  O   UNL     1       5.828   4.186  19.105  0.00  0.00    +0.000 OA
ENDBRANCH  13  15
ENDBRANCH  12  13
ENDBRANCH  11  12
ENDBRANCH   8  11
ENDBRANCH   4   7
BRANCH   1  21
ATOM     21  O   UNL     1       1.082  10.532  18.486  0.00  0.00    +0.000 OA
BRANCH  21  25
ATOM     22  C   UNL     1      -1.745  12.950  20.482  0.00  0.00    +0.000 A 
ATOM     23  C   UNL     1      -2.147  11.988  19.544  0.00  0.00    +0.000 A 
ATOM     24  C   UNL     1      -1.228  11.134  18.936  0.00  0.00    +0.000 A 
ATOM     25  C   UNL     1       0.135  11.271  19.177  0.00  0.00    +0.000 A 
ATOM     26  C   UNL     1       0.568  12.191  20.131  0.00  0.00    +0.000 A 
ATOM     27  C   UNL     1      -0.367  13.017  20.782  0.00  0.00    +0.000 A 
BRANCH  22  28
ATOM     28  C   UNL     1      -2.772  13.866  21.179  0.00  0.00    +0.000 C 
ATOM     29  C   UNL     1      -4.226  13.628  20.694  0.00  0.00    +0.000 C 
ATOM     30  C   UNL     1      -2.458  15.349  20.862  0.00  0.00    +0.000 C 
BRANCH  28  32
ATOM     31  C   UNL     1      -3.832  12.831  23.324  0.00  0.00    +0.000 C 
ATOM     32  C   UNL     1      -2.715  13.681  22.725  0.00  0.00    +0.000 C 
ENDBRANCH  28  32
ENDBRANCH  22  28
ENDBRANCH  21  25
ENDBRANCH   1  21
TORSDOF 9
ENDMDL
MODEL 5
REMARK VINA RESULT:      -7.6      1.634      3.256
REMARK  Name = 
REMARK  12 active torsions:
REMARK  status: ('A' for Active; 'I' for Inactive)
REMARK    1  A    between atoms: C_1  and  C_2
REMARK    2  A    between atoms: C_2  and  C_3
REMARK    3  A    between atoms: C_3  and  C_4
REMARK    4  A    between atoms: C_3  and  C_5
REMARK    5  A    between atoms: C_3  and  C_6
REMARK    6  A    between atoms: C_9  and  O_10
REMARK    7  A    between atoms: O_10  and  C_11
REMARK    8  A    between atoms: C_14  and  N_15
REMARK    9  A    between atoms: C_16  and  C_18
REMARK   10  A    between atoms: C_18  and  O_19
REMARK   11  A    between atoms: O_19  and  C_20
REMARK   12  A    between atoms: C_20  and  C_22
REMARK                            x       y       z     vdW  Elec       q    Type
REMARK                         _______ _______ _______ _____ _____    ______ ____
ROOT
ATOM      1  C   UNL     1       1.278   9.739  18.965  0.00  0.00    +0.000 A 
ATOM      2  C   UNL     1       1.271   8.872  20.058  0.00  0.00    +0.000 A 
ATOM      3  C   UNL     1       1.934   7.649  19.997  0.00  0.00    +0.000 A 
ATOM      4  C   UNL     1       2.547   7.217  18.823  0.00  0.00    +0.000 A 
ATOM      5  C   UNL     1       2.504   8.064  17.701  0.00  0.00    +0.000 A 
ATOM      6  C   UNL     1       1.871   9.318  17.775  0.00  0.00    +0.000 A 
ENDROOT
BRANCH   4   7
ATOM      7  N   UNL     1       3.197   5.960  18.718  0.00  0.00    +0.000 N 
ATOM      8  C   UNL     1       4.478   5.750  18.228  0.00  0.00    +0.000 C 
ATOM      9  O   UNL     1       5.233   6.607  17.774  0.00  0.00    +0.000 OA
ATOM     10  H   UNL     1       2.648   5.150  18.960  0.00  0.00    +0.000 HD
BRANCH   8  11
ATOM     11  C   UNL     1       4.955   4.296  18.268  0.00  0.00    +0.000 C 
BRANCH  11  12
ATOM     12  O   UNL     1       5.159   3.876  19.618  0.00  0.00    +0.000 OA
BRANCH  12  13
ATOM     13  C   UNL     1       4.570   2.689  19.917  0.00  0.00    +0.000 C 
ATOM     14  O   UNL     1       5.177   1.669  20.221  0.00  0.00    +0.000 OA
BRANCH  13  15
ATOM     15  C   UNL     1       3.086   2.799  19.796  0.00  0.00    +0.000 C 
ATOM     16  C   UNL     1       2.500   2.055  18.850  0.00  0.00    +0.000 C 
ATOM     17  O   UNL     1       1.172   2.041  18.544  0.00  0.00    +0.000 OA
ATOM     18  C   UNL     1       0.348   2.809  19.416  0.00  0.00    +0.000 C 
ATOM     19  C   UNL     1       1.041   3.886  20.253  0.00  0.00    +0.000 C 
ATOM     20  O   UNL     1       2.395   3.644  20.633  0.00  0.00    +0.000 OA
ENDBRANCH  13  15
ENDBRANCH  12  13
ENDBRANCH  11  12
ENDBRANCH   8  11
ENDBRANCH   4   7
BRANCH   1  21
ATOM     21  O   UNL     1       0.728  11.009  19.027  0.00  0.00    +0.000 OA
BRANCH  21  25
ATOM     22  C   UNL     1      -3.442  11.460  18.551  0.00  0.00    +0.000 A 
ATOM     23  C   UNL     1      -2.720  10.538  17.780  0.00  0.00    +0.000 A 
ATOM     24  C   UNL     1      -1.357  10.328  17.981  0.00  0.00    +0.000 A 
ATOM     25  C   UNL     1      -0.649  11.096  18.901  0.00  0.00    +0.000 A 
ATOM     26  C   UNL     1      -1.341  11.996  19.711  0.00  0.00    +0.000 A 
ATOM     27  C   UNL     1      -2.727  12.169  19.540  0.00  0.00    +0.000 A 
BRANCH  22  28
ATOM     28  C   UNL     1      -4.958  11.659  18.347  0.00  0.00    +0.000 C 
ATOM     29  C   UNL     1      -5.776  10.360  18.568  0.00  0.00    +0.000 C 
ATOM     30  C   UNL     1      -5.243  12.094  16.888  0.00  0.00    +0.000 C 
BRANCH  28  32
ATOM     31  C   UNL     1      -6.975  12.647  19.671  0.00  0.00    +0.000 C 
ATOM     32  C   UNL     1      -5.501  12.769  19.297  0.00  0.00    +0.000 C 
ENDBRANCH  28  32
ENDBRANCH  22  28
ENDBRANCH  21  25
ENDBRANCH   1  21
TORSDOF 9
ENDMDL
MODEL 6
REMARK VINA RESULT:      -7.6      1.979      3.041
REMARK  Name = 
REMARK  12 active torsions:
REMARK  status: ('A' for Active; 'I' for Inactive)
REMARK    1  A    between atoms: C_1  and  C_2
REMARK    2  A    between atoms: C_2  and  C_3
REMARK    3  A    between atoms: C_3  and  C_4
REMARK    4  A    between atoms: C_3  and  C_5
REMARK    5  A    between atoms: C_3  and  C_6
REMARK    6  A    between atoms: C_9  and  O_10
REMARK    7  A    between atoms: O_10  and  C_11
REMARK    8  A    between atoms: C_14  and  N_15
REMARK    9  A    between atoms: C_16  and  C_18
REMARK   10  A    between atoms: C_18  and  O_19
REMARK   11  A    between atoms: O_19  and  C_20
REMARK   12  A    between atoms: C_20  and  C_22
REMARK                            x       y       z     vdW  Elec       q    Type
REMARK                         _______ _______ _______ _____ _____    ______ ____
ROOT
ATOM      1  C   UNL     1       1.102   9.698  18.897  0.00  0.00    +0.000 A 
ATOM      2  C   UNL     1       0.907   9.129  20.156  0.00  0.00    +0.000 A 
ATOM      3  C   UNL     1       1.570   7.959  20.516  0.00  0.00    +0.000 A 
ATOM      4  C   UNL     1       2.376   7.276  19.606  0.00  0.00    +0.000 A 
ATOM      5  C   UNL     1       2.526   7.817  18.316  0.00  0.00    +0.000 A 
ATOM      6  C   UNL     1       1.890   9.021  17.967  0.00  0.00    +0.000 A 
ENDROOT
BRANCH   4   7
ATOM      7  N   UNL     1       3.034   6.061  19.930  0.00  0.00    +0.000 N 
ATOM      8  C   UNL     1       2.729   4.812  19.408  0.00  0.00    +0.000 C 
ATOM      9  O   UNL     1       1.822   4.554  18.620  0.00  0.00    +0.000 OA
ATOM     10  H   UNL     1       3.737   6.111  20.650  0.00  0.00    +0.000 HD
BRANCH   8  11
ATOM     11  C   UNL     1       3.628   3.673  19.894  0.00  0.00    +0.000 C 
BRANCH  11  12
ATOM     12  O   UNL     1       4.662   3.413  18.944  0.00  0.00    +0.000 OA
BRANCH  12  13
ATOM     13  C   UNL     1       5.580   4.410  18.847  0.00  0.00    +0.000 C 
ATOM     14  O   UNL     1       6.011   5.052  19.797  0.00  0.00    +0.000 OA
BRANCH  13  15
ATOM     15  C   UNL     1       5.966   4.625  17.421  0.00  0.00    +0.000 C 
ATOM     16  C   UNL     1       7.259   4.466  17.114  0.00  0.00    +0.000 C 
ATOM     17  O   UNL     1       7.826   4.659  15.890  0.00  0.00    +0.000 OA
ATOM     18  C   UNL     1       6.904   4.933  14.839  0.00  0.00    +0.000 C 
ATOM     19  C   UNL     1       5.516   5.430  15.248  0.00  0.00    +0.000 C 
ATOM     20  O   UNL     1       5.006   4.978  16.501  0.00  0.00    +0.000 OA
ENDBRANCH  13  15
ENDBRANCH  12  13
ENDBRANCH  11  12
ENDBRANCH   8  11
ENDBRANCH   4   7
BRANCH   1  21
ATOM     21  O   UNL     1       0.550  10.919  18.546  0.00  0.00    +0.000 OA
BRANCH  21  25
ATOM     22  C   UNL     1      -1.553  12.839  21.662  0.00  0.00    +0.000 A 
ATOM     23  C   UNL     1      -0.152  12.770  21.667  0.00  0.00    +0.000 A 
ATOM     24  C   UNL     1       0.554  12.205  20.607  0.00  0.00    +0.000 A 
ATOM     25  C   UNL     1      -0.118  11.609  19.544  0.00  0.00    +0.000 A 
ATOM     26  C   UNL     1      -1.509  11.692  19.487  0.00  0.00    +0.000 A 
ATOM     27  C   UNL     1      -2.217  12.309  20.535  0.00  0.00    +0.000 A 
BRANCH  22  28
ATOM     28  C   UNL     1      -2.326  13.501  22.821  0.00  0.00    +0.000 C 
ATOM     29  C   UNL     1      -3.276  12.520  23.556  0.00  0.00    +0.000 C 
ATOM     30  C   UNL     1      -3.230  14.634  22.274  0.00  0.00    +0.000 C 
BRANCH  28  32
ATOM     31  C   UNL     1      -1.405  15.646  23.983  0.00  0.00    +0.000 C 
ATOM     32  C   UNL     1      -1.341  14.126  23.854  0.00  0.00    +0.000 C 
ENDBRANCH  28  32
ENDBRANCH  22  28
ENDBRANCH  21  25
ENDBRANCH   1  21
TORSDOF 9
ENDMDL
MODEL 7
REMARK VINA RESULT:      -7.5      1.705      2.496
REMARK  Name = 
REMARK  12 active torsions:
REMARK  status: ('A' for Active; 'I' for Inactive)
REMARK    1  A    between atoms: C_1  and  C_2
REMARK    2  A    between atoms: C_2  and  C_3
REMARK    3  A    between atoms: C_3  and  C_4
REMARK    4  A    between atoms: C_3  and  C_5
REMARK    5  A    between atoms: C_3  and  C_6
REMARK    6  A    between atoms: C_9  and  O_10
REMARK    7  A    between atoms: O_10  and  C_11
REMARK    8  A    between atoms: C_14  and  N_15
REMARK    9  A    between atoms: C_16  and  C_18
REMARK   10  A    between atoms: C_18  and  O_19
REMARK   11  A    between atoms: O_19  and  C_20
REMARK   12  A    between atoms: C_20  and  C_22
REMARK                            x       y       z     vdW  Elec       q    Type
REMARK                         _______ _______ _______ _____ _____    ______ ____
ROOT
ATOM      1  C   UNL     1       1.232   9.555  19.074  0.00  0.00    +0.000 A 
ATOM      2  C   UNL     1       0.894   9.154  20.367  0.00  0.00    +0.000 A 
ATOM      3  C   UNL     1       1.359   7.946  20.879  0.00  0.00    +0.000 A 
ATOM      4  C   UNL     1       2.099   7.064  20.093  0.00  0.00    +0.000 A 
ATOM      5  C   UNL     1       2.391   7.441  18.769  0.00  0.00    +0.000 A 
ATOM      6  C   UNL     1       1.957   8.680  18.266  0.00  0.00    +0.000 A 
ENDROOT
BRANCH   4   7
ATOM      7  N   UNL     1       2.555   5.809  20.573  0.00  0.00    +0.000 N 
ATOM      8  C   UNL     1       1.792   4.654  20.667  0.00  0.00    +0.000 C 
ATOM      9  O   UNL     1       0.600   4.544  20.389  0.00  0.00    +0.000 OA
ATOM     10  H   UNL     1       3.494   5.783  20.937  0.00  0.00    +0.000 HD
BRANCH   8  11
ATOM     11  C   UNL     1       2.545   3.424  21.178  0.00  0.00    +0.000 C 
BRANCH  11  12
ATOM     12  O   UNL     1       2.938   2.591  20.087  0.00  0.00    +0.000 OA
BRANCH  12  13
ATOM     13  C   UNL     1       4.280   2.553  19.882  0.00  0.00    +0.000 C 
ATOM     14  O   UNL     1       5.062   1.857  20.519  0.00  0.00    +0.000 OA
BRANCH  13  15
ATOM     15  C   UNL     1       4.667   3.497  18.792  0.00  0.00    +0.000 C 
ATOM     16  C   UNL     1       5.470   4.514  19.129  0.00  0.00    +0.000 C 
ATOM     17  O   UNL     1       5.901   5.508  18.303  0.00  0.00    +0.000 OA
ATOM     18  C   UNL     1       5.546   5.345  16.933  0.00  0.00    +0.000 C 
ATOM     19  C   UNL     1       4.385   4.396  16.627  0.00  0.00    +0.000 C 
ATOM     20  O   UNL     1       4.191   3.298  17.516  0.00  0.00    +0.000 OA
ENDBRANCH  13  15
ENDBRANCH  12  13
ENDBRANCH  11  12
ENDBRANCH   8  11
ENDBRANCH   4   7
BRANCH   1  21
ATOM     21  O   UNL     1       0.884  10.798  18.572  0.00  0.00    +0.000 OA
BRANCH  21  25
ATOM     22  C   UNL     1      -2.425  12.570  20.503  0.00  0.00    +0.000 A 
ATOM     23  C   UNL     1      -1.132  12.676  21.036  0.00  0.00    +0.000 A 
ATOM     24  C   UNL     1      -0.024  12.160  20.368  0.00  0.00    +0.000 A 
ATOM     25  C   UNL     1      -0.179  11.441  19.187  0.00  0.00    +0.000 A 
ATOM     26  C   UNL     1      -1.444  11.347  18.609  0.00  0.00    +0.000 A 
ATOM     27  C   UNL     1      -2.555  11.914  19.260  0.00  0.00    +0.000 A 
BRANCH  22  28
ATOM     28  C   UNL     1      -3.643  13.178  21.230  0.00  0.00    +0.000 C 
ATOM     29  C   UNL     1      -4.993  12.581  20.757  0.00  0.00    +0.000 C 
ATOM     30  C   UNL     1      -3.727  14.697  20.937  0.00  0.00    +0.000 C 
BRANCH  28  32
ATOM     31  C   UNL     1      -4.834  12.950  23.537  0.00  0.00    +0.000 C 
ATOM     32  C   UNL     1      -3.515  12.990  22.771  0.00  0.00    +0.000 C 
ENDBRANCH  28  32
ENDBRANCH  22  28
ENDBRANCH  21  25
ENDBRANCH   1  21
TORSDOF 9
ENDMDL
MODEL 8
REMARK VINA RESULT:      -7.4      1.810      2.717
REMARK  Name = 
REMARK  12 active torsions:
REMARK  status: ('A' for Active; 'I' for Inactive)
REMARK    1  A    between atoms: C_1  and  C_2
REMARK    2  A    between atoms: C_2  and  C_3
REMARK    3  A    between atoms: C_3  and  C_4
REMARK    4  A    between atoms: C_3  and  C_5
REMARK    5  A    between atoms: C_3  and  C_6
REMARK    6  A    between atoms: C_9  and  O_10
REMARK    7  A    between atoms: O_10  and  C_11
REMARK    8  A    between atoms: C_14  and  N_15
REMARK    9  A    between atoms: C_16  and  C_18
REMARK   10  A    between atoms: C_18  and  O_19
REMARK   11  A    between atoms: O_19  and  C_20
REMARK   12  A    between atoms: C_20  and  C_22
REMARK                            x       y       z     vdW  Elec       q    Type
REMARK                         _______ _______ _______ _____ _____    ______ ____
ROOT
ATOM      1  C   UNL     1       1.248   9.583  19.059  0.00  0.00    +0.000 A 
ATOM      2  C   UNL     1       0.945   9.073  20.322  0.00  0.00    +0.000 A 
ATOM      3  C   UNL     1       1.451   7.841  20.729  0.00  0.00    +0.000 A 
ATOM      4  C   UNL     1       2.198   7.044  19.863  0.00  0.00    +0.000 A 
ATOM      5  C   UNL     1       2.454   7.531  18.568  0.00  0.00    +0.000 A 
ATOM      6  C   UNL     1       1.979   8.793  18.172  0.00  0.00    +0.000 A 
ENDROOT
BRANCH   4   7
ATOM      7  N   UNL     1       2.694   5.768  20.235  0.00  0.00    +0.000 N 
ATOM      8  C   UNL     1       2.146   4.548  19.867  0.00  0.00    +0.000 C 
ATOM      9  O   UNL     1       1.128   4.379  19.198  0.00  0.00    +0.000 OA
ATOM     10  H   UNL     1       3.472   5.760  20.876  0.00  0.00    +0.000 HD
BRANCH   8  11
ATOM     11  C   UNL     1       2.908   3.320  20.369  0.00  0.00    +0.000 C 
BRANCH  11  12
ATOM     12  O   UNL     1       4.232   3.302  19.834  0.00  0.00    +0.000 OA
BRANCH  12  13
ATOM     13  C   UNL     1       4.276   3.146  18.485  0.00  0.00    +0.000 C 
ATOM     14  O   UNL     1       3.603   2.337  17.857  0.00  0.00    +0.000 OA
BRANCH  13  15
ATOM     15  C   UNL     1       5.276   4.078  17.886  0.00  0.00    +0.000 C 
ATOM     16  C   UNL     1       4.912   4.717  16.767  0.00  0.00    +0.000 C 
ATOM     17  O   UNL     1       5.686   5.570  16.039  0.00  0.00    +0.000 OA
ATOM     18  C   UNL     1       6.947   5.882  16.623  0.00  0.00    +0.000 C 
ATOM     19  C   UNL     1       7.473   4.919  17.690  0.00  0.00    +0.000 C 
ATOM     20  O   UNL     1       6.505   4.236  18.484  0.00  0.00    +0.000 OA
ENDBRANCH  13  15
ENDBRANCH  12  13
ENDBRANCH  11  12
ENDBRANCH   8  11
ENDBRANCH   4   7
BRANCH   1  21
ATOM     21  O   UNL     1       0.858  10.852  18.663  0.00  0.00    +0.000 OA
BRANCH  21  25
ATOM     22  C   UNL     1      -2.100  12.597  21.117  0.00  0.00    +0.000 A 
ATOM     23  C   UNL     1      -0.751  12.589  21.501  0.00  0.00    +0.000 A 
ATOM     24  C   UNL     1       0.242  12.083  20.665  0.00  0.00    +0.000 A 
ATOM     25  C   UNL     1      -0.088  11.486  19.452  0.00  0.00    +0.000 A 
ATOM     26  C   UNL     1      -1.413  11.509  19.021  0.00  0.00    +0.000 A 
ATOM     27  C   UNL     1      -2.408  12.068  19.846  0.00  0.00    +0.000 A 
BRANCH  22  28
ATOM     28  C   UNL     1      -3.189  13.194  22.032  0.00  0.00    +0.000 C 
ATOM     29  C   UNL     1      -4.616  12.702  21.678  0.00  0.00    +0.000 C 
ATOM     30  C   UNL     1      -3.223  14.735  21.876  0.00  0.00    +0.000 C 
BRANCH  28  32
ATOM     31  C   UNL     1      -4.108  12.480  24.365  0.00  0.00    +0.000 C 
ATOM     32  C   UNL     1      -2.893  12.867  23.527  0.00  0.00    +0.000 C 
ENDBRANCH  28  32
ENDBRANCH  22  28
ENDBRANCH  21  25
ENDBRANCH   1  21
TORSDOF 9
ENDMDL
MODEL 9
REMARK VINA RESULT:      -7.4      2.192      3.193
REMARK  Name = 
REMARK  12 active torsions:
REMARK  status: ('A' for Active; 'I' for Inactive)
REMARK    1  A    between atoms: C_1  and  C_2
REMARK    2  A    between atoms: C_2  and  C_3
REMARK    3  A    between atoms: C_3  and  C_4
REMARK    4  A    between atoms: C_3  and  C_5
REMARK    5  A    between atoms: C_3  and  C_6
REMARK    6  A    between atoms: C_9  and  O_10
REMARK    7  A    between atoms: O_10  and  C_11
REMARK    8  A    between atoms: C_14  and  N_15
REMARK    9  A    between atoms: C_16  and  C_18
REMARK   10  A    between atoms: C_18  and  O_19
REMARK   11  A    between atoms: O_19  and  C_20
REMARK   12  A    between atoms: C_20  and  C_22
REMARK                            x       y       z     vdW  Elec       q    Type
REMARK                         _______ _______ _______ _____ _____    ______ ____
ROOT
ATOM      1  C   UNL     1       1.564   9.185  18.890  0.00  0.00    +0.000 A 
ATOM      2  C   UNL     1       2.279   8.261  18.128  0.00  0.00    +0.000 A 
ATOM      3  C   UNL     1       2.593   7.007  18.647  0.00  0.00    +0.000 A 
ATOM      4  C   UNL     1       2.281   6.670  19.963  0.00  0.00    +0.000 A 
ATOM      5  C   UNL     1       1.612   7.624  20.751  0.00  0.00    +0.000 A 
ATOM      6  C   UNL     1       1.258   8.874  20.215  0.00  0.00    +0.000 A 
ENDROOT
BRANCH   4   7
ATOM      7  N   UNL     1       2.622   5.416  20.532  0.00  0.00    +0.000 N 
ATOM      8  C   UNL     1       1.833   4.274  20.505  0.00  0.00    +0.000 C 
ATOM      9  O   UNL     1       0.707   4.179  20.022  0.00  0.00    +0.000 OA
ATOM     10  H   UNL     1       3.482   5.380  21.056  0.00  0.00    +0.000 HD
BRANCH   8  11
ATOM     11  C   UNL     1       2.462   3.040  21.156  0.00  0.00    +0.000 C 
BRANCH  11  12
ATOM     12  O   UNL     1       3.723   2.747  20.555  0.00  0.00    +0.000 OA
BRANCH  12  13
ATOM     13  C   UNL     1       3.648   2.478  19.226  0.00  0.00    +0.000 C 
ATOM     14  O   UNL     1       3.011   1.552  18.739  0.00  0.00    +0.000 OA
BRANCH  13  15
ATOM     15  C   UNL     1       4.472   3.452  18.450  0.00  0.00    +0.000 C 
ATOM     16  C   UNL     1       4.044   3.761  17.220  0.00  0.00    +0.000 C 
ATOM     17  O   UNL     1       4.668   4.586  16.334  0.00  0.00    +0.000 OA
ATOM     18  C   UNL     1       5.812   5.262  16.847  0.00  0.00    +0.000 C 
ATOM     19  C   UNL     1       6.465   4.667  18.096  0.00  0.00    +0.000 C 
ATOM     20  O   UNL     1       5.613   3.978  19.010  0.00  0.00    +0.000 OA
ENDBRANCH  13  15
ENDBRANCH  12  13
ENDBRANCH  11  12
ENDBRANCH   8  11
ENDBRANCH   4   7
BRANCH   1  21
ATOM     21  O   UNL     1       1.136  10.395  18.370  0.00  0.00    +0.000 OA
BRANCH  21  25
ATOM     22  C   UNL     1      -1.446  12.547  20.924  0.00  0.00    +0.000 A 
ATOM     23  C   UNL     1      -0.054  12.675  21.026  0.00  0.00    +0.000 A 
ATOM     24  C   UNL     1       0.805  12.027  20.139  0.00  0.00    +0.000 A 
ATOM     25  C   UNL     1       0.305  11.158  19.174  0.00  0.00    +0.000 A 
ATOM     26  C   UNL     1      -1.075  11.036  19.019  0.00  0.00    +0.000 A 
ATOM     27  C   UNL     1      -1.941  11.732  19.884  0.00  0.00    +0.000 A 
BRANCH  22  28
ATOM     28  C   UNL     1      -2.391  13.297  21.885  0.00  0.00    +0.000 C 
ATOM     29  C   UNL     1      -3.485  14.113  21.148  0.00  0.00    +0.000 C 
ATOM     30  C   UNL     1      -1.587  14.326  22.719  0.00  0.00    +0.000 C 
BRANCH  28  32
ATOM     31  C   UNL     1      -3.705  12.941  24.108  0.00  0.00    +0.000 C 
ATOM     32  C   UNL     1      -3.075  12.305  22.873  0.00  0.00    +0.000 C 
ENDBRANCH  28  32
ENDBRANCH  22  28
ENDBRANCH  21  25
ENDBRANCH   1  21
TORSDOF 9
ENDMDL
