MODEL 1
REMARK VINA RESULT:      -8.0      0.000      0.000
REMARK  Name = 
REMARK  9 active torsions:
REMARK  status: ('A' for Active; 'I' for Inactive)
REMARK    1  A    between atoms: C_1  and  N_2
REMARK    2  A    between atoms: N_2  and  C_3
REMARK    3  A    between atoms: C_8  and  C_9
REMARK    4  A    between atoms: C_9  and  C_10
REMARK    5  A    between atoms: N_23  and  C1*_24
REMARK    6  A    between atoms: C4*_26  and  C5*_27
REMARK    7  A    between atoms: C5*_27  and  O5*_28
REMARK    8  A    between atoms: C3*_29  and  O3*_30
REMARK    9  A    between atoms: C2*_31  and  O2*_32
REMARK                            x       y       z     vdW  Elec       q    Type
REMARK                         _______ _______ _______ _____ _____    ______ ____
ROOT
ATOM      1  C   UNL     1       1.492   4.144  20.558  0.00  0.00    +0.000 A 
ATOM      2  N   UNL     1       0.929   5.375  20.731  0.00  0.00    +0.000 NA
ATOM      3  C   UNL     1       1.633   6.489  20.385  0.00  0.00    +0.000 A 
ATOM      4  N   UNL     1       1.082   7.787  20.637  0.00  0.00    +0.000 N 
ATOM      5  C   UNL     1       1.680   8.980  20.282  0.00  0.00    +0.000 A 
ATOM      6  C   UNL     1       0.842   9.966  20.733  0.00  0.00    +0.000 A 
ATOM      7  N   UNL     1      -0.246   9.372  21.320  0.00  0.00    +0.000 NA
ATOM      8  N   UNL     1      -0.094   8.044  21.258  0.00  0.00    +0.000 NA
ATOM      9  N   UNL     1       2.871   6.508  19.826  0.00  0.00    +0.000 NA
ATOM     10  C   UNL     1       3.393   5.291  19.706  0.00  0.00    +0.000 A 
ATOM     11  C   UNL     1       2.802   4.087  20.035  0.00  0.00    +0.000 A 
ATOM     12  N   UNL     1       3.659   3.039  19.759  0.00  0.00    +0.000 NA
ATOM     13  C   UNL     1       4.756   3.608  19.300  0.00  0.00    +0.000 A 
ATOM     14  N   UNL     1       4.641   4.972  19.259  0.00  0.00    +0.000 N 
ENDROOT
BRANCH  14  15
ATOM     15  C1* UNL     1       5.649   5.930  18.848  0.00  0.00    +0.000 C 
ATOM     16  O4* UNL     1       5.430   6.279  17.462  0.00  0.00    +0.000 OA
ATOM     17  C4* UNL     1       6.705   6.299  16.773  0.00  0.00    +0.000 C 
ATOM     18  C3* UNL     1       7.785   6.150  17.841  0.00  0.00    +0.000 C 
ATOM     19  C2* UNL     1       7.082   5.400  18.962  0.00  0.00    +0.000 C 
BRANCH  18  20
ATOM     20  O3* UNL     1       8.206   7.426  18.359  0.00  0.00    +0.000 OA
ATOM     21  H3* UNL     1       7.520   7.776  18.955  0.00  0.00    +0.000 HD
ENDBRANCH  18  20
BRANCH  19  22
ATOM     22  O2* UNL     1       7.688   5.676  20.223  0.00  0.00    +0.000 OA
ATOM     23  H2* UNL     1       8.650   5.521  20.110  0.00  0.00    +0.000 HD
ENDBRANCH  19  22
BRANCH  17  24
ATOM     24  C5* UNL     1       6.722   5.168  15.740  0.00  0.00    +0.000 C 
BRANCH  24  25
ATOM     25  O5* UNL     1       7.702   5.424  14.738  0.00  0.00    +0.000 OA
ATOM     26  H5* UNL     1       8.221   4.608  14.618  0.00  0.00    +0.000 HD
ENDBRANCH  24  25
ENDBRANCH  17  24
ENDBRANCH  14  15
BRANCH   1  28
ATOM     27  C   UNL     1       1.303   2.287  22.081  0.00  0.00    +0.000 C 
ATOM     28  N   UNL     1       0.812   2.971  20.914  0.00  0.00    +0.000 N 
ATOM     29  H   UNL     1      -0.197   3.129  20.882  0.00  0.00    +0.000 HD
ENDBRANCH   1  28
BRANCH   6  30
ATOM     30  C   UNL     1       0.923  11.426  20.472  0.00  0.00    +0.000 C 
BRANCH  30  31
ATOM     31  C   UNL     1       0.875  11.978  19.031  0.00  0.00    +0.000 C 
ATOM     32  C   UNL     1      -0.124  13.109  18.776  0.00  0.00    +0.000 C 
ATOM     33  C   UNL     1       0.375  14.498  19.155  0.00  0.00    +0.000 C 
ATOM     34  C   UNL     1       1.800  14.811  18.702  0.00  0.00    +0.000 C 
ATOM     35  C   UNL     1       2.796  13.664  18.829  0.00  0.00    +0.000 C 
ATOM     36  C   UNL     1       2.229  12.320  18.397  0.00  0.00    +0.000 C 
ENDBRANCH  30  31
ENDBRANCH   6  30
TORSDOF 8
ENDMDL
MODEL 2
REMARK VINA RESULT:      -7.8      0.915      1.646
REMARK  Name = 
REMARK  9 active torsions:
REMARK  status: ('A' for Active; 'I' for Inactive)
REMARK    1  A    between atoms: C_1  and  N_2
REMARK    2  A    between atoms: N_2  and  C_3
REMARK    3  A    between atoms: C_8  and  C_9
REMARK    4  A    between atoms: C_9  and  C_10
REMARK    5  A    between atoms: N_23  and  C1*_24
REMARK    6  A    between atoms: C4*_26  and  C5*_27
REMARK    7  A    between atoms: C5*_27  and  O5*_28
REMARK    8  A    between atoms: C3*_29  and  O3*_30
REMARK    9  A    between atoms: C2*_31  and  O2*_32
REMARK                            x       y       z     vdW  Elec       q    Type
REMARK                         _______ _______ _______ _____ _____    ______ ____
ROOT
ATOM      1  C   UNL     1       1.537   3.998  20.576  0.00  0.00    +0.000 A 
ATOM      2  N   UNL     1       0.969   5.220  20.793  0.00  0.00    +0.000 NA
ATOM      3  C   UNL     1       1.657   6.348  20.462  0.00  0.00    +0.000 A 
ATOM      4  N   UNL     1       1.103   7.634  20.759  0.00  0.00    +0.000 N 
ATOM      5  C   UNL     1       1.685   8.841  20.424  0.00  0.00    +0.000 A 
ATOM      6  C   UNL     1       0.849   9.808  20.918  0.00  0.00    +0.000 A 
ATOM      7  N   UNL     1      -0.222   9.191  21.511  0.00  0.00    +0.000 NA
ATOM      8  N   UNL     1      -0.062   7.866  21.411  0.00  0.00    +0.000 NA
ATOM      9  N   UNL     1       2.883   6.391  19.878  0.00  0.00    +0.000 NA
ATOM     10  C   UNL     1       3.412   5.182  19.716  0.00  0.00    +0.000 A 
ATOM     11  C   UNL     1       2.836   3.965  20.025  0.00  0.00    +0.000 A 
ATOM     12  N   UNL     1       3.695   2.931  19.704  0.00  0.00    +0.000 NA
ATOM     13  C   UNL     1       4.778   3.521  19.238  0.00  0.00    +0.000 A 
ATOM     14  N   UNL     1       4.652   4.884  19.235  0.00  0.00    +0.000 N 
ENDROOT
BRANCH  14  15
ATOM     15  C1* UNL     1       5.645   5.860  18.829  0.00  0.00    +0.000 C 
ATOM     16  O4* UNL     1       5.464   6.160  17.426  0.00  0.00    +0.000 OA
ATOM     17  C4* UNL     1       6.761   6.199  16.781  0.00  0.00    +0.000 C 
ATOM     18  C3* UNL     1       7.807   6.116  17.889  0.00  0.00    +0.000 C 
ATOM     19  C2* UNL     1       7.088   5.379  19.009  0.00  0.00    +0.000 C 
BRANCH  18  20
ATOM     20  O3* UNL     1       8.171   7.420  18.381  0.00  0.00    +0.000 OA
ATOM     21  H3* UNL     1       8.704   7.323  19.191  0.00  0.00    +0.000 HD
ENDBRANCH  18  20
BRANCH  19  22
ATOM     22  O2* UNL     1       7.641   5.712  20.280  0.00  0.00    +0.000 OA
ATOM     23  H2* UNL     1       7.629   6.691  20.342  0.00  0.00    +0.000 HD
ENDBRANCH  19  22
BRANCH  17  24
ATOM     24  C5* UNL     1       6.848   5.039  15.785  0.00  0.00    +0.000 C 
BRANCH  24  25
ATOM     25  O5* UNL     1       6.862   5.531  14.448  0.00  0.00    +0.000 OA
ATOM     26  H5* UNL     1       7.093   4.787  13.862  0.00  0.00    +0.000 HD
ENDBRANCH  24  25
ENDBRANCH  17  24
ENDBRANCH  14  15
BRANCH   1  28
ATOM     27  C   UNL     1       1.288   2.184  22.141  0.00  0.00    +0.000 C 
ATOM     28  N   UNL     1       0.873   2.811  20.914  0.00  0.00    +0.000 N 
ATOM     29  H   UNL     1      -0.136   2.928  20.792  0.00  0.00    +0.000 HD
ENDBRANCH   1  28
BRANCH   6  30
ATOM     30  C   UNL     1       0.914  11.276  20.694  0.00  0.00    +0.000 C 
BRANCH  30  31
ATOM     31  C   UNL     1       0.423  11.898  19.369  0.00  0.00    +0.000 C 
ATOM     32  C   UNL     1      -0.207  10.931  18.364  0.00  0.00    +0.000 C 
ATOM     33  C   UNL     1      -1.677  10.619  18.614  0.00  0.00    +0.000 C 
ATOM     34  C   UNL     1      -2.542  11.837  18.936  0.00  0.00    +0.000 C 
ATOM     35  C   UNL     1      -1.897  12.881  19.839  0.00  0.00    +0.000 C 
ATOM     36  C   UNL     1      -0.441  13.158  19.499  0.00  0.00    +0.000 C 
ENDBRANCH  30  31
ENDBRANCH   6  30
TORSDOF 8
ENDMDL
MODEL 3
REMARK VINA RESULT:      -7.8      0.890      1.117
REMARK  Name = 
REMARK  9 active torsions:
REMARK  status: ('A' for Active; 'I' for Inactive)
REMARK    1  A    between atoms: C_1  and  N_2
REMARK    2  A    between atoms: N_2  and  C_3
REMARK    3  A    between atoms: C_8  and  C_9
REMARK    4  A    between atoms: C_9  and  C_10
REMARK    5  A    between atoms: N_23  and  C1*_24
REMARK    6  A    between atoms: C4*_26  and  C5*_27
REMARK    7  A    between atoms: C5*_27  and  O5*_28
REMARK    8  A    between atoms: C3*_29  and  O3*_30
REMARK    9  A    between atoms: C2*_31  and  O2*_32
REMARK                            x       y       z     vdW  Elec       q    Type
REMARK                         _______ _______ _______ _____ _____    ______ ____
ROOT
ATOM      1  C   UNL     1       1.477   4.102  20.567  0.00  0.00    +0.000 A 
ATOM      2  N   UNL     1       0.929   5.330  20.797  0.00  0.00    +0.000 NA
ATOM      3  C   UNL     1       1.638   6.451  20.483  0.00  0.00    +0.000 A 
ATOM      4  N   UNL     1       1.103   7.742  20.795  0.00  0.00    +0.000 N 
ATOM      5  C   UNL     1       1.707   8.943  20.477  0.00  0.00    +0.000 A 
ATOM      6  C   UNL     1       0.885   9.918  20.981  0.00  0.00    +0.000 A 
ATOM      7  N   UNL     1      -0.198   9.311  21.562  0.00  0.00    +0.000 NA
ATOM      8  N   UNL     1      -0.060   7.985  21.445  0.00  0.00    +0.000 NA
ATOM      9  N   UNL     1       2.866   6.481  19.904  0.00  0.00    +0.000 NA
ATOM     10  C   UNL     1       3.375   5.265  19.729  0.00  0.00    +0.000 A 
ATOM     11  C   UNL     1       2.777   4.054  20.020  0.00  0.00    +0.000 A 
ATOM     12  N   UNL     1       3.620   3.010  19.689  0.00  0.00    +0.000 NA
ATOM     13  C   UNL     1       4.715   3.587  19.234  0.00  0.00    +0.000 A 
ATOM     14  N   UNL     1       4.612   4.952  19.248  0.00  0.00    +0.000 N 
ENDROOT
BRANCH  14  15
ATOM     15  C1* UNL     1       5.623   5.917  18.858  0.00  0.00    +0.000 C 
ATOM     16  O4* UNL     1       5.415   6.283  17.475  0.00  0.00    +0.000 OA
ATOM     17  C4* UNL     1       6.696   6.313  16.798  0.00  0.00    +0.000 C 
ATOM     18  C3* UNL     1       7.767   6.152  17.872  0.00  0.00    +0.000 C 
ATOM     19  C2* UNL     1       7.055   5.388  18.978  0.00  0.00    +0.000 C 
BRANCH  18  20
ATOM     20  O3* UNL     1       8.182   7.422  18.410  0.00  0.00    +0.000 OA
ATOM     21  H3* UNL     1       8.438   8.015  17.681  0.00  0.00    +0.000 HD
ENDBRANCH  18  20
BRANCH  19  22
ATOM     22  O2* UNL     1       7.649   5.649  20.248  0.00  0.00    +0.000 OA
ATOM     23  H2* UNL     1       7.859   4.775  20.642  0.00  0.00    +0.000 HD
ENDBRANCH  19  22
BRANCH  17  24
ATOM     24  C5* UNL     1       6.723   5.196  15.750  0.00  0.00    +0.000 C 
BRANCH  24  25
ATOM     25  O5* UNL     1       7.665   5.499  14.724  0.00  0.00    +0.000 OA
ATOM     26  H5* UNL     1       7.185   5.496  13.875  0.00  0.00    +0.000 HD
ENDBRANCH  24  25
ENDBRANCH  17  24
ENDBRANCH  14  15
BRANCH   1  28
ATOM     27  C   UNL     1       1.257   2.221  22.055  0.00  0.00    +0.000 C 
ATOM     28  N   UNL     1       0.792   2.922  20.887  0.00  0.00    +0.000 N 
ATOM     29  H   UNL     1      -0.217   3.078  20.834  0.00  0.00    +0.000 HD
ENDBRANCH   1  28
BRANCH   6  30
ATOM     30  C   UNL     1       0.976  11.387  20.776  0.00  0.00    +0.000 C 
BRANCH  30  31
ATOM     31  C   UNL     1      -0.295  12.262  20.734  0.00  0.00    +0.000 C 
ATOM     32  C   UNL     1      -0.134  13.707  21.211  0.00  0.00    +0.000 C 
ATOM     33  C   UNL     1       0.409  14.669  20.161  0.00  0.00    +0.000 C 
ATOM     34  C   UNL     1      -0.232  14.536  18.781  0.00  0.00    +0.000 C 
ATOM     35  C   UNL     1      -0.519  13.110  18.325  0.00  0.00    +0.000 C 
ATOM     36  C   UNL     1      -1.091  12.227  19.423  0.00  0.00    +0.000 C 
ENDBRANCH  30  31
ENDBRANCH   6  30
TORSDOF 8
ENDMDL
MODEL 4
REMARK VINA RESULT:      -7.5      1.171      1.476
REMARK  Name = 
REMARK  9 active torsions:
REMARK  status: ('A' for Active; 'I' for Inactive)
REMARK    1  A    between atoms: C_1  and  N_2
REMARK    2  A    between atoms: N_2  and  C_3
REMARK    3  A    between atoms: C_8  and  C_9
REMARK    4  A    between atoms: C_9  and  C_10
REMARK    5  A    between atoms: N_23  and  C1*_24
REMARK    6  A    between atoms: C4*_26  and  C5*_27
REMARK    7  A    between atoms: C5*_27  and  O5*_28
REMARK    8  A    between atoms: C3*_29  and  O3*_30
REMARK    9  A    between atoms: C2*_31  and  O2*_32
REMARK                            x       y       z     vdW  Elec       q    Type
REMARK                         _______ _______ _______ _____ _____    ______ ____
ROOT
ATOM      1  C   UNL     1       1.546   3.953  20.550  0.00  0.00    +0.000 A 
ATOM      2  N   UNL     1       1.082   5.224  20.731  0.00  0.00    +0.000 NA
ATOM      3  C   UNL     1       1.721   6.263  20.126  0.00  0.00    +0.000 A 
ATOM      4  N   UNL     1       1.290   7.606  20.374  0.00  0.00    +0.000 N 
ATOM      5  C   UNL     1       1.826   8.730  19.777  0.00  0.00    +0.000 A 
ATOM      6  C   UNL     1       1.153   9.795  20.316  0.00  0.00    +0.000 A 
ATOM      7  N   UNL     1       0.216   9.315  21.194  0.00  0.00    +0.000 NA
ATOM      8  N   UNL     1       0.304   7.980  21.226  0.00  0.00    +0.000 NA
ATOM      9  N   UNL     1       2.790   6.166  19.294  0.00  0.00    +0.000 NA
ATOM     10  C   UNL     1       3.228   4.917  19.172  0.00  0.00    +0.000 A 
ATOM     11  C   UNL     1       2.691   3.779  19.744  0.00  0.00    +0.000 A 
ATOM     12  N   UNL     1       3.423   2.665  19.377  0.00  0.00    +0.000 NA
ATOM     13  C   UNL     1       4.398   3.133  18.622  0.00  0.00    +0.000 A 
ATOM     14  N   UNL     1       4.322   4.492  18.479  0.00  0.00    +0.000 N 
ENDROOT
BRANCH  14  15
ATOM     15  C1* UNL     1       5.236   5.354  17.754  0.00  0.00    +0.000 C 
ATOM     16  O4* UNL     1       4.664   5.668  16.464  0.00  0.00    +0.000 OA
ATOM     17  C4* UNL     1       5.696   5.565  15.452  0.00  0.00    +0.000 C 
ATOM     18  C3* UNL     1       7.018   5.373  16.190  0.00  0.00    +0.000 C 
ATOM     19  C2* UNL     1       6.607   4.721  17.502  0.00  0.00    +0.000 C 
BRANCH  18  20
ATOM     20  O3* UNL     1       7.647   6.631  16.500  0.00  0.00    +0.000 OA
ATOM     21  H3* UNL     1       7.639   6.768  17.465  0.00  0.00    +0.000 HD
ENDBRANCH  18  20
BRANCH  19  22
ATOM     22  O2* UNL     1       7.555   4.996  18.531  0.00  0.00    +0.000 OA
ATOM     23  H2* UNL     1       8.409   4.616  18.233  0.00  0.00    +0.000 HD
ENDBRANCH  19  22
BRANCH  17  24
ATOM     24  C5* UNL     1       5.355   4.399  14.519  0.00  0.00    +0.000 C 
BRANCH  24  25
ATOM     25  O5* UNL     1       6.523   3.638  14.225  0.00  0.00    +0.000 OA
ATOM     26  H5* UNL     1       6.304   3.034  13.493  0.00  0.00    +0.000 HD
ENDBRANCH  24  25
ENDBRANCH  17  24
ENDBRANCH  14  15
BRANCH   1  28
ATOM     27  C   UNL     1       1.661   2.245  22.246  0.00  0.00    +0.000 C 
ATOM     28  N   UNL     1       0.931   2.853  21.165  0.00  0.00    +0.000 N 
ATOM     29  H   UNL     1      -0.052   3.064  21.354  0.00  0.00    +0.000 HD
ENDBRANCH   1  28
BRANCH   6  30
ATOM     30  C   UNL     1       1.219  11.222  19.905  0.00  0.00    +0.000 C 
BRANCH  30  31
ATOM     31  C   UNL     1       0.169  12.240  20.401  0.00  0.00    +0.000 C 
ATOM     32  C   UNL     1       0.714  13.450  21.164  0.00  0.00    +0.000 C 
ATOM     33  C   UNL     1       1.214  14.587  20.282  0.00  0.00    +0.000 C 
ATOM     34  C   UNL     1       0.291  14.947  19.119  0.00  0.00    +0.000 C 
ATOM     35  C   UNL     1      -0.365  13.767  18.412  0.00  0.00    +0.000 C 
ATOM     36  C   UNL     1      -0.867  12.694  19.366  0.00  0.00    +0.000 C 
ENDBRANCH  30  31
ENDBRANCH   6  30
TORSDOF 8
ENDMDL
MODEL 5
REMARK VINA RESULT:      -7.4      1.203      1.493
REMARK  Name = 
REMARK  9 active torsions:
REMARK  status: ('A' for Active; 'I' for Inactive)
REMARK    1  A    between atoms: C_1  and  N_2
REMARK    2  A    between atoms: N_2  and  C_3
REMARK    3  A    between atoms: C_8  and  C_9
REMARK    4  A    between atoms: C_9  and  C_10
REMARK    5  A    between atoms: N_23  and  C1*_24
REMARK    6  A    between atoms: C4*_26  and  C5*_27
REMARK    7  A    between atoms: C5*_27  and  O5*_28
REMARK    8  A    between atoms: C3*_29  and  O3*_30
REMARK    9  A    between atoms: C2*_31  and  O2*_32
REMARK                            x       y       z     vdW  Elec       q    Type
REMARK                         _______ _______ _______ _____ _____    ______ ____
ROOT
ATOM      1  C   UNL     1       2.259   4.422  21.099  0.00  0.00    +0.000 A 
ATOM      2  N   UNL     1       1.637   5.634  21.019  0.00  0.00    +0.000 NA
ATOM      3  C   UNL     1       2.090   6.562  20.130  0.00  0.00    +0.000 A 
ATOM      4  N   UNL     1       1.495   7.864  20.095  0.00  0.00    +0.000 N 
ATOM      5  C   UNL     1       1.835   8.863  19.204  0.00  0.00    +0.000 A 
ATOM      6  C   UNL     1       1.056   9.941  19.537  0.00  0.00    +0.000 A 
ATOM      7  N   UNL     1       0.249   9.582  20.586  0.00  0.00    +0.000 NA
ATOM      8  N   UNL     1       0.520   8.315  20.921  0.00  0.00    +0.000 NA
ATOM      9  N   UNL     1       3.110   6.392  19.250  0.00  0.00    +0.000 NA
ATOM     10  C   UNL     1       3.707   5.212  19.386  0.00  0.00    +0.000 A 
ATOM     11  C   UNL     1       3.366   4.193  20.254  0.00  0.00    +0.000 A 
ATOM     12  N   UNL     1       4.220   3.118  20.094  0.00  0.00    +0.000 NA
ATOM     13  C   UNL     1       5.075   3.498  19.165  0.00  0.00    +0.000 A 
ATOM     14  N   UNL     1       4.805   4.762  18.714  0.00  0.00    +0.000 N 
ENDROOT
BRANCH  14  15
ATOM     15  C1* UNL     1       5.547   5.523  17.726  0.00  0.00    +0.000 C 
ATOM     16  O4* UNL     1       4.991   5.264  16.418  0.00  0.00    +0.000 OA
ATOM     17  C4* UNL     1       6.074   5.071  15.475  0.00  0.00    +0.000 C 
ATOM     18  C3* UNL     1       7.364   5.431  16.206  0.00  0.00    +0.000 C 
ATOM     19  C2* UNL     1       7.035   5.166  17.668  0.00  0.00    +0.000 C 
BRANCH  18  20
ATOM     20  O3* UNL     1       7.686   6.828  16.072  0.00  0.00    +0.000 OA
ATOM     21  H3* UNL     1       7.866   7.031  15.136  0.00  0.00    +0.000 HD
ENDBRANCH  18  20
BRANCH  19  22
ATOM     22  O2* UNL     1       7.843   5.966  18.529  0.00  0.00    +0.000 OA
ATOM     23  H2* UNL     1       8.150   5.376  19.250  0.00  0.00    +0.000 HD
ENDBRANCH  19  22
BRANCH  17  24
ATOM     24  C5* UNL     1       6.046   3.621  14.985  0.00  0.00    +0.000 C 
BRANCH  24  25
ATOM     25  O5* UNL     1       6.298   3.564  13.583  0.00  0.00    +0.000 OA
ATOM     26  H5* UNL     1       7.222   3.277  13.462  0.00  0.00    +0.000 HD
ENDBRANCH  24  25
ENDBRANCH  17  24
ENDBRANCH  14  15
BRANCH   1  28
ATOM     27  C   UNL     1       1.155   2.308  21.442  0.00  0.00    +0.000 C 
ATOM     28  N   UNL     1       1.838   3.441  22.008  0.00  0.00    +0.000 N 
ATOM     29  H   UNL     1       2.594   3.224  22.662  0.00  0.00    +0.000 HD
ENDBRANCH   1  28
BRANCH   6  30
ATOM     30  C   UNL     1       0.901  11.221  18.798  0.00  0.00    +0.000 C 
BRANCH  30  31
ATOM     31  C   UNL     1       1.736  12.463  19.180  0.00  0.00    +0.000 C 
ATOM     32  C   UNL     1       1.447  13.738  18.385  0.00  0.00    +0.000 C 
ATOM     33  C   UNL     1       0.254  14.544  18.884  0.00  0.00    +0.000 C 
ATOM     34  C   UNL     1       0.195  14.727  20.400  0.00  0.00    +0.000 C 
ATOM     35  C   UNL     1       0.596  13.509  21.224  0.00  0.00    +0.000 C 
ATOM     36  C   UNL     1       1.816  12.783  20.678  0.00  0.00    +0.000 C 
ENDBRANCH  30  31
ENDBRANCH   6  30
TORSDOF 8
ENDMDL
MODEL 6
REMARK VINA RESULT:      -7.3      0.944      1.127
REMARK  Name = 
REMARK  9 active torsions:
REMARK  status: ('A' for Active; 'I' for Inactive)
REMARK    1  A    between atoms: C_1  and  N_2
REMARK    2  A    between atoms: N_2  and  C_3
REMARK    3  A    between atoms: C_8  and  C_9
REMARK    4  A    between atoms: C_9  and  C_10
REMARK    5  A    between atoms: N_23  and  C1*_24
REMARK    6  A    between atoms: C4*_26  and  C5*_27
REMARK    7  A    between atoms: C5*_27  and  O5*_28
REMARK    8  A    between atoms: C3*_29  and  O3*_30
REMARK    9  A    between atoms: C2*_31  and  O2*_32
REMARK                            x       y       z     vdW  Elec       q    Type
REMARK                         _______ _______ _______ _____ _____    ______ ____
ROOT
ATOM      1  C   UNL     1       1.529   4.170  20.439  0.00  0.00    +0.000 A 
ATOM      2  N   UNL     1       1.010   5.402  20.713  0.00  0.00    +0.000 NA
ATOM      3  C   UNL     1       1.641   6.515  20.247  0.00  0.00    +0.000 A 
ATOM      4  N   UNL     1       1.147   7.813  20.598  0.00  0.00    +0.000 N 
ATOM      5  C   UNL     1       1.673   9.006  20.142  0.00  0.00    +0.000 A 
ATOM      6  C   UNL     1       0.933   9.992  20.740  0.00  0.00    +0.000 A 
ATOM      7  N   UNL     1      -0.031   9.399  21.514  0.00  0.00    +0.000 NA
ATOM      8  N   UNL     1       0.104   8.071  21.423  0.00  0.00    +0.000 NA
ATOM      9  N   UNL     1       2.756   6.534  19.471  0.00  0.00    +0.000 NA
ATOM     10  C   UNL     1       3.246   5.317  19.257  0.00  0.00    +0.000 A 
ATOM     11  C   UNL     1       2.721   4.112  19.685  0.00  0.00    +0.000 A 
ATOM     12  N   UNL     1       3.513   3.063  19.256  0.00  0.00    +0.000 NA
ATOM     13  C   UNL     1       4.509   3.632  18.606  0.00  0.00    +0.000 A 
ATOM     14  N   UNL     1       4.390   4.996  18.589  0.00  0.00    +0.000 N 
ENDROOT
BRANCH  14  15
ATOM     15  C1* UNL     1       5.309   5.953  18.003  0.00  0.00    +0.000 C 
ATOM     16  O4* UNL     1       4.999   6.105  16.599  0.00  0.00    +0.000 OA
ATOM     17  C4* UNL     1       6.233   6.115  15.841  0.00  0.00    +0.000 C 
ATOM     18  C3* UNL     1       7.372   6.173  16.855  0.00  0.00    +0.000 C 
ATOM     19  C2* UNL     1       6.778   5.534  18.101  0.00  0.00    +0.000 C 
BRANCH  18  20
ATOM     20  O3* UNL     1       7.729   7.530  17.183  0.00  0.00    +0.000 OA
ATOM     21  H3* UNL     1       7.453   7.726  18.096  0.00  0.00    +0.000 HD
ENDBRANCH  18  20
BRANCH  19  22
ATOM     22  O2* UNL     1       7.425   6.008  19.280  0.00  0.00    +0.000 OA
ATOM     23  H2* UNL     1       8.369   6.137  19.048  0.00  0.00    +0.000 HD
ENDBRANCH  19  22
BRANCH  17  24
ATOM     24  C5* UNL     1       6.278   4.863  14.960  0.00  0.00    +0.000 C 
BRANCH  24  25
ATOM     25  O5* UNL     1       5.101   4.081  15.146  0.00  0.00    +0.000 OA
ATOM     26  H5* UNL     1       5.345   3.146  15.013  0.00  0.00    +0.000 HD
ENDBRANCH  24  25
ENDBRANCH  17  24
ENDBRANCH  14  15
BRANCH   1  28
ATOM     27  C   UNL     1       1.523   2.402  22.075  0.00  0.00    +0.000 C 
ATOM     28  N   UNL     1       0.923   2.997  20.910  0.00  0.00    +0.000 N 
ATOM     29  H   UNL     1      -0.091   3.117  20.943  0.00  0.00    +0.000 HD
ENDBRANCH   1  28
BRANCH   6  30
ATOM     30  C   UNL     1       0.968  11.454  20.471  0.00  0.00    +0.000 C 
BRANCH  30  31
ATOM     31  C   UNL     1       0.181  12.062  19.290  0.00  0.00    +0.000 C 
ATOM     32  C   UNL     1      -1.262  12.478  19.586  0.00  0.00    +0.000 C 
ATOM     33  C   UNL     1      -1.411  13.851  20.226  0.00  0.00    +0.000 C 
ATOM     34  C   UNL     1      -0.564  14.950  19.587  0.00  0.00    +0.000 C 
ATOM     35  C   UNL     1       0.842  14.536  19.168  0.00  0.00    +0.000 C 
ATOM     36  C   UNL     1       0.897  13.168  18.505  0.00  0.00    +0.000 C 
ENDBRANCH  30  31
ENDBRANCH   6  30
TORSDOF 8
ENDMDL
MODEL 7
REMARK VINA RESULT:      -7.3      1.386      1.789
REMARK  Name = 
REMARK  9 active torsions:
REMARK  status: ('A' for Active; 'I' for Inactive)
REMARK    1  A    between atoms: C_1  and  N_2
REMARK    2  A    between atoms: N_2  and  C_3
REMARK    3  A    between atoms: C_8  and  C_9
REMARK    4  A    between atoms: C_9  and  C_10
REMARK    5  A    between atoms: N_23  and  C1*_24
REMARK    6  A    between atoms: C4*_26  and  C5*_27
REMARK    7  A    between atoms: C5*_27  and  O5*_28
REMARK    8  A    between atoms: C3*_29  and  O3*_30
REMARK    9  A    between atoms: C2*_31  and  O2*_32
REMARK                            x       y       z     vdW  Elec       q    Type
REMARK                         _______ _______ _______ _____ _____    ______ ____
ROOT
ATOM      1  C   UNL     1       1.546   3.918  20.208  0.00  0.00    +0.000 A 
ATOM      2  N   UNL     1       0.968   5.110  20.536  0.00  0.00    +0.000 NA
ATOM      3  C   UNL     1       1.685   6.261  20.407  0.00  0.00    +0.000 A 
ATOM      4  N   UNL     1       1.114   7.506  20.825  0.00  0.00    +0.000 N 
ATOM      5  C   UNL     1       1.726   8.737  20.693  0.00  0.00    +0.000 A 
ATOM      6  C   UNL     1       0.858   9.645  21.242  0.00  0.00    +0.000 A 
ATOM      7  N   UNL     1      -0.259   8.972  21.666  0.00  0.00    +0.000 NA
ATOM      8  N   UNL     1      -0.097   7.669  21.409  0.00  0.00    +0.000 NA
ATOM      9  N   UNL     1       2.953   6.361  19.930  0.00  0.00    +0.000 NA
ATOM     10  C   UNL     1       3.488   5.175  19.655  0.00  0.00    +0.000 A 
ATOM     11  C   UNL     1       2.884   3.937  19.759  0.00  0.00    +0.000 A 
ATOM     12  N   UNL     1       3.761   2.940  19.374  0.00  0.00    +0.000 NA
ATOM     13  C   UNL     1       4.880   3.570  19.073  0.00  0.00    +0.000 A 
ATOM     14  N   UNL     1       4.760   4.923  19.236  0.00  0.00    +0.000 N 
ENDROOT
BRANCH  14  15
ATOM     15  C1* UNL     1       5.786   5.930  19.036  0.00  0.00    +0.000 C 
ATOM     16  O4* UNL     1       5.624   6.513  17.724  0.00  0.00    +0.000 OA
ATOM     17  C4* UNL     1       6.925   6.641  17.100  0.00  0.00    +0.000 C 
ATOM     18  C3* UNL     1       7.961   6.302  18.168  0.00  0.00    +0.000 C 
ATOM     19  C2* UNL     1       7.212   5.376  19.115  0.00  0.00    +0.000 C 
BRANCH  18  20
ATOM     20  O3* UNL     1       8.363   7.466  18.914  0.00  0.00    +0.000 OA
ATOM     21  H3* UNL     1       8.495   8.213  18.304  0.00  0.00    +0.000 HD
ENDBRANCH  18  20
BRANCH  19  22
ATOM     22  O2* UNL     1       7.767   5.426  20.428  0.00  0.00    +0.000 OA
ATOM     23  H2* UNL     1       7.872   6.376  20.650  0.00  0.00    +0.000 HD
ENDBRANCH  19  22
BRANCH  17  24
ATOM     24  C5* UNL     1       6.983   5.705  15.889  0.00  0.00    +0.000 C 
BRANCH  24  25
ATOM     25  O5* UNL     1       5.797   5.827  15.109  0.00  0.00    +0.000 OA
ATOM     26  H5* UNL     1       6.026   6.319  14.299  0.00  0.00    +0.000 HD
ENDBRANCH  24  25
ENDBRANCH  17  24
ENDBRANCH  14  15
BRANCH   1  28
ATOM     27  C   UNL     1       0.521   2.035  19.109  0.00  0.00    +0.000 C 
ATOM     28  N   UNL     1       0.853   2.706  20.338  0.00  0.00    +0.000 N 
ATOM     29  H   UNL     1       1.293   2.128  21.057  0.00  0.00    +0.000 HD
ENDBRANCH   1  28
BRANCH   6  30
ATOM     30  C   UNL     1       0.947  11.128  21.215  0.00  0.00    +0.000 C 
BRANCH  30  31
ATOM     31  C   UNL     1      -0.287  11.991  20.871  0.00  0.00    +0.000 C 
ATOM     32  C   UNL     1      -1.418  11.988  21.902  0.00  0.00    +0.000 C 
ATOM     33  C   UNL     1      -1.225  12.954  23.064  0.00  0.00    +0.000 C 
ATOM     34  C   UNL     1      -0.751  14.350  22.661  0.00  0.00    +0.000 C 
ATOM     35  C   UNL     1       0.290  14.395  21.549  0.00  0.00    +0.000 C 
ATOM     36  C   UNL     1       0.003  13.425  20.413  0.00  0.00    +0.000 C 
ENDBRANCH  30  31
ENDBRANCH   6  30
TORSDOF 8
ENDMDL
MODEL 8
REMARK VINA RESULT:      -7.2      3.378      5.465
REMARK  Name = 
REMARK  9 active torsions:
REMARK  status: ('A' for Active; 'I' for Inactive)
REMARK    1  A    between atoms: C_1  and  N_2
REMARK    2  A    between atoms: N_2  and  C_3
REMARK    3  A    between atoms: C_8  and  C_9
REMARK    4  A    between atoms: C_9  and  C_10
REMARK    5  A    between atoms: N_23  and  C1*_24
REMARK    6  A    between atoms: C4*_26  and  C5*_27
REMARK    7  A    between atoms: C5*_27  and  O5*_28
REMARK    8  A    between atoms: C3*_29  and  O3*_30
REMARK    9  A    between atoms: C2*_31  and  O2*_32
REMARK                            x       y       z     vdW  Elec       q    Type
REMARK                         _______ _______ _______ _____ _____    ______ ____
ROOT
ATOM      1  C   UNL     1       5.853   6.954  17.153  0.00  0.00    +0.000 A 
ATOM      2  N   UNL     1       4.948   7.959  17.339  0.00  0.00    +0.000 NA
ATOM      3  C   UNL     1       3.659   7.651  17.652  0.00  0.00    +0.000 A 
ATOM      4  N   UNL     1       2.686   8.695  17.769  0.00  0.00    +0.000 N 
ATOM      5  C   UNL     1       1.366   8.506  18.132  0.00  0.00    +0.000 A 
ATOM      6  C   UNL     1       0.787   9.748  18.089  0.00  0.00    +0.000 A 
ATOM      7  N   UNL     1       1.747  10.660  17.735  0.00  0.00    +0.000 NA
ATOM      8  N   UNL     1       2.902  10.013  17.542  0.00  0.00    +0.000 NA
ATOM      9  N   UNL     1       3.162   6.402  17.847  0.00  0.00    +0.000 NA
ATOM     10  C   UNL     1       4.068   5.454  17.624  0.00  0.00    +0.000 A 
ATOM     11  C   UNL     1       5.396   5.625  17.283  0.00  0.00    +0.000 A 
ATOM     12  N   UNL     1       6.019   4.399  17.144  0.00  0.00    +0.000 NA
ATOM     13  C   UNL     1       5.072   3.510  17.370  0.00  0.00    +0.000 A 
ATOM     14  N   UNL     1       3.874   4.106  17.657  0.00  0.00    +0.000 N 
ENDROOT
BRANCH  14  15
ATOM     15  C1* UNL     1       2.606   3.453  17.924  0.00  0.00    +0.000 C 
ATOM     16  O4* UNL     1       1.691   4.415  18.495  0.00  0.00    +0.000 OA
ATOM     17  C4* UNL     1       0.989   3.800  19.602  0.00  0.00    +0.000 C 
ATOM     18  C3* UNL     1       1.348   2.317  19.582  0.00  0.00    +0.000 C 
ATOM     19  C2* UNL     1       2.712   2.286  18.909  0.00  0.00    +0.000 C 
BRANCH  18  20
ATOM     20  O3* UNL     1       0.437   1.556  18.766  0.00  0.00    +0.000 OA
ATOM     21  H3* UNL     1       0.908   1.215  17.985  0.00  0.00    +0.000 HD
ENDBRANCH  18  20
BRANCH  19  22
ATOM     22  O2* UNL     1       2.944   1.029  18.276  0.00  0.00    +0.000 OA
ATOM     23  H2* UNL     1       2.465   0.357  18.806  0.00  0.00    +0.000 HD
ENDBRANCH  19  22
BRANCH  17  24
ATOM     24  C5* UNL     1       1.407   4.500  20.899  0.00  0.00    +0.000 C 
BRANCH  24  25
ATOM     25  O5* UNL     1       2.172   5.667  20.610  0.00  0.00    +0.000 OA
ATOM     26  H5* UNL     1       1.744   6.419  21.060  0.00  0.00    +0.000 HD
ENDBRANCH  24  25
ENDBRANCH  17  24
ENDBRANCH  14  15
BRANCH   1  28
ATOM     27  C   UNL     1       7.850   8.221  17.611  0.00  0.00    +0.000 C 
ATOM     28  N   UNL     1       7.187   7.222  16.816  0.00  0.00    +0.000 N 
ATOM     29  H   UNL     1       7.697   6.345  16.686  0.00  0.00    +0.000 HD
ENDBRANCH   1  28
BRANCH   6  30
ATOM     30  C   UNL     1      -0.572  10.139  18.546  0.00  0.00    +0.000 C 
BRANCH  30  31
ATOM     31  C   UNL     1      -1.257  11.410  17.999  0.00  0.00    +0.000 C 
ATOM     32  C   UNL     1      -2.499  11.185  17.133  0.00  0.00    +0.000 C 
ATOM     33  C   UNL     1      -3.791  10.977  17.912  0.00  0.00    +0.000 C 
ATOM     34  C   UNL     1      -4.005  11.955  19.067  0.00  0.00    +0.000 C 
ATOM     35  C   UNL     1      -2.761  12.296  19.877  0.00  0.00    +0.000 C 
ATOM     36  C   UNL     1      -1.524  12.522  19.021  0.00  0.00    +0.000 C 
ENDBRANCH  30  31
ENDBRANCH   6  30
TORSDOF 8
ENDMDL
MODEL 9
REMARK VINA RESULT:      -7.2      1.253      1.714
REMARK  Name = 
REMARK  9 active torsions:
REMARK  status: ('A' for Active; 'I' for Inactive)
REMARK    1  A    between atoms: C_1  and  N_2
REMARK    2  A    between atoms: N_2  and  C_3
REMARK    3  A    between atoms: C_8  and  C_9
REMARK    4  A    between atoms: C_9  and  C_10
REMARK    5  A    between atoms: N_23  and  C1*_24
REMARK    6  A    between atoms: C4*_26  and  C5*_27
REMARK    7  A    between atoms: C5*_27  and  O5*_28
REMARK    8  A    between atoms: C3*_29  and  O3*_30
REMARK    9  A    between atoms: C2*_31  and  O2*_32
REMARK                            x       y       z     vdW  Elec       q    Type
REMARK                         _______ _______ _______ _____ _____    ______ ____
ROOT
ATOM      1  C   UNL     1       1.495   3.965  20.437  0.00  0.00    +0.000 A 
ATOM      2  N   UNL     1       1.053   5.212  20.771  0.00  0.00    +0.000 NA
ATOM      3  C   UNL     1       1.680   6.306  20.255  0.00  0.00    +0.000 A 
ATOM      4  N   UNL     1       1.275   7.617  20.663  0.00  0.00    +0.000 N 
ATOM      5  C   UNL     1       1.801   8.795  20.168  0.00  0.00    +0.000 A 
ATOM      6  C   UNL     1       1.161   9.801  20.843  0.00  0.00    +0.000 A 
ATOM      7  N   UNL     1       0.253   9.236  21.701  0.00  0.00    +0.000 NA
ATOM      8  N   UNL     1       0.327   7.905  21.587  0.00  0.00    +0.000 NA
ATOM      9  N   UNL     1       2.716   6.290  19.376  0.00  0.00    +0.000 NA
ATOM     10  C   UNL     1       3.134   5.058  19.105  0.00  0.00    +0.000 A 
ATOM     11  C   UNL     1       2.606   3.870  19.573  0.00  0.00    +0.000 A 
ATOM     12  N   UNL     1       3.310   2.796  19.061  0.00  0.00    +0.000 NA
ATOM     13  C   UNL     1       4.261   3.334  18.322  0.00  0.00    +0.000 A 
ATOM     14  N   UNL     1       4.196   4.701  18.328  0.00  0.00    +0.000 N 
ENDROOT
BRANCH  14  15
ATOM     15  C1* UNL     1       5.091   5.630  17.664  0.00  0.00    +0.000 C 
ATOM     16  O4* UNL     1       4.904   5.523  16.235  0.00  0.00    +0.000 OA
ATOM     17  C4* UNL     1       6.200   5.521  15.588  0.00  0.00    +0.000 C 
ATOM     18  C3* UNL     1       7.231   5.845  16.665  0.00  0.00    +0.000 C 
ATOM     19  C2* UNL     1       6.572   5.365  17.950  0.00  0.00    +0.000 C 
BRANCH  18  20
ATOM     20  O3* UNL     1       7.453   7.263  16.787  0.00  0.00    +0.000 OA
ATOM     21  H3* UNL     1       7.020   7.723  16.045  0.00  0.00    +0.000 HD
ENDBRANCH  18  20
BRANCH  19  22
ATOM     22  O2* UNL     1       7.067   6.080  19.080  0.00  0.00    +0.000 OA
ATOM     23  H2* UNL     1       6.409   5.960  19.797  0.00  0.00    +0.000 HD
ENDBRANCH  19  22
BRANCH  17  24
ATOM     24  C5* UNL     1       6.422   4.152  14.938  0.00  0.00    +0.000 C 
BRANCH  24  25
ATOM     25  O5* UNL     1       6.272   4.242  13.524  0.00  0.00    +0.000 OA
ATOM     26  H5* UNL     1       6.736   5.048  13.229  0.00  0.00    +0.000 HD
ENDBRANCH  24  25
ENDBRANCH  17  24
ENDBRANCH  14  15
BRANCH   1  28
ATOM     27  C   UNL     1       1.499   2.256  22.135  0.00  0.00    +0.000 C 
ATOM     28  N   UNL     1       0.891   2.810  20.955  0.00  0.00    +0.000 N 
ATOM     29  H   UNL     1      -0.123   2.934  20.993  0.00  0.00    +0.000 HD
ENDBRANCH   1  28
BRANCH   6  30
ATOM     30  C   UNL     1       1.228  11.263  20.584  0.00  0.00    +0.000 C 
BRANCH  30  31
ATOM     31  C   UNL     1      -0.053  12.125  20.567  0.00  0.00    +0.000 C 
ATOM     32  C   UNL     1       0.014  13.414  19.744  0.00  0.00    +0.000 C 
ATOM     33  C   UNL     1      -0.240  13.232  18.253  0.00  0.00    +0.000 C 
ATOM     34  C   UNL     1      -1.430  12.336  17.912  0.00  0.00    +0.000 C 
ATOM     35  C   UNL     1      -1.597  11.104  18.793  0.00  0.00    +0.000 C 
ATOM     36  C   UNL     1      -1.360  11.379  20.270  0.00  0.00    +0.000 C 
ENDBRANCH  30  31
ENDBRANCH   6  30
TORSDOF 8
ENDMDL
