MODEL 1
REMARK VINA RESULT:      -7.6      0.000      0.000
REMARK  Name = 
REMARK  2 active torsions:
REMARK  status: ('A' for Active; 'I' for Inactive)
REMARK    1  A    between atoms: C_4  and  C_5
REMARK    2  A    between atoms: N_14  and  C_15
REMARK                            x       y       z     vdW  Elec       q    Type
REMARK                         _______ _______ _______ _____ _____    ______ ____
ROOT
ATOM      1  O   UNL     1       4.250   2.152  17.577  0.00  0.00    +0.000 OA
ATOM      2  C   UNL     1       4.212   3.370  17.449  0.00  0.00    +0.000 C 
ATOM      3  C   UNL     1       4.936   4.073  16.354  0.00  0.00    +0.000 C 
ATOM      4  C   UNL     1       5.647   3.410  15.431  0.00  0.00    +0.000 C 
ATOM      5  S   UNL     1       4.697   5.768  16.463  0.00  0.00    +0.000 S 
ATOM      6  C   UNL     1       3.658   5.628  17.880  0.00  0.00    +0.000 C 
ATOM      7  S   UNL     1       3.094   6.994  18.665  0.00  0.00    +0.000 S 
ATOM      8  N   UNL     1       3.505   4.289  18.216  0.00  0.00    +0.000 N 
ENDROOT
BRANCH   4   9
ATOM      9  C   UNL     1       6.407   4.042  14.352  0.00  0.00    +0.000 A 
ATOM     10  C   UNL     1       6.193   3.664  13.025  0.00  0.00    +0.000 A 
ATOM     11  C   UNL     1       6.942   4.257  12.013  0.00  0.00    +0.000 A 
ATOM     12  C   UNL     1       7.879   5.215  12.365  0.00  0.00    +0.000 A 
ATOM     13  N   UNL     1       8.112   5.610  13.634  0.00  0.00    +0.000 NA
ATOM     14  C   UNL     1       7.373   5.011  14.599  0.00  0.00    +0.000 A 
ENDBRANCH   4   9
BRANCH   8  15
ATOM     15  C   UNL     1       2.676   3.826  19.273  0.00  0.00    +0.000 A 
ATOM     16  C   UNL     1       3.219   3.584  20.543  0.00  0.00    +0.000 A 
ATOM     17  C   UNL     1       2.407   3.126  21.581  0.00  0.00    +0.000 A 
ATOM     18  C   UNL     1       1.057   2.870  21.351  0.00  0.00    +0.000 A 
ATOM     19  C   UNL     1       0.515   3.081  20.085  0.00  0.00    +0.000 A 
ATOM     20  C   UNL     1       1.318   3.567  19.052  0.00  0.00    +0.000 A 
ENDBRANCH   8  15
TORSDOF 2
ENDMDL
MODEL 2
REMARK VINA RESULT:      -7.5      0.096      1.081
REMARK  Name = 
REMARK  2 active torsions:
REMARK  status: ('A' for Active; 'I' for Inactive)
REMARK    1  A    between atoms: C_4  and  C_5
REMARK    2  A    between atoms: N_14  and  C_15
REMARK                            x       y       z     vdW  Elec       q    Type
REMARK                         _______ _______ _______ _____ _____    ______ ____
ROOT
ATOM      1  O   UNL     1       4.183   2.079  17.508  0.00  0.00    +0.000 OA
ATOM      2  C   UNL     1       4.184   3.301  17.420  0.00  0.00    +0.000 C 
ATOM      3  C   UNL     1       4.915   4.016  16.338  0.00  0.00    +0.000 C 
ATOM      4  C   UNL     1       5.590   3.361  15.383  0.00  0.00    +0.000 C 
ATOM      5  S   UNL     1       4.733   5.713  16.506  0.00  0.00    +0.000 S 
ATOM      6  C   UNL     1       3.710   5.560  17.933  0.00  0.00    +0.000 C 
ATOM      7  S   UNL     1       3.202   6.917  18.770  0.00  0.00    +0.000 S 
ATOM      8  N   UNL     1       3.518   4.217  18.228  0.00  0.00    +0.000 N 
ENDROOT
BRANCH   4   9
ATOM      9  C   UNL     1       6.354   4.003  14.313  0.00  0.00    +0.000 A 
ATOM     10  C   UNL     1       6.168   3.618  12.985  0.00  0.00    +0.000 A 
ATOM     11  C   UNL     1       6.921   4.221  11.982  0.00  0.00    +0.000 A 
ATOM     12  C   UNL     1       7.836   5.196  12.345  0.00  0.00    +0.000 A 
ATOM     13  N   UNL     1       8.042   5.599  13.617  0.00  0.00    +0.000 NA
ATOM     14  C   UNL     1       7.300   4.990  14.572  0.00  0.00    +0.000 A 
ENDBRANCH   4   9
BRANCH   8  15
ATOM     15  C   UNL     1       2.690   3.746  19.282  0.00  0.00    +0.000 A 
ATOM     16  C   UNL     1       1.304   3.638  19.097  0.00  0.00    +0.000 A 
ATOM     17  C   UNL     1       0.489   3.179  20.133  0.00  0.00    +0.000 A 
ATOM     18  C   UNL     1       1.045   2.861  21.371  0.00  0.00    +0.000 A 
ATOM     19  C   UNL     1       2.417   2.992  21.572  0.00  0.00    +0.000 A 
ATOM     20  C   UNL     1       3.239   3.422  20.529  0.00  0.00    +0.000 A 
ENDBRANCH   8  15
TORSDOF 2
ENDMDL
MODEL 3
REMARK VINA RESULT:      -7.1      5.139      7.257
REMARK  Name = 
REMARK  2 active torsions:
REMARK  status: ('A' for Active; 'I' for Inactive)
REMARK    1  A    between atoms: C_4  and  C_5
REMARK    2  A    between atoms: N_14  and  C_15
REMARK                            x       y       z     vdW  Elec       q    Type
REMARK                         _______ _______ _______ _____ _____    ______ ____
ROOT
ATOM      1  O   UNL     1       2.062   9.291  17.172  0.00  0.00    +0.000 OA
ATOM      2  C   UNL     1       1.835   8.906  18.312  0.00  0.00    +0.000 C 
ATOM      3  C   UNL     1       2.338   7.600  18.821  0.00  0.00    +0.000 C 
ATOM      4  C   UNL     1       3.090   6.785  18.068  0.00  0.00    +0.000 C 
ATOM      5  S   UNL     1       1.834   7.349  20.442  0.00  0.00    +0.000 S 
ATOM      6  C   UNL     1       0.997   8.899  20.524  0.00  0.00    +0.000 C 
ATOM      7  S   UNL     1       0.110   9.320  21.878  0.00  0.00    +0.000 S 
ATOM      8  N   UNL     1       1.144   9.573  19.318  0.00  0.00    +0.000 N 
ENDROOT
BRANCH   4   9
ATOM      9  C   UNL     1       3.586   5.477  18.497  0.00  0.00    +0.000 A 
ATOM     10  C   UNL     1       2.765   4.352  18.418  0.00  0.00    +0.000 A 
ATOM     11  C   UNL     1       3.244   3.119  18.854  0.00  0.00    +0.000 A 
ATOM     12  C   UNL     1       4.536   3.056  19.351  0.00  0.00    +0.000 A 
ATOM     13  N   UNL     1       5.362   4.120  19.439  0.00  0.00    +0.000 NA
ATOM     14  C   UNL     1       4.867   5.307  19.014  0.00  0.00    +0.000 A 
ENDBRANCH   4   9
BRANCH   8  15
ATOM     15  C   UNL     1       0.644  10.880  19.074  0.00  0.00    +0.000 A 
ATOM     16  C   UNL     1      -0.649  11.057  18.562  0.00  0.00    +0.000 A 
ATOM     17  C   UNL     1      -1.141  12.340  18.317  0.00  0.00    +0.000 A 
ATOM     18  C   UNL     1      -0.334  13.453  18.547  0.00  0.00    +0.000 A 
ATOM     19  C   UNL     1       0.962  13.285  19.029  0.00  0.00    +0.000 A 
ATOM     20  C   UNL     1       1.446  12.004  19.302  0.00  0.00    +0.000 A 
ENDBRANCH   8  15
TORSDOF 2
ENDMDL
MODEL 4
REMARK VINA RESULT:      -7.1      5.154      7.195
REMARK  Name = 
REMARK  2 active torsions:
REMARK  status: ('A' for Active; 'I' for Inactive)
REMARK    1  A    between atoms: C_4  and  C_5
REMARK    2  A    between atoms: N_14  and  C_15
REMARK                            x       y       z     vdW  Elec       q    Type
REMARK                         _______ _______ _______ _____ _____    ______ ____
ROOT
ATOM      1  O   UNL     1       2.060   9.297  17.174  0.00  0.00    +0.000 OA
ATOM      2  C   UNL     1       1.832   8.914  18.315  0.00  0.00    +0.000 C 
ATOM      3  C   UNL     1       2.333   7.609  18.826  0.00  0.00    +0.000 C 
ATOM      4  C   UNL     1       3.086   6.792  18.075  0.00  0.00    +0.000 C 
ATOM      5  S   UNL     1       1.829   7.361  20.447  0.00  0.00    +0.000 S 
ATOM      6  C   UNL     1       0.992   8.911  20.526  0.00  0.00    +0.000 C 
ATOM      7  S   UNL     1       0.104   9.335  21.879  0.00  0.00    +0.000 S 
ATOM      8  N   UNL     1       1.141   9.583  19.320  0.00  0.00    +0.000 N 
ENDROOT
BRANCH   4   9
ATOM      9  C   UNL     1       3.581   5.485  18.506  0.00  0.00    +0.000 A 
ATOM     10  C   UNL     1       2.758   4.360  18.430  0.00  0.00    +0.000 A 
ATOM     11  C   UNL     1       3.237   3.128  18.868  0.00  0.00    +0.000 A 
ATOM     12  C   UNL     1       4.528   3.064  19.364  0.00  0.00    +0.000 A 
ATOM     13  N   UNL     1       5.356   4.127  19.449  0.00  0.00    +0.000 NA
ATOM     14  C   UNL     1       4.862   5.314  19.022  0.00  0.00    +0.000 A 
ENDBRANCH   4   9
BRANCH   8  15
ATOM     15  C   UNL     1       0.641  10.890  19.073  0.00  0.00    +0.000 A 
ATOM     16  C   UNL     1       1.426  12.014  19.366  0.00  0.00    +0.000 A 
ATOM     17  C   UNL     1       0.935  13.298  19.128  0.00  0.00    +0.000 A 
ATOM     18  C   UNL     1      -0.355  13.471  18.630  0.00  0.00    +0.000 A 
ATOM     19  C   UNL     1      -1.153  12.361  18.362  0.00  0.00    +0.000 A 
ATOM     20  C   UNL     1      -0.654  11.074  18.571  0.00  0.00    +0.000 A 
ENDBRANCH   8  15
TORSDOF 2
ENDMDL
MODEL 5
REMARK VINA RESULT:      -6.7      5.304      7.437
REMARK  Name = 
REMARK  2 active torsions:
REMARK  status: ('A' for Active; 'I' for Inactive)
REMARK    1  A    between atoms: C_4  and  C_5
REMARK    2  A    between atoms: N_14  and  C_15
REMARK                            x       y       z     vdW  Elec       q    Type
REMARK                         _______ _______ _______ _____ _____    ______ ____
ROOT
ATOM      1  O   UNL     1       2.023   9.570  17.280  0.00  0.00    +0.000 OA
ATOM      2  C   UNL     1       1.777   9.133  18.397  0.00  0.00    +0.000 C 
ATOM      3  C   UNL     1       2.240   7.788  18.841  0.00  0.00    +0.000 C 
ATOM      4  C   UNL     1       2.974   6.993  18.050  0.00  0.00    +0.000 C 
ATOM      5  S   UNL     1       1.718   7.468  20.443  0.00  0.00    +0.000 S 
ATOM      6  C   UNL     1       0.924   9.035  20.601  0.00  0.00    +0.000 C 
ATOM      7  S   UNL     1       0.040   9.410  21.970  0.00  0.00    +0.000 S 
ATOM      8  N   UNL     1       1.099   9.766  19.433  0.00  0.00    +0.000 N 
ENDROOT
BRANCH   4   9
ATOM      9  C   UNL     1       3.431   5.651  18.413  0.00  0.00    +0.000 A 
ATOM     10  C   UNL     1       4.700   5.463  18.963  0.00  0.00    +0.000 A 
ATOM     11  C   UNL     1       5.129   4.177  19.279  0.00  0.00    +0.000 A 
ATOM     12  C   UNL     1       4.267   3.120  19.036  0.00  0.00    +0.000 A 
ATOM     13  N   UNL     1       3.032   3.260  18.509  0.00  0.00    +0.000 NA
ATOM     14  C   UNL     1       2.644   4.523  18.206  0.00  0.00    +0.000 A 
ENDBRANCH   4   9
BRANCH   8  15
ATOM     15  C   UNL     1       0.636  11.097  19.254  0.00  0.00    +0.000 A 
ATOM     16  C   UNL     1      -0.614  11.338  18.669  0.00  0.00    +0.000 A 
ATOM     17  C   UNL     1      -1.068  12.646  18.489  0.00  0.00    +0.000 A 
ATOM     18  C   UNL     1      -0.263  13.722  18.858  0.00  0.00    +0.000 A 
ATOM     19  C   UNL     1       0.993  13.492  19.415  0.00  0.00    +0.000 A 
ATOM     20  C   UNL     1       1.438  12.185  19.623  0.00  0.00    +0.000 A 
ENDBRANCH   8  15
TORSDOF 2
ENDMDL
MODEL 6
REMARK VINA RESULT:      -6.7      5.309      7.359
REMARK  Name = 
REMARK  2 active torsions:
REMARK  status: ('A' for Active; 'I' for Inactive)
REMARK    1  A    between atoms: C_4  and  C_5
REMARK    2  A    between atoms: N_14  and  C_15
REMARK                            x       y       z     vdW  Elec       q    Type
REMARK                         _______ _______ _______ _____ _____    ______ ____
ROOT
ATOM      1  O   UNL     1       2.013   9.563  17.277  0.00  0.00    +0.000 OA
ATOM      2  C   UNL     1       1.772   9.127  18.396  0.00  0.00    +0.000 C 
ATOM      3  C   UNL     1       2.236   7.783  18.838  0.00  0.00    +0.000 C 
ATOM      4  C   UNL     1       2.967   6.986  18.045  0.00  0.00    +0.000 C 
ATOM      5  S   UNL     1       1.722   7.464  20.443  0.00  0.00    +0.000 S 
ATOM      6  C   UNL     1       0.929   9.031  20.603  0.00  0.00    +0.000 C 
ATOM      7  S   UNL     1       0.051   9.409  21.976  0.00  0.00    +0.000 S 
ATOM      8  N   UNL     1       1.099   9.761  19.434  0.00  0.00    +0.000 N 
ENDROOT
BRANCH   4   9
ATOM      9  C   UNL     1       3.424   5.644  18.407  0.00  0.00    +0.000 A 
ATOM     10  C   UNL     1       4.689   5.458  18.967  0.00  0.00    +0.000 A 
ATOM     11  C   UNL     1       5.119   4.172  19.281  0.00  0.00    +0.000 A 
ATOM     12  C   UNL     1       4.262   3.113  19.028  0.00  0.00    +0.000 A 
ATOM     13  N   UNL     1       3.031   3.252  18.492  0.00  0.00    +0.000 NA
ATOM     14  C   UNL     1       2.642   4.514  18.190  0.00  0.00    +0.000 A 
ENDBRANCH   4   9
BRANCH   8  15
ATOM     15  C   UNL     1       0.637  11.093  19.256  0.00  0.00    +0.000 A 
ATOM     16  C   UNL     1       1.434  12.176  19.650  0.00  0.00    +0.000 A 
ATOM     17  C   UNL     1       0.980  13.485  19.479  0.00  0.00    +0.000 A 
ATOM     18  C   UNL     1      -0.288  13.720  18.949  0.00  0.00    +0.000 A 
ATOM     19  C   UNL     1      -1.098  12.649  18.580  0.00  0.00    +0.000 A 
ATOM     20  C   UNL     1      -0.635  11.340  18.722  0.00  0.00    +0.000 A 
ENDBRANCH   8  15
TORSDOF 2
ENDMDL
MODEL 7
REMARK VINA RESULT:      -6.5      0.654      1.082
REMARK  Name = 
REMARK  2 active torsions:
REMARK  status: ('A' for Active; 'I' for Inactive)
REMARK    1  A    between atoms: C_4  and  C_5
REMARK    2  A    between atoms: N_14  and  C_15
REMARK                            x       y       z     vdW  Elec       q    Type
REMARK                         _______ _______ _______ _____ _____    ______ ____
ROOT
ATOM      1  O   UNL     1       4.235   2.146  17.497  0.00  0.00    +0.000 OA
ATOM      2  C   UNL     1       4.207   3.362  17.353  0.00  0.00    +0.000 C 
ATOM      3  C   UNL     1       4.928   4.044  16.243  0.00  0.00    +0.000 C 
ATOM      4  C   UNL     1       5.627   3.363  15.324  0.00  0.00    +0.000 C 
ATOM      5  S   UNL     1       4.704   5.743  16.332  0.00  0.00    +0.000 S 
ATOM      6  C   UNL     1       3.674   5.630  17.758  0.00  0.00    +0.000 C 
ATOM      7  S   UNL     1       3.127   7.011  18.528  0.00  0.00    +0.000 S 
ATOM      8  N   UNL     1       3.513   4.297  18.113  0.00  0.00    +0.000 N 
ENDROOT
BRANCH   4   9
ATOM      9  C   UNL     1       6.383   3.974  14.231  0.00  0.00    +0.000 A 
ATOM     10  C   UNL     1       7.311   4.983  14.494  0.00  0.00    +0.000 A 
ATOM     11  C   UNL     1       8.004   5.572  13.440  0.00  0.00    +0.000 A 
ATOM     12  C   UNL     1       7.746   5.125  12.155  0.00  0.00    +0.000 A 
ATOM     13  N   UNL     1       6.861   4.149  11.860  0.00  0.00    +0.000 NA
ATOM     14  C   UNL     1       6.197   3.599  12.905  0.00  0.00    +0.000 A 
ENDBRANCH   4   9
BRANCH   8  15
ATOM     15  C   UNL     1       2.688   3.855  19.182  0.00  0.00    +0.000 A 
ATOM     16  C   UNL     1       3.229   3.671  20.462  0.00  0.00    +0.000 A 
ATOM     17  C   UNL     1       2.421   3.233  21.513  0.00  0.00    +0.000 A 
ATOM     18  C   UNL     1       1.077   2.940  21.285  0.00  0.00    +0.000 A 
ATOM     19  C   UNL     1       0.538   3.094  20.010  0.00  0.00    +0.000 A 
ATOM     20  C   UNL     1       1.336   3.560  18.964  0.00  0.00    +0.000 A 
ENDBRANCH   8  15
TORSDOF 2
ENDMDL
MODEL 8
REMARK VINA RESULT:      -6.5      0.645      1.526
REMARK  Name = 
REMARK  2 active torsions:
REMARK  status: ('A' for Active; 'I' for Inactive)
REMARK    1  A    between atoms: C_4  and  C_5
REMARK    2  A    between atoms: N_14  and  C_15
REMARK                            x       y       z     vdW  Elec       q    Type
REMARK                         _______ _______ _______ _____ _____    ______ ____
ROOT
ATOM      1  O   UNL     1       4.226   2.080  17.536  0.00  0.00    +0.000 OA
ATOM      2  C   UNL     1       4.211   3.299  17.420  0.00  0.00    +0.000 C 
ATOM      3  C   UNL     1       4.929   3.998  16.318  0.00  0.00    +0.000 C 
ATOM      4  C   UNL     1       5.609   3.329  15.376  0.00  0.00    +0.000 C 
ATOM      5  S   UNL     1       4.727   5.696  16.447  0.00  0.00    +0.000 S 
ATOM      6  C   UNL     1       3.711   5.564  17.881  0.00  0.00    +0.000 C 
ATOM      7  S   UNL     1       3.190   6.934  18.688  0.00  0.00    +0.000 S 
ATOM      8  N   UNL     1       3.537   4.226  18.208  0.00  0.00    +0.000 N 
ENDROOT
BRANCH   4   9
ATOM      9  C   UNL     1       6.361   3.955  14.289  0.00  0.00    +0.000 A 
ATOM     10  C   UNL     1       7.259   4.989  14.558  0.00  0.00    +0.000 A 
ATOM     11  C   UNL     1       7.948   5.591  13.509  0.00  0.00    +0.000 A 
ATOM     12  C   UNL     1       7.717   5.132  12.222  0.00  0.00    +0.000 A 
ATOM     13  N   UNL     1       6.860   4.133  11.922  0.00  0.00    +0.000 NA
ATOM     14  C   UNL     1       6.199   3.570  12.962  0.00  0.00    +0.000 A 
ENDBRANCH   4   9
BRANCH   8  15
ATOM     15  C   UNL     1       2.719   3.770  19.276  0.00  0.00    +0.000 A 
ATOM     16  C   UNL     1       1.339   3.609  19.090  0.00  0.00    +0.000 A 
ATOM     17  C   UNL     1       0.532   3.165  20.139  0.00  0.00    +0.000 A 
ATOM     18  C   UNL     1       1.091   2.914  21.391  0.00  0.00    +0.000 A 
ATOM     19  C   UNL     1       2.458   3.097  21.593  0.00  0.00    +0.000 A 
ATOM     20  C   UNL     1       3.271   3.513  20.538  0.00  0.00    +0.000 A 
ENDBRANCH   8  15
TORSDOF 2
ENDMDL
MODEL 9
REMARK VINA RESULT:      -6.2      7.818      9.447
REMARK  Name = 
REMARK  2 active torsions:
REMARK  status: ('A' for Active; 'I' for Inactive)
REMARK    1  A    between atoms: C_4  and  C_5
REMARK    2  A    between atoms: N_14  and  C_15
REMARK                            x       y       z     vdW  Elec       q    Type
REMARK                         _______ _______ _______ _____ _____    ______ ____
ROOT
ATOM      1  O   UNL     1       0.109  10.156  23.480  0.00  0.00    +0.000 OA
ATOM      2  C   UNL     1      -0.147  10.359  22.300  0.00  0.00    +0.000 C 
ATOM      3  C   UNL     1       0.347   9.462  21.218  0.00  0.00    +0.000 C 
ATOM      4  C   UNL     1       1.076   8.368  21.479  0.00  0.00    +0.000 C 
ATOM      5  S   UNL     1      -0.167  10.028  19.683  0.00  0.00    +0.000 S 
ATOM      6  C   UNL     1      -1.038  11.397  20.371  0.00  0.00    +0.000 C 
ATOM      7  S   UNL     1      -1.756  12.539  19.381  0.00  0.00    +0.000 S 
ATOM      8  N   UNL     1      -0.930  11.371  21.756  0.00  0.00    +0.000 N 
ENDROOT
BRANCH   4   9
ATOM      9  C   UNL     1       1.618   7.466  20.462  0.00  0.00    +0.000 A 
ATOM     10  C   UNL     1       1.607   6.086  20.667  0.00  0.00    +0.000 A 
ATOM     11  C   UNL     1       2.150   5.243  19.701  0.00  0.00    +0.000 A 
ATOM     12  C   UNL     1       2.683   5.814  18.557  0.00  0.00    +0.000 A 
ATOM     13  N   UNL     1       2.709   7.143  18.320  0.00  0.00    +0.000 NA
ATOM     14  C   UNL     1       2.180   7.939  19.281  0.00  0.00    +0.000 A 
ENDBRANCH   4   9
BRANCH   8  15
ATOM     15  C   UNL     1      -1.571  12.299  22.620  0.00  0.00    +0.000 A 
ATOM     16  C   UNL     1      -0.910  13.471  23.013  0.00  0.00    +0.000 A 
ATOM     17  C   UNL     1      -1.537  14.382  23.865  0.00  0.00    +0.000 A 
ATOM     18  C   UNL     1      -2.812  14.112  24.359  0.00  0.00    +0.000 A 
ATOM     19  C   UNL     1      -3.465  12.936  23.995  0.00  0.00    +0.000 A 
ATOM     20  C   UNL     1      -2.853  12.038  23.120  0.00  0.00    +0.000 A 
ENDBRANCH   8  15
TORSDOF 2
ENDMDL
