MODEL 1
REMARK VINA RESULT:      -8.6      0.000      0.000
REMARK  Name = 
REMARK  6 active torsions:
REMARK  status: ('A' for Active; 'I' for Inactive)
REMARK    1  A    between atoms: C_2  and  C_3
REMARK    2  A    between atoms: C_7  and  C_8
REMARK    3  A    between atoms: N_12  and  C_13
REMARK    4  A    between atoms: C_13  and  C_14
REMARK    5  A    between atoms: C_13  and  C_20
REMARK    6  A    between atoms: C_14  and  N_15
REMARK                            x       y       z     vdW  Elec       q    Type
REMARK                         _______ _______ _______ _____ _____    ______ ____
ROOT
ATOM      1  C   UNL     1       6.700   4.920  16.052  0.00  0.00    +0.000 A 
ATOM      2  C   UNL     1       7.718   4.716  16.906  0.00  0.00    +0.000 A 
ATOM      3  C   UNL     1       7.565   4.993  18.309  0.00  0.00    +0.000 A 
ATOM      4  C   UNL     1       6.357   5.296  18.800  0.00  0.00    +0.000 A 
ATOM      5  N   UNL     1       5.236   5.372  17.974  0.00  0.00    +0.000 N 
ATOM      6  C   UNL     1       5.351   5.316  16.582  0.00  0.00    +0.000 A 
ATOM      7  O   UNL     1       4.414   5.509  15.810  0.00  0.00    +0.000 OA
ENDROOT
BRANCH   1  12
ATOM      8  C   UNL     1       6.474   3.625  12.557  0.00  0.00    +0.000 A 
ATOM      9  C   UNL     1       7.342   4.467  11.866  0.00  0.00    +0.000 A 
ATOM     10  C   UNL     1       8.009   5.486  12.546  0.00  0.00    +0.000 A 
ATOM     11  C   UNL     1       7.810   5.663  13.916  0.00  0.00    +0.000 A 
ATOM     12  C   UNL     1       6.935   4.819  14.611  0.00  0.00    +0.000 A 
ATOM     13  C   UNL     1       6.268   3.799  13.924  0.00  0.00    +0.000 A 
BRANCH   8  15
ATOM     14  N   UNL     1       5.219   1.728  11.338  0.00  0.00    +0.000 NA
ATOM     15  C   UNL     1       5.788   2.585  11.873  0.00  0.00    +0.000 C 
ENDBRANCH   8  15
ENDBRANCH   1  12
BRANCH   5  16
ATOM     16  C   UNL     1       3.860   5.245  18.535  0.00  0.00    +0.000 C 
BRANCH  16  17
ATOM     17  C   UNL     1       3.119   6.576  18.701  0.00  0.00    +0.000 A 
ATOM     18  C   UNL     1       2.450   6.853  19.911  0.00  0.00    +0.000 A 
ATOM     19  C   UNL     1       1.656   7.989  20.057  0.00  0.00    +0.000 A 
ATOM     20  C   UNL     1       1.592   8.921  19.028  0.00  0.00    +0.000 A 
ATOM     21  C   UNL     1       2.345   8.729  17.872  0.00  0.00    +0.000 A 
ATOM     22  C   UNL     1       3.103   7.566  17.709  0.00  0.00    +0.000 A 
ENDBRANCH  16  17
BRANCH  16  23
ATOM     23  C   UNL     1       3.849   4.234  19.778  0.00  0.00    +0.000 C 
BRANCH  23  24
ATOM     24  N   UNL     1       3.016   2.992  19.748  0.00  0.00    +0.000 NA
ATOM     25  C   UNL     1       1.692   3.158  19.142  0.00  0.00    +0.000 C 
ATOM     26  C   UNL     1       0.798   3.709  20.223  0.00  0.00    +0.000 C 
ATOM     27  C   UNL     1       1.203   2.835  21.380  0.00  0.00    +0.000 C 
ATOM     28  C   UNL     1       2.685   2.528  21.122  0.00  0.00    +0.000 C 
ENDBRANCH  23  24
ENDBRANCH  16  23
ENDBRANCH   5  16
TORSDOF 6
ENDMDL
MODEL 2
REMARK VINA RESULT:      -8.4      0.555      1.147
REMARK  Name = 
REMARK  6 active torsions:
REMARK  status: ('A' for Active; 'I' for Inactive)
REMARK    1  A    between atoms: C_2  and  C_3
REMARK    2  A    between atoms: C_7  and  C_8
REMARK    3  A    between atoms: N_12  and  C_13
REMARK    4  A    between atoms: C_13  and  C_14
REMARK    5  A    between atoms: C_13  and  C_20
REMARK    6  A    between atoms: C_14  and  N_15
REMARK                            x       y       z     vdW  Elec       q    Type
REMARK                         _______ _______ _______ _____ _____    ______ ____
ROOT
ATOM      1  C   UNL     1       6.674   4.852  16.078  0.00  0.00    +0.000 A 
ATOM      2  C   UNL     1       7.709   4.774  16.931  0.00  0.00    +0.000 A 
ATOM      3  C   UNL     1       7.526   5.039  18.332  0.00  0.00    +0.000 A 
ATOM      4  C   UNL     1       6.291   5.199  18.824  0.00  0.00    +0.000 A 
ATOM      5  N   UNL     1       5.168   5.140  17.999  0.00  0.00    +0.000 N 
ATOM      6  C   UNL     1       5.288   5.090  16.607  0.00  0.00    +0.000 A 
ATOM      7  O   UNL     1       4.333   5.167  15.836  0.00  0.00    +0.000 OA
ENDROOT
BRANCH   1  12
ATOM      8  C   UNL     1       6.471   3.605  12.563  0.00  0.00    +0.000 A 
ATOM      9  C   UNL     1       7.341   4.459  11.889  0.00  0.00    +0.000 A 
ATOM     10  C   UNL     1       8.000   5.472  12.587  0.00  0.00    +0.000 A 
ATOM     11  C   UNL     1       7.793   5.629  13.958  0.00  0.00    +0.000 A 
ATOM     12  C   UNL     1       6.917   4.773  14.636  0.00  0.00    +0.000 A 
ATOM     13  C   UNL     1       6.258   3.760  13.931  0.00  0.00    +0.000 A 
BRANCH   8  15
ATOM     14  N   UNL     1       5.257   1.731  11.270  0.00  0.00    +0.000 NA
ATOM     15  C   UNL     1       5.793   2.572  11.861  0.00  0.00    +0.000 C 
ENDBRANCH   8  15
ENDBRANCH   1  12
BRANCH   5  16
ATOM     16  C   UNL     1       3.817   4.854  18.564  0.00  0.00    +0.000 C 
BRANCH  16  17
ATOM     17  C   UNL     1       3.009   6.103  18.930  0.00  0.00    +0.000 A 
ATOM     18  C   UNL     1       2.866   7.140  17.985  0.00  0.00    +0.000 A 
ATOM     19  C   UNL     1       2.252   8.346  18.319  0.00  0.00    +0.000 A 
ATOM     20  C   UNL     1       1.684   8.505  19.577  0.00  0.00    +0.000 A 
ATOM     21  C   UNL     1       1.704   7.447  20.483  0.00  0.00    +0.000 A 
ATOM     22  C   UNL     1       2.361   6.255  20.163  0.00  0.00    +0.000 A 
ENDBRANCH  16  17
BRANCH  16  23
ATOM     23  C   UNL     1       3.897   3.680  19.650  0.00  0.00    +0.000 C 
BRANCH  23  24
ATOM     24  N   UNL     1       3.028   2.468  19.535  0.00  0.00    +0.000 NA
ATOM     25  C   UNL     1       2.359   2.316  18.239  0.00  0.00    +0.000 C 
ATOM     26  C   UNL     1       1.121   3.174  18.300  0.00  0.00    +0.000 C 
ATOM     27  C   UNL     1       0.613   2.819  19.672  0.00  0.00    +0.000 C 
ATOM     28  C   UNL     1       1.884   2.528  20.483  0.00  0.00    +0.000 C 
ENDBRANCH  23  24
ENDBRANCH  16  23
ENDBRANCH   5  16
TORSDOF 6
ENDMDL
MODEL 3
REMARK VINA RESULT:      -8.3      4.165      7.247
REMARK  Name = 
REMARK  6 active torsions:
REMARK  status: ('A' for Active; 'I' for Inactive)
REMARK    1  A    between atoms: C_2  and  C_3
REMARK    2  A    between atoms: C_7  and  C_8
REMARK    3  A    between atoms: N_12  and  C_13
REMARK    4  A    between atoms: C_13  and  C_14
REMARK    5  A    between atoms: C_13  and  C_20
REMARK    6  A    between atoms: C_14  and  N_15
REMARK                            x       y       z     vdW  Elec       q    Type
REMARK                         _______ _______ _______ _____ _____    ______ ____
ROOT
ATOM      1  C   UNL     1       2.002   7.996  19.084  0.00  0.00    +0.000 A 
ATOM      2  C   UNL     1       1.707   7.755  20.373  0.00  0.00    +0.000 A 
ATOM      3  C   UNL     1       1.091   8.768  21.187  0.00  0.00    +0.000 A 
ATOM      4  C   UNL     1       0.652   9.899  20.622  0.00  0.00    +0.000 A 
ATOM      5  N   UNL     1       0.801  10.134  19.256  0.00  0.00    +0.000 N 
ATOM      6  C   UNL     1       1.567   9.287  18.449  0.00  0.00    +0.000 A 
ATOM      7  O   UNL     1       1.834   9.521  17.272  0.00  0.00    +0.000 OA
ENDROOT
BRANCH   1  12
ATOM      8  C   UNL     1       3.063   4.732  17.613  0.00  0.00    +0.000 A 
ATOM      9  C   UNL     1       4.263   5.059  16.987  0.00  0.00    +0.000 A 
ATOM     10  C   UNL     1       4.735   6.371  17.032  0.00  0.00    +0.000 A 
ATOM     11  C   UNL     1       4.010   7.355  17.704  0.00  0.00    +0.000 A 
ATOM     12  C   UNL     1       2.801   7.029  18.331  0.00  0.00    +0.000 A 
ATOM     13  C   UNL     1       2.333   5.711  18.283  0.00  0.00    +0.000 A 
BRANCH   8  15
ATOM     14  N   UNL     1       2.171   2.311  17.565  0.00  0.00    +0.000 NA
ATOM     15  C   UNL     1       2.573   3.399  17.573  0.00  0.00    +0.000 C 
ENDBRANCH   8  15
ENDBRANCH   1  12
BRANCH   5  16
ATOM     16  C   UNL     1      -0.061  11.127  18.551  0.00  0.00    +0.000 C 
BRANCH  16  17
ATOM     17  C   UNL     1       0.437  12.573  18.642  0.00  0.00    +0.000 A 
ATOM     18  C   UNL     1       1.799  12.855  18.407  0.00  0.00    +0.000 A 
ATOM     19  C   UNL     1       2.319  14.132  18.606  0.00  0.00    +0.000 A 
ATOM     20  C   UNL     1       1.471  15.176  18.954  0.00  0.00    +0.000 A 
ATOM     21  C   UNL     1       0.102  14.945  19.069  0.00  0.00    +0.000 A 
ATOM     22  C   UNL     1      -0.412  13.654  18.914  0.00  0.00    +0.000 A 
ENDBRANCH  16  17
BRANCH  16  23
ATOM     23  C   UNL     1      -1.608  10.857  18.867  0.00  0.00    +0.000 C 
BRANCH  23  24
ATOM     24  N   UNL     1      -2.417   9.938  18.008  0.00  0.00    +0.000 NA
ATOM     25  C   UNL     1      -2.015   9.905  16.599  0.00  0.00    +0.000 C 
ATOM     26  C   UNL     1      -2.688  11.082  15.940  0.00  0.00    +0.000 C 
ATOM     27  C   UNL     1      -4.068  10.970  16.531  0.00  0.00    +0.000 C 
ATOM     28  C   UNL     1      -3.835  10.379  17.928  0.00  0.00    +0.000 C 
ENDBRANCH  23  24
ENDBRANCH  16  23
ENDBRANCH   5  16
TORSDOF 6
ENDMDL
MODEL 4
REMARK VINA RESULT:      -8.3      3.925      7.007
REMARK  Name = 
REMARK  6 active torsions:
REMARK  status: ('A' for Active; 'I' for Inactive)
REMARK    1  A    between atoms: C_2  and  C_3
REMARK    2  A    between atoms: C_7  and  C_8
REMARK    3  A    between atoms: N_12  and  C_13
REMARK    4  A    between atoms: C_13  and  C_14
REMARK    5  A    between atoms: C_13  and  C_20
REMARK    6  A    between atoms: C_14  and  N_15
REMARK                            x       y       z     vdW  Elec       q    Type
REMARK                         _______ _______ _______ _____ _____    ______ ____
ROOT
ATOM      1  C   UNL     1       2.112   7.470  19.129  0.00  0.00    +0.000 A 
ATOM      2  C   UNL     1       1.803   7.257  20.419  0.00  0.00    +0.000 A 
ATOM      3  C   UNL     1       1.252   8.312  21.226  0.00  0.00    +0.000 A 
ATOM      4  C   UNL     1       0.885   9.465  20.653  0.00  0.00    +0.000 A 
ATOM      5  N   UNL     1       1.048   9.681  19.285  0.00  0.00    +0.000 N 
ATOM      6  C   UNL     1       1.759   8.782  18.485  0.00  0.00    +0.000 A 
ATOM      7  O   UNL     1       2.040   8.990  17.306  0.00  0.00    +0.000 OA
ENDROOT
BRANCH   1  12
ATOM      8  C   UNL     1       4.897   5.852  17.239  0.00  0.00    +0.000 A 
ATOM      9  C   UNL     1       4.350   4.619  16.892  0.00  0.00    +0.000 A 
ATOM     10  C   UNL     1       3.051   4.299  17.289  0.00  0.00    +0.000 A 
ATOM     11  C   UNL     1       2.299   5.211  18.031  0.00  0.00    +0.000 A 
ATOM     12  C   UNL     1       2.849   6.449  18.383  0.00  0.00    +0.000 A 
ATOM     13  C   UNL     1       4.152   6.765  17.982  0.00  0.00    +0.000 A 
BRANCH   8  15
ATOM     14  N   UNL     1       7.292   6.487  16.516  0.00  0.00    +0.000 NA
ATOM     15  C   UNL     1       6.219   6.188  16.841  0.00  0.00    +0.000 C 
ENDBRANCH   8  15
ENDBRANCH   1  12
BRANCH   5  16
ATOM     16  C   UNL     1       0.250  10.721  18.573  0.00  0.00    +0.000 C 
BRANCH  16  17
ATOM     17  C   UNL     1       0.860  12.125  18.618  0.00  0.00    +0.000 A 
ATOM     18  C   UNL     1       0.043  13.228  18.939  0.00  0.00    +0.000 A 
ATOM     19  C   UNL     1       0.524  14.534  18.863  0.00  0.00    +0.000 A 
ATOM     20  C   UNL     1       1.860  14.759  18.557  0.00  0.00    +0.000 A 
ATOM     21  C   UNL     1       2.716  13.679  18.358  0.00  0.00    +0.000 A 
ATOM     22  C   UNL     1       2.221  12.371  18.388  0.00  0.00    +0.000 A 
ENDBRANCH  16  17
BRANCH  16  23
ATOM     23  C   UNL     1      -1.306  10.580  18.927  0.00  0.00    +0.000 C 
BRANCH  23  24
ATOM     24  N   UNL     1      -2.226   9.801  18.041  0.00  0.00    +0.000 NA
ATOM     25  C   UNL     1      -1.919   9.889  16.611  0.00  0.00    +0.000 C 
ATOM     26  C   UNL     1      -2.556  11.164  16.120  0.00  0.00    +0.000 C 
ATOM     27  C   UNL     1      -3.899  11.072  16.793  0.00  0.00    +0.000 C 
ATOM     28  C   UNL     1      -3.615  10.328  18.106  0.00  0.00    +0.000 C 
ENDBRANCH  23  24
ENDBRANCH  16  23
ENDBRANCH   5  16
TORSDOF 6
ENDMDL
MODEL 5
REMARK VINA RESULT:      -8.2      3.064      8.229
REMARK  Name = 
REMARK  6 active torsions:
REMARK  status: ('A' for Active; 'I' for Inactive)
REMARK    1  A    between atoms: C_2  and  C_3
REMARK    2  A    between atoms: C_7  and  C_8
REMARK    3  A    between atoms: N_12  and  C_13
REMARK    4  A    between atoms: C_13  and  C_14
REMARK    5  A    between atoms: C_13  and  C_20
REMARK    6  A    between atoms: C_14  and  N_15
REMARK                            x       y       z     vdW  Elec       q    Type
REMARK                         _______ _______ _______ _____ _____    ______ ____
ROOT
ATOM      1  C   UNL     1       1.451   8.623  19.673  0.00  0.00    +0.000 A 
ATOM      2  C   UNL     1       1.532   9.268  18.497  0.00  0.00    +0.000 A 
ATOM      3  C   UNL     1       2.449   8.827  17.480  0.00  0.00    +0.000 A 
ATOM      4  C   UNL     1       3.107   7.672  17.633  0.00  0.00    +0.000 A 
ATOM      5  N   UNL     1       2.942   6.888  18.775  0.00  0.00    +0.000 N 
ATOM      6  C   UNL     1       2.228   7.354  19.882  0.00  0.00    +0.000 A 
ATOM      7  O   UNL     1       2.165   6.757  20.956  0.00  0.00    +0.000 OA
ENDROOT
BRANCH   1  12
ATOM      8  C   UNL     1      -0.146  11.211  21.841  0.00  0.00    +0.000 A 
ATOM      9  C   UNL     1      -0.764  10.442  22.824  0.00  0.00    +0.000 A 
ATOM     10  C   UNL     1      -0.671   9.050  22.778  0.00  0.00    +0.000 A 
ATOM     11  C   UNL     1       0.040   8.428  21.752  0.00  0.00    +0.000 A 
ATOM     12  C   UNL     1       0.659   9.200  20.761  0.00  0.00    +0.000 A 
ATOM     13  C   UNL     1       0.563  10.595  20.812  0.00  0.00    +0.000 A 
BRANCH   8  15
ATOM     14  N   UNL     1      -0.293  13.786  21.929  0.00  0.00    +0.000 NA
ATOM     15  C   UNL     1      -0.235  12.629  21.878  0.00  0.00    +0.000 C 
ENDBRANCH   8  15
ENDBRANCH   1  12
BRANCH   5  16
ATOM     16  C   UNL     1       3.280   5.435  18.762  0.00  0.00    +0.000 C 
BRANCH  16  17
ATOM     17  C   UNL     1       4.645   5.109  18.146  0.00  0.00    +0.000 A 
ATOM     18  C   UNL     1       5.819   5.361  18.886  0.00  0.00    +0.000 A 
ATOM     19  C   UNL     1       7.082   5.203  18.318  0.00  0.00    +0.000 A 
ATOM     20  C   UNL     1       7.199   4.700  17.029  0.00  0.00    +0.000 A 
ATOM     21  C   UNL     1       6.057   4.326  16.325  0.00  0.00    +0.000 A 
ATOM     22  C   UNL     1       4.789   4.529  16.879  0.00  0.00    +0.000 A 
ENDBRANCH  16  17
BRANCH  16  23
ATOM     23  C   UNL     1       2.025   4.568  18.276  0.00  0.00    +0.000 C 
BRANCH  23  24
ATOM     24  N   UNL     1       1.838   3.159  18.744  0.00  0.00    +0.000 NA
ATOM     25  C   UNL     1       0.682   2.953  19.621  0.00  0.00    +0.000 C 
ATOM     26  C   UNL     1       1.130   3.334  21.008  0.00  0.00    +0.000 C 
ATOM     27  C   UNL     1       2.478   2.664  21.050  0.00  0.00    +0.000 C 
ATOM     28  C   UNL     1       2.973   2.716  19.598  0.00  0.00    +0.000 C 
ENDBRANCH  23  24
ENDBRANCH  16  23
ENDBRANCH   5  16
TORSDOF 6
ENDMDL
MODEL 6
REMARK VINA RESULT:      -8.2      0.850      1.338
REMARK  Name = 
REMARK  6 active torsions:
REMARK  status: ('A' for Active; 'I' for Inactive)
REMARK    1  A    between atoms: C_2  and  C_3
REMARK    2  A    between atoms: C_7  and  C_8
REMARK    3  A    between atoms: N_12  and  C_13
REMARK    4  A    between atoms: C_13  and  C_14
REMARK    5  A    between atoms: C_13  and  C_20
REMARK    6  A    between atoms: C_14  and  N_15
REMARK                            x       y       z     vdW  Elec       q    Type
REMARK                         _______ _______ _______ _____ _____    ______ ____
ROOT
ATOM      1  C   UNL     1       6.523   5.030  16.268  0.00  0.00    +0.000 A 
ATOM      2  C   UNL     1       7.475   4.791  17.186  0.00  0.00    +0.000 A 
ATOM      3  C   UNL     1       7.244   5.084  18.575  0.00  0.00    +0.000 A 
ATOM      4  C   UNL     1       6.021   5.439  18.986  0.00  0.00    +0.000 A 
ATOM      5  N   UNL     1       4.959   5.556  18.089  0.00  0.00    +0.000 N 
ATOM      6  C   UNL     1       5.160   5.485  16.708  0.00  0.00    +0.000 A 
ATOM      7  O   UNL     1       4.283   5.711  15.877  0.00  0.00    +0.000 OA
ENDROOT
BRANCH   1  12
ATOM      8  C   UNL     1       6.425   3.759  12.758  0.00  0.00    +0.000 A 
ATOM      9  C   UNL     1       7.405   4.525  12.131  0.00  0.00    +0.000 A 
ATOM     10  C   UNL     1       8.107   5.485  12.861  0.00  0.00    +0.000 A 
ATOM     11  C   UNL     1       7.832   5.678  14.215  0.00  0.00    +0.000 A 
ATOM     12  C   UNL     1       6.845   4.910  14.845  0.00  0.00    +0.000 A 
ATOM     13  C   UNL     1       6.143   3.949  14.109  0.00  0.00    +0.000 A 
BRANCH   8  15
ATOM     14  N   UNL     1       5.135   1.969  11.419  0.00  0.00    +0.000 NA
ATOM     15  C   UNL     1       5.703   2.779  12.024  0.00  0.00    +0.000 C 
ENDBRANCH   8  15
ENDBRANCH   1  12
BRANCH   5  16
ATOM     16  C   UNL     1       3.546   5.489  18.562  0.00  0.00    +0.000 C 
BRANCH  16  17
ATOM     17  C   UNL     1       2.867   6.853  18.722  0.00  0.00    +0.000 A 
ATOM     18  C   UNL     1       2.240   7.178  19.942  0.00  0.00    +0.000 A 
ATOM     19  C   UNL     1       1.500   8.351  20.087  0.00  0.00    +0.000 A 
ATOM     20  C   UNL     1       1.451   9.268  19.044  0.00  0.00    +0.000 A 
ATOM     21  C   UNL     1       2.167   9.024  17.874  0.00  0.00    +0.000 A 
ATOM     22  C   UNL     1       2.870   7.826  17.713  0.00  0.00    +0.000 A 
ENDBRANCH  16  17
BRANCH  16  23
ATOM     23  C   UNL     1       3.405   4.447  19.771  0.00  0.00    +0.000 C 
BRANCH  23  24
ATOM     24  N   UNL     1       2.560   3.220  19.631  0.00  0.00    +0.000 NA
ATOM     25  C   UNL     1       3.315   1.972  19.481  0.00  0.00    +0.000 C 
ATOM     26  C   UNL     1       3.673   1.868  18.021  0.00  0.00    +0.000 C 
ATOM     27  C   UNL     1       2.363   2.261  17.392  0.00  0.00    +0.000 C 
ATOM     28  C   UNL     1       1.750   3.258  18.385  0.00  0.00    +0.000 C 
ENDBRANCH  23  24
ENDBRANCH  16  23
ENDBRANCH   5  16
TORSDOF 6
ENDMDL
MODEL 7
REMARK VINA RESULT:      -8.2      3.334      8.456
REMARK  Name = 
REMARK  6 active torsions:
REMARK  status: ('A' for Active; 'I' for Inactive)
REMARK    1  A    between atoms: C_2  and  C_3
REMARK    2  A    between atoms: C_7  and  C_8
REMARK    3  A    between atoms: N_12  and  C_13
REMARK    4  A    between atoms: C_13  and  C_14
REMARK    5  A    between atoms: C_13  and  C_20
REMARK    6  A    between atoms: C_14  and  N_15
REMARK                            x       y       z     vdW  Elec       q    Type
REMARK                         _______ _______ _______ _____ _____    ______ ____
ROOT
ATOM      1  C   UNL     1       1.219   8.930  19.829  0.00  0.00    +0.000 A 
ATOM      2  C   UNL     1       1.303   9.642  18.693  0.00  0.00    +0.000 A 
ATOM      3  C   UNL     1       2.183   9.230  17.633  0.00  0.00    +0.000 A 
ATOM      4  C   UNL     1       2.798   8.043  17.702  0.00  0.00    +0.000 A 
ATOM      5  N   UNL     1       2.625   7.198  18.797  0.00  0.00    +0.000 N 
ATOM      6  C   UNL     1       1.950   7.622  19.946  0.00  0.00    +0.000 A 
ATOM      7  O   UNL     1       1.884   6.964  20.982  0.00  0.00    +0.000 OA
ENDROOT
BRANCH   1  12
ATOM      8  C   UNL     1      -1.073  11.152  21.767  0.00  0.00    +0.000 A 
ATOM      9  C   UNL     1      -0.965  10.644  23.060  0.00  0.00    +0.000 A 
ATOM     10  C   UNL     1      -0.138   9.548  23.308  0.00  0.00    +0.000 A 
ATOM     11  C   UNL     1       0.581   8.961  22.267  0.00  0.00    +0.000 A 
ATOM     12  C   UNL     1       0.471   9.468  20.966  0.00  0.00    +0.000 A 
ATOM     13  C   UNL     1      -0.360  10.568  20.723  0.00  0.00    +0.000 A 
BRANCH   8  15
ATOM     14  N   UNL     1      -2.599  13.183  21.312  0.00  0.00    +0.000 NA
ATOM     15  C   UNL     1      -1.913  12.267  21.503  0.00  0.00    +0.000 C 
ENDBRANCH   8  15
ENDBRANCH   1  12
BRANCH   5  16
ATOM     16  C   UNL     1       2.906   5.737  18.690  0.00  0.00    +0.000 C 
BRANCH  16  17
ATOM     17  C   UNL     1       4.336   5.399  18.257  0.00  0.00    +0.000 A 
ATOM     18  C   UNL     1       4.575   4.948  16.942  0.00  0.00    +0.000 A 
ATOM     19  C   UNL     1       5.836   4.506  16.545  0.00  0.00    +0.000 A 
ATOM     20  C   UNL     1       6.906   4.594  17.427  0.00  0.00    +0.000 A 
ATOM     21  C   UNL     1       6.718   5.152  18.689  0.00  0.00    +0.000 A 
ATOM     22  C   UNL     1       5.443   5.552  19.102  0.00  0.00    +0.000 A 
ENDBRANCH  16  17
BRANCH  16  23
ATOM     23  C   UNL     1       1.708   4.986  17.937  0.00  0.00    +0.000 C 
BRANCH  23  24
ATOM     24  N   UNL     1       1.134   3.717  18.484  0.00  0.00    +0.000 NA
ATOM     25  C   UNL     1       1.014   3.679  19.944  0.00  0.00    +0.000 C 
ATOM     26  C   UNL     1       2.366   3.271  20.470  0.00  0.00    +0.000 C 
ATOM     27  C   UNL     1       2.697   2.150  19.520  0.00  0.00    +0.000 C 
ATOM     28  C   UNL     1       2.020   2.556  18.204  0.00  0.00    +0.000 C 
ENDBRANCH  23  24
ENDBRANCH  16  23
ENDBRANCH   5  16
TORSDOF 6
ENDMDL
MODEL 8
REMARK VINA RESULT:      -8.1      3.958      7.020
REMARK  Name = 
REMARK  6 active torsions:
REMARK  status: ('A' for Active; 'I' for Inactive)
REMARK    1  A    between atoms: C_2  and  C_3
REMARK    2  A    between atoms: C_7  and  C_8
REMARK    3  A    between atoms: N_12  and  C_13
REMARK    4  A    between atoms: C_13  and  C_14
REMARK    5  A    between atoms: C_13  and  C_20
REMARK    6  A    between atoms: C_14  and  N_15
REMARK                            x       y       z     vdW  Elec       q    Type
REMARK                         _______ _______ _______ _____ _____    ______ ____
ROOT
ATOM      1  C   UNL     1       2.220   7.309  19.012  0.00  0.00    +0.000 A 
ATOM      2  C   UNL     1       1.819   7.068  20.272  0.00  0.00    +0.000 A 
ATOM      3  C   UNL     1       1.279   8.124  21.084  0.00  0.00    +0.000 A 
ATOM      4  C   UNL     1       1.015   9.317  20.537  0.00  0.00    +0.000 A 
ATOM      5  N   UNL     1       1.276   9.571  19.190  0.00  0.00    +0.000 N 
ATOM      6  C   UNL     1       1.985   8.661  18.401  0.00  0.00    +0.000 A 
ATOM      7  O   UNL     1       2.352   8.894  17.251  0.00  0.00    +0.000 OA
ENDROOT
BRANCH   1  12
ATOM      8  C   UNL     1       4.964   5.659  17.090  0.00  0.00    +0.000 A 
ATOM      9  C   UNL     1       4.417   4.414  16.790  0.00  0.00    +0.000 A 
ATOM     10  C   UNL     1       3.132   4.096  17.231  0.00  0.00    +0.000 A 
ATOM     11  C   UNL     1       2.394   5.022  17.969  0.00  0.00    +0.000 A 
ATOM     12  C   UNL     1       2.944   6.273  18.274  0.00  0.00    +0.000 A 
ATOM     13  C   UNL     1       4.234   6.586  17.829  0.00  0.00    +0.000 A 
BRANCH   8  15
ATOM     14  N   UNL     1       7.349   6.243  16.295  0.00  0.00    +0.000 NA
ATOM     15  C   UNL     1       6.273   5.993  16.647  0.00  0.00    +0.000 C 
ENDBRANCH   8  15
ENDBRANCH   1  12
BRANCH   5  16
ATOM     16  C   UNL     1       0.586  10.682  18.473  0.00  0.00    +0.000 C 
BRANCH  16  17
ATOM     17  C   UNL     1       1.117  12.079  18.811  0.00  0.00    +0.000 A 
ATOM     18  C   UNL     1       2.278  12.556  18.168  0.00  0.00    +0.000 A 
ATOM     19  C   UNL     1       2.868  13.763  18.539  0.00  0.00    +0.000 A 
ATOM     20  C   UNL     1       2.257  14.563  19.496  0.00  0.00    +0.000 A 
ATOM     21  C   UNL     1       1.043  14.170  20.054  0.00  0.00    +0.000 A 
ATOM     22  C   UNL     1       0.476  12.938  19.715  0.00  0.00    +0.000 A 
ENDBRANCH  16  17
BRANCH  16  23
ATOM     23  C   UNL     1      -1.001  10.469  18.496  0.00  0.00    +0.000 C 
BRANCH  23  24
ATOM     24  N   UNL     1      -1.915  11.436  17.813  0.00  0.00    +0.000 NA
ATOM     25  C   UNL     1      -3.230  11.586  18.444  0.00  0.00    +0.000 C 
ATOM     26  C   UNL     1      -4.077  10.451  17.928  0.00  0.00    +0.000 C 
ATOM     27  C   UNL     1      -3.721  10.491  16.466  0.00  0.00    +0.000 C 
ATOM     28  C   UNL     1      -2.265  10.976  16.443  0.00  0.00    +0.000 C 
ENDBRANCH  23  24
ENDBRANCH  16  23
ENDBRANCH   5  16
TORSDOF 6
ENDMDL
MODEL 9
REMARK VINA RESULT:      -8.0      4.699      8.327
REMARK  Name = 
REMARK  6 active torsions:
REMARK  status: ('A' for Active; 'I' for Inactive)
REMARK    1  A    between atoms: C_2  and  C_3
REMARK    2  A    between atoms: C_7  and  C_8
REMARK    3  A    between atoms: N_12  and  C_13
REMARK    4  A    between atoms: C_13  and  C_14
REMARK    5  A    between atoms: C_13  and  C_20
REMARK    6  A    between atoms: C_14  and  N_15
REMARK                            x       y       z     vdW  Elec       q    Type
REMARK                         _______ _______ _______ _____ _____    ______ ____
ROOT
ATOM      1  C   UNL     1       1.316   8.447  20.258  0.00  0.00    +0.000 A 
ATOM      2  C   UNL     1       0.884   8.613  21.519  0.00  0.00    +0.000 A 
ATOM      3  C   UNL     1       0.436   9.901  21.977  0.00  0.00    +0.000 A 
ATOM      4  C   UNL     1       0.287  10.904  21.103  0.00  0.00    +0.000 A 
ATOM      5  N   UNL     1       0.582  10.737  19.750  0.00  0.00    +0.000 N 
ATOM      6  C   UNL     1       1.211   9.581  19.278  0.00  0.00    +0.000 A 
ATOM      7  O   UNL     1       1.607   9.441  18.122  0.00  0.00    +0.000 OA
ENDROOT
BRANCH   1  12
ATOM      8  C   UNL     1       2.349   4.862  20.422  0.00  0.00    +0.000 A 
ATOM      9  C   UNL     1       3.152   4.726  19.292  0.00  0.00    +0.000 A 
ATOM     10  C   UNL     1       3.356   5.820  18.450  0.00  0.00    +0.000 A 
ATOM     11  C   UNL     1       2.758   7.048  18.737  0.00  0.00    +0.000 A 
ATOM     12  C   UNL     1       1.948   7.184  19.871  0.00  0.00    +0.000 A 
ATOM     13  C   UNL     1       1.748   6.084  20.712  0.00  0.00    +0.000 A 
BRANCH   8  15
ATOM     14  N   UNL     1       1.950   2.866  22.008  0.00  0.00    +0.000 NA
ATOM     15  C   UNL     1       2.134   3.754  21.286  0.00  0.00    +0.000 C 
ENDBRANCH   8  15
ENDBRANCH   1  12
BRANCH   5  16
ATOM     16  C   UNL     1       0.003  11.649  18.722  0.00  0.00    +0.000 C 
BRANCH  16  17
ATOM     17  C   UNL     1       0.703  13.008  18.616  0.00  0.00    +0.000 A 
ATOM     18  C   UNL     1       2.058  13.063  18.230  0.00  0.00    +0.000 A 
ATOM     19  C   UNL     1       2.768  14.262  18.247  0.00  0.00    +0.000 A 
ATOM     20  C   UNL     1       2.113  15.447  18.561  0.00  0.00    +0.000 A 
ATOM     21  C   UNL     1       0.745  15.432  18.823  0.00  0.00    +0.000 A 
ATOM     22  C   UNL     1       0.044  14.222  18.851  0.00  0.00    +0.000 A 
ENDBRANCH  16  17
BRANCH  16  23
ATOM     23  C   UNL     1      -1.597  11.645  18.801  0.00  0.00    +0.000 C 
BRANCH  23  24
ATOM     24  N   UNL     1      -2.389  10.491  18.273  0.00  0.00    +0.000 NA
ATOM     25  C   UNL     1      -1.951   9.996  16.965  0.00  0.00    +0.000 C 
ATOM     26  C   UNL     1      -2.602  10.887  15.937  0.00  0.00    +0.000 C 
ATOM     27  C   UNL     1      -3.997  10.971  16.497  0.00  0.00    +0.000 C 
ATOM     28  C   UNL     1      -3.802  10.875  18.017  0.00  0.00    +0.000 C 
ENDBRANCH  23  24
ENDBRANCH  16  23
ENDBRANCH   5  16
TORSDOF 6
ENDMDL
