MODEL 1
REMARK VINA RESULT:      -7.2      0.000      0.000
REMARK  Name = 
REMARK  5 active torsions:
REMARK  status: ('A' for Active; 'I' for Inactive)
REMARK    1  A    between atoms: C_1  and  C_2
REMARK    2  A    between atoms: C_2  and  N_3
REMARK    3  A    between atoms: N_6  and  C_7
REMARK    4  A    between atoms: C_7  and  C_8
REMARK    5  A    between atoms: C_10  and  C_11
REMARK                            x       y       z     vdW  Elec       q    Type
REMARK                         _______ _______ _______ _____ _____    ______ ____
ROOT
ATOM      1  N   UNL     1       4.986   3.543  18.842  0.00  0.00    +0.000 NA
ATOM      2  C   UNL     1       4.499   4.378  19.965  0.00  0.00    +0.000 C 
ATOM      3  C   UNL     1       3.419   5.412  19.572  0.00  0.00    +0.000 C 
ATOM      4  N   UNL     1       3.714   6.252  18.381  0.00  0.00    +0.000 NA
ATOM      5  C   UNL     1       4.376   5.483  17.290  0.00  0.00    +0.000 C 
ATOM      6  C   UNL     1       5.120   6.401  16.300  0.00  0.00    +0.000 C 
ATOM      7  S   UNL     1       6.845   6.361  16.740  0.00  0.00    +0.000 S 
ATOM      8  O   UNL     1       7.566   5.728  15.656  0.00  0.00    +0.000 OA
ATOM      9  O   UNL     1       7.239   7.654  17.266  0.00  0.00    +0.000 OA
ATOM     10  C   UNL     1       6.711   5.201  18.079  0.00  0.00    +0.000 C 
ATOM     11  C   UNL     1       5.432   4.429  17.747  0.00  0.00    +0.000 C 
ENDROOT
BRANCH   1  13
ATOM     12  C   UNL     1       2.988   2.168  19.556  0.00  0.00    +0.000 C 
ATOM     13  C   UNL     1       3.927   2.596  18.432  0.00  0.00    +0.000 C 
ENDBRANCH   1  13
BRANCH   4  14
ATOM     14  C   UNL     1       2.435   6.834  17.871  0.00  0.00    +0.000 C 
BRANCH  14  15
ATOM     15  C   UNL     1       2.032   8.162  18.466  0.00  0.00    +0.000 A 
ATOM     16  N   UNL     1       1.397   8.288  19.614  0.00  0.00    +0.000 NA
ATOM     17  C   UNL     1       1.041   9.614  19.827  0.00  0.00    +0.000 A 
ATOM     18  C   UNL     1       1.428  10.479  18.822  0.00  0.00    +0.000 A 
ATOM     19  S   UNL     1       2.275   9.625  17.598  0.00  0.00    +0.000 S 
BRANCH  17  20
ATOM     20  C   UNL     1       0.269  10.000  21.007  0.00  0.00    +0.000 A 
ATOM     21  C   UNL     1       0.234   9.222  22.173  0.00  0.00    +0.000 A 
ATOM     22  C   UNL     1      -0.515   9.635  23.280  0.00  0.00    +0.000 A 
ATOM     23  C   UNL     1      -1.237  10.828  23.236  0.00  0.00    +0.000 A 
ATOM     24  C   UNL     1      -1.213  11.609  22.083  0.00  0.00    +0.000 A 
ATOM     25  C   UNL     1      -0.467  11.195  20.976  0.00  0.00    +0.000 A 
ENDBRANCH  17  20
ENDBRANCH  14  15
ENDBRANCH   4  14
TORSDOF 4
ENDMDL
MODEL 2
REMARK VINA RESULT:      -7.1      4.232      9.116
REMARK  Name = 
REMARK  5 active torsions:
REMARK  status: ('A' for Active; 'I' for Inactive)
REMARK    1  A    between atoms: C_1  and  C_2
REMARK    2  A    between atoms: C_2  and  N_3
REMARK    3  A    between atoms: N_6  and  C_7
REMARK    4  A    between atoms: C_7  and  C_8
REMARK    5  A    between atoms: C_10  and  C_11
REMARK                            x       y       z     vdW  Elec       q    Type
REMARK                         _______ _______ _______ _____ _____    ______ ____
ROOT
ATOM      1  N   UNL     1       0.450  14.449  19.998  0.00  0.00    +0.000 NA
ATOM      2  C   UNL     1       1.834  13.921  19.945  0.00  0.00    +0.000 C 
ATOM      3  C   UNL     1       1.973  12.563  19.219  0.00  0.00    +0.000 C 
ATOM      4  N   UNL     1       1.018  11.498  19.624  0.00  0.00    +0.000 NA
ATOM      5  C   UNL     1      -0.355  12.024  19.865  0.00  0.00    +0.000 C 
ATOM      6  C   UNL     1      -1.196  11.075  20.741  0.00  0.00    +0.000 C 
ATOM      7  S   UNL     1      -1.160  11.721  22.401  0.00  0.00    +0.000 S 
ATOM      8  O   UNL     1      -2.503  12.142  22.743  0.00  0.00    +0.000 OA
ATOM      9  O   UNL     1      -0.403  10.824  23.252  0.00  0.00    +0.000 OA
ATOM     10  C   UNL     1      -0.186  13.167  22.061  0.00  0.00    +0.000 C 
ATOM     11  C   UNL     1      -0.434  13.414  20.571  0.00  0.00    +0.000 C 
ENDROOT
BRANCH   1  13
ATOM     12  C   UNL     1      -0.402  16.348  18.562  0.00  0.00    +0.000 C 
ATOM     13  C   UNL     1       0.036  14.889  18.648  0.00  0.00    +0.000 C 
ENDBRANCH   1  13
BRANCH   4  14
ATOM     14  C   UNL     1       0.968  10.459  18.550  0.00  0.00    +0.000 C 
BRANCH  14  15
ATOM     15  C   UNL     1       1.651   9.150  18.868  0.00  0.00    +0.000 A 
ATOM     16  N   UNL     1       2.379   8.474  18.000  0.00  0.00    +0.000 NA
ATOM     17  C   UNL     1       2.757   7.249  18.536  0.00  0.00    +0.000 A 
ATOM     18  C   UNL     1       2.307   7.025  19.823  0.00  0.00    +0.000 A 
ATOM     19  S   UNL     1       1.415   8.380  20.384  0.00  0.00    +0.000 S 
BRANCH  17  20
ATOM     20  C   UNL     1       3.519   6.288  17.741  0.00  0.00    +0.000 A 
ATOM     21  C   UNL     1       4.504   6.682  16.824  0.00  0.00    +0.000 A 
ATOM     22  C   UNL     1       5.212   5.725  16.088  0.00  0.00    +0.000 A 
ATOM     23  C   UNL     1       4.945   4.367  16.260  0.00  0.00    +0.000 A 
ATOM     24  C   UNL     1       3.967   3.963  17.166  0.00  0.00    +0.000 A 
ATOM     25  C   UNL     1       3.259   4.918  17.899  0.00  0.00    +0.000 A 
ENDBRANCH  17  20
ENDBRANCH  14  15
ENDBRANCH   4  14
TORSDOF 4
ENDMDL
MODEL 3
REMARK VINA RESULT:      -7.0      2.705      3.309
REMARK  Name = 
REMARK  5 active torsions:
REMARK  status: ('A' for Active; 'I' for Inactive)
REMARK    1  A    between atoms: C_1  and  C_2
REMARK    2  A    between atoms: C_2  and  N_3
REMARK    3  A    between atoms: N_6  and  C_7
REMARK    4  A    between atoms: C_7  and  C_8
REMARK    5  A    between atoms: C_10  and  C_11
REMARK                            x       y       z     vdW  Elec       q    Type
REMARK                         _______ _______ _______ _____ _____    ______ ____
ROOT
ATOM      1  N   UNL     1       2.778   4.277  19.087  0.00  0.00    +0.000 NA
ATOM      2  C   UNL     1       2.496   5.335  20.084  0.00  0.00    +0.000 C 
ATOM      3  C   UNL     1       2.282   6.742  19.481  0.00  0.00    +0.000 C 
ATOM      4  N   UNL     1       3.302   7.201  18.500  0.00  0.00    +0.000 NA
ATOM      5  C   UNL     1       3.750   6.109  17.589  0.00  0.00    +0.000 C 
ATOM      6  C   UNL     1       5.112   6.417  16.938  0.00  0.00    +0.000 C 
ATOM      7  S   UNL     1       6.348   5.523  17.857  0.00  0.00    +0.000 S 
ATOM      8  O   UNL     1       6.913   4.517  16.981  0.00  0.00    +0.000 OA
ATOM      9  O   UNL     1       7.186   6.461  18.580  0.00  0.00    +0.000 OA
ATOM     10  C   UNL     1       5.248   4.722  18.999  0.00  0.00    +0.000 C 
ATOM     11  C   UNL     1       3.916   4.704  18.246  0.00  0.00    +0.000 C 
ENDROOT
BRANCH   1  13
ATOM     12  C   UNL     1       0.842   2.697  18.702  0.00  0.00    +0.000 C 
ATOM     13  C   UNL     1       1.554   3.988  18.309  0.00  0.00    +0.000 C 
ENDBRANCH   1  13
BRANCH   4  14
ATOM     14  C   UNL     1       2.727   8.317  17.689  0.00  0.00    +0.000 C 
BRANCH  14  15
ATOM     15  C   UNL     1       1.502   8.986  18.267  0.00  0.00    +0.000 A 
ATOM     16  N   UNL     1       0.394   9.200  17.585  0.00  0.00    +0.000 NA
ATOM     17  C   UNL     1      -0.499   9.955  18.335  0.00  0.00    +0.000 A 
ATOM     18  C   UNL     1      -0.042  10.296  19.594  0.00  0.00    +0.000 A 
ATOM     19  S   UNL     1       1.523   9.640  19.855  0.00  0.00    +0.000 S 
BRANCH  17  20
ATOM     20  C   UNL     1      -1.779  10.378  17.772  0.00  0.00    +0.000 A 
ATOM     21  C   UNL     1      -2.657  11.233  18.453  0.00  0.00    +0.000 A 
ATOM     22  C   UNL     1      -3.871  11.615  17.871  0.00  0.00    +0.000 A 
ATOM     23  C   UNL     1      -4.220  11.149  16.604  0.00  0.00    +0.000 A 
ATOM     24  C   UNL     1      -3.359  10.297  15.917  0.00  0.00    +0.000 A 
ATOM     25  C   UNL     1      -2.148   9.913  16.500  0.00  0.00    +0.000 A 
ENDBRANCH  17  20
ENDBRANCH  14  15
ENDBRANCH   4  14
TORSDOF 4
ENDMDL
MODEL 4
REMARK VINA RESULT:      -7.0      1.026      1.420
REMARK  Name = 
REMARK  5 active torsions:
REMARK  status: ('A' for Active; 'I' for Inactive)
REMARK    1  A    between atoms: C_1  and  C_2
REMARK    2  A    between atoms: C_2  and  N_3
REMARK    3  A    between atoms: N_6  and  C_7
REMARK    4  A    between atoms: C_7  and  C_8
REMARK    5  A    between atoms: C_10  and  C_11
REMARK                            x       y       z     vdW  Elec       q    Type
REMARK                         _______ _______ _______ _____ _____    ______ ____
ROOT
ATOM      1  N   UNL     1       3.414   3.888  18.881  0.00  0.00    +0.000 NA
ATOM      2  C   UNL     1       2.975   4.827  19.940  0.00  0.00    +0.000 C 
ATOM      3  C   UNL     1       2.368   6.147  19.412  0.00  0.00    +0.000 C 
ATOM      4  N   UNL     1       3.148   6.860  18.366  0.00  0.00    +0.000 NA
ATOM      5  C   UNL     1       3.763   5.928  17.378  0.00  0.00    +0.000 C 
ATOM      6  C   UNL     1       4.942   6.574  16.624  0.00  0.00    +0.000 C 
ATOM      7  S   UNL     1       6.439   5.999  17.398  0.00  0.00    +0.000 S 
ATOM      8  O   UNL     1       7.149   5.178  16.439  0.00  0.00    +0.000 OA
ATOM      9  O   UNL     1       7.085   7.103  18.082  0.00  0.00    +0.000 OA
ATOM     10  C   UNL     1       5.680   4.932  18.599  0.00  0.00    +0.000 C 
ATOM     11  C   UNL     1       4.329   4.596  17.963  0.00  0.00    +0.000 C 
ENDROOT
BRANCH   1  13
ATOM     12  C   UNL     1       1.358   2.429  19.084  0.00  0.00    +0.000 C 
ATOM     13  C   UNL     1       2.231   3.317  18.201  0.00  0.00    +0.000 C 
ENDBRANCH   1  13
BRANCH   4  14
ATOM     14  C   UNL     1       2.244   7.811  17.651  0.00  0.00    +0.000 C 
BRANCH  14  15
ATOM     15  C   UNL     1       1.904   9.081  18.396  0.00  0.00    +0.000 A 
ATOM     16  N   UNL     1       1.196   9.111  19.508  0.00  0.00    +0.000 NA
ATOM     17  C   UNL     1       0.930  10.423  19.877  0.00  0.00    +0.000 A 
ATOM     18  C   UNL     1       1.459  11.375  19.027  0.00  0.00    +0.000 A 
ATOM     19  S   UNL     1       2.326  10.617  17.754  0.00  0.00    +0.000 S 
BRANCH  17  20
ATOM     20  C   UNL     1       0.104  10.718  21.047  0.00  0.00    +0.000 A 
ATOM     21  C   UNL     1      -0.531  11.955  21.229  0.00  0.00    +0.000 A 
ATOM     22  C   UNL     1      -1.316  12.190  22.362  0.00  0.00    +0.000 A 
ATOM     23  C   UNL     1      -1.477  11.193  23.325  0.00  0.00    +0.000 A 
ATOM     24  C   UNL     1      -0.850   9.961  23.158  0.00  0.00    +0.000 A 
ATOM     25  C   UNL     1      -0.063   9.728  22.027  0.00  0.00    +0.000 A 
ENDBRANCH  17  20
ENDBRANCH  14  15
ENDBRANCH   4  14
TORSDOF 4
ENDMDL
MODEL 5
REMARK VINA RESULT:      -7.0      4.296      9.058
REMARK  Name = 
REMARK  5 active torsions:
REMARK  status: ('A' for Active; 'I' for Inactive)
REMARK    1  A    between atoms: C_1  and  C_2
REMARK    2  A    between atoms: C_2  and  N_3
REMARK    3  A    between atoms: N_6  and  C_7
REMARK    4  A    between atoms: C_7  and  C_8
REMARK    5  A    between atoms: C_10  and  C_11
REMARK                            x       y       z     vdW  Elec       q    Type
REMARK                         _______ _______ _______ _____ _____    ______ ____
ROOT
ATOM      1  N   UNL     1       0.329  14.457  20.094  0.00  0.00    +0.000 NA
ATOM      2  C   UNL     1       1.727  13.964  20.081  0.00  0.00    +0.000 C 
ATOM      3  C   UNL     1       1.918  12.600  19.380  0.00  0.00    +0.000 C 
ATOM      4  N   UNL     1       0.981  11.516  19.779  0.00  0.00    +0.000 NA
ATOM      5  C   UNL     1      -0.411  12.011  19.981  0.00  0.00    +0.000 C 
ATOM      6  C   UNL     1      -1.247  11.053  20.851  0.00  0.00    +0.000 C 
ATOM      7  S   UNL     1      -1.267  11.724  22.501  0.00  0.00    +0.000 S 
ATOM      8  O   UNL     1      -2.628  12.116  22.806  0.00  0.00    +0.000 OA
ATOM      9  O   UNL     1      -0.507  10.860  23.384  0.00  0.00    +0.000 OA
ATOM     10  C   UNL     1      -0.323  13.190  22.162  0.00  0.00    +0.000 C 
ATOM     11  C   UNL     1      -0.542  13.408  20.663  0.00  0.00    +0.000 C 
ENDROOT
BRANCH   1  13
ATOM     12  C   UNL     1      -0.372  16.353  18.574  0.00  0.00    +0.000 C 
ATOM     13  C   UNL     1      -0.065  14.866  18.728  0.00  0.00    +0.000 C 
ENDBRANCH   1  13
BRANCH   4  14
ATOM     14  C   UNL     1       0.982  10.461  18.720  0.00  0.00    +0.000 C 
BRANCH  14  15
ATOM     15  C   UNL     1       1.536   9.117  19.131  0.00  0.00    +0.000 A 
ATOM     16  N   UNL     1       2.085   8.263  18.291  0.00  0.00    +0.000 NA
ATOM     17  C   UNL     1       2.370   7.065  18.935  0.00  0.00    +0.000 A 
ATOM     18  C   UNL     1       2.032   7.042  20.274  0.00  0.00    +0.000 A 
ATOM     19  S   UNL     1       1.369   8.553  20.745  0.00  0.00    +0.000 S 
BRANCH  17  20
ATOM     20  C   UNL     1       2.928   5.933  18.196  0.00  0.00    +0.000 A 
ATOM     21  C   UNL     1       2.199   4.761  17.950  0.00  0.00    +0.000 A 
ATOM     22  C   UNL     1       2.772   3.705  17.233  0.00  0.00    +0.000 A 
ATOM     23  C   UNL     1       4.078   3.808  16.755  0.00  0.00    +0.000 A 
ATOM     24  C   UNL     1       4.814   4.966  16.995  0.00  0.00    +0.000 A 
ATOM     25  C   UNL     1       4.242   6.019  17.712  0.00  0.00    +0.000 A 
ENDBRANCH  17  20
ENDBRANCH  14  15
ENDBRANCH   4  14
TORSDOF 4
ENDMDL
MODEL 6
REMARK VINA RESULT:      -6.9      0.463      1.121
REMARK  Name = 
REMARK  5 active torsions:
REMARK  status: ('A' for Active; 'I' for Inactive)
REMARK    1  A    between atoms: C_1  and  C_2
REMARK    2  A    between atoms: C_2  and  N_3
REMARK    3  A    between atoms: N_6  and  C_7
REMARK    4  A    between atoms: C_7  and  C_8
REMARK    5  A    between atoms: C_10  and  C_11
REMARK                            x       y       z     vdW  Elec       q    Type
REMARK                         _______ _______ _______ _____ _____    ______ ____
ROOT
ATOM      1  N   UNL     1       4.920   3.422  19.235  0.00  0.00    +0.000 NA
ATOM      2  C   UNL     1       4.570   4.470  20.223  0.00  0.00    +0.000 C 
ATOM      3  C   UNL     1       3.550   5.514  19.714  0.00  0.00    +0.000 C 
ATOM      4  N   UNL     1       3.831   6.117  18.384  0.00  0.00    +0.000 NA
ATOM      5  C   UNL     1       4.361   5.124  17.408  0.00  0.00    +0.000 C 
ATOM      6  C   UNL     1       5.108   5.798  16.240  0.00  0.00    +0.000 C 
ATOM      7  S   UNL     1       6.850   5.683  16.594  0.00  0.00    +0.000 S 
ATOM      8  O   UNL     1       7.450   4.820  15.598  0.00  0.00    +0.000 OA
ATOM      9  O   UNL     1       7.375   7.007  16.872  0.00  0.00    +0.000 OA
ATOM     10  C   UNL     1       6.714   4.777  18.116  0.00  0.00    +0.000 C 
ATOM     11  C   UNL     1       5.361   4.073  17.984  0.00  0.00    +0.000 C 
ENDROOT
BRANCH   1  13
ATOM     12  C   UNL     1       3.676   1.885  17.658  0.00  0.00    +0.000 C 
ATOM     13  C   UNL     1       3.767   2.515  19.045  0.00  0.00    +0.000 C 
ENDBRANCH   1  13
BRANCH   4  14
ATOM     14  C   UNL     1       2.570   6.714  17.847  0.00  0.00    +0.000 C 
BRANCH  14  15
ATOM     15  C   UNL     1       2.188   8.062  18.411  0.00  0.00    +0.000 A 
ATOM     16  N   UNL     1       1.551   8.225  19.554  0.00  0.00    +0.000 NA
ATOM     17  C   UNL     1       1.217   9.561  19.735  0.00  0.00    +0.000 A 
ATOM     18  C   UNL     1       1.622  10.396  18.712  0.00  0.00    +0.000 A 
ATOM     19  S   UNL     1       2.459   9.500  17.511  0.00  0.00    +0.000 S 
BRANCH  17  20
ATOM     20  C   UNL     1       0.447   9.987  20.903  0.00  0.00    +0.000 A 
ATOM     21  C   UNL     1      -0.170  11.243  20.982  0.00  0.00    +0.000 A 
ATOM     22  C   UNL     1      -0.902  11.605  22.118  0.00  0.00    +0.000 A 
ATOM     23  C   UNL     1      -1.025  10.718  23.187  0.00  0.00    +0.000 A 
ATOM     24  C   UNL     1      -0.415   9.468  23.123  0.00  0.00    +0.000 A 
ATOM     25  C   UNL     1       0.317   9.107  21.989  0.00  0.00    +0.000 A 
ENDBRANCH  17  20
ENDBRANCH  14  15
ENDBRANCH   4  14
TORSDOF 4
ENDMDL
MODEL 7
REMARK VINA RESULT:      -6.9      2.655      3.591
REMARK  Name = 
REMARK  5 active torsions:
REMARK  status: ('A' for Active; 'I' for Inactive)
REMARK    1  A    between atoms: C_1  and  C_2
REMARK    2  A    between atoms: C_2  and  N_3
REMARK    3  A    between atoms: N_6  and  C_7
REMARK    4  A    between atoms: C_7  and  C_8
REMARK    5  A    between atoms: C_10  and  C_11
REMARK                            x       y       z     vdW  Elec       q    Type
REMARK                         _______ _______ _______ _____ _____    ______ ____
ROOT
ATOM      1  N   UNL     1       5.472   5.140  17.467  0.00  0.00    +0.000 NA
ATOM      2  C   UNL     1       4.739   6.282  16.871  0.00  0.00    +0.000 C 
ATOM      3  C   UNL     1       3.878   7.082  17.874  0.00  0.00    +0.000 C 
ATOM      4  N   UNL     1       2.985   6.287  18.758  0.00  0.00    +0.000 NA
ATOM      5  C   UNL     1       3.627   5.029  19.235  0.00  0.00    +0.000 C 
ATOM      6  C   UNL     1       2.591   3.991  19.708  0.00  0.00    +0.000 C 
ATOM      7  S   UNL     1       2.371   2.825  18.380  0.00  0.00    +0.000 S 
ATOM      8  O   UNL     1       2.870   1.541  18.829  0.00  0.00    +0.000 OA
ATOM      9  O   UNL     1       1.041   2.973  17.822  0.00  0.00    +0.000 OA
ATOM     10  C   UNL     1       3.557   3.528  17.260  0.00  0.00    +0.000 C 
ATOM     11  C   UNL     1       4.512   4.281  18.190  0.00  0.00    +0.000 C 
ENDROOT
BRANCH   1  13
ATOM     12  C   UNL     1       7.488   6.655  17.649  0.00  0.00    +0.000 C 
ATOM     13  C   UNL     1       6.565   5.646  18.325  0.00  0.00    +0.000 C 
ENDBRANCH   1  13
BRANCH   4  14
ATOM     14  C   UNL     1       2.600   7.123  19.935  0.00  0.00    +0.000 C 
BRANCH  14  15
ATOM     15  C   UNL     1       1.765   8.345  19.631  0.00  0.00    +0.000 A 
ATOM     16  N   UNL     1       1.077   9.007  20.539  0.00  0.00    +0.000 NA
ATOM     17  C   UNL     1       0.303   9.992  19.938  0.00  0.00    +0.000 A 
ATOM     18  C   UNL     1       0.431  10.060  18.564  0.00  0.00    +0.000 A 
ATOM     19  S   UNL     1       1.558   8.888  18.014  0.00  0.00    +0.000 S 
BRANCH  17  20
ATOM     20  C   UNL     1      -0.601  10.822  20.732  0.00  0.00    +0.000 A 
ATOM     21  C   UNL     1      -1.461  11.766  20.154  0.00  0.00    +0.000 A 
ATOM     22  C   UNL     1      -2.313  12.535  20.954  0.00  0.00    +0.000 A 
ATOM     23  C   UNL     1      -2.315  12.370  22.339  0.00  0.00    +0.000 A 
ATOM     24  C   UNL     1      -1.464  11.437  22.927  0.00  0.00    +0.000 A 
ATOM     25  C   UNL     1      -0.612  10.671  22.127  0.00  0.00    +0.000 A 
ENDBRANCH  17  20
ENDBRANCH  14  15
ENDBRANCH   4  14
TORSDOF 4
ENDMDL
MODEL 8
REMARK VINA RESULT:      -6.8      3.441      8.531
REMARK  Name = 
REMARK  5 active torsions:
REMARK  status: ('A' for Active; 'I' for Inactive)
REMARK    1  A    between atoms: C_1  and  C_2
REMARK    2  A    between atoms: C_2  and  N_3
REMARK    3  A    between atoms: N_6  and  C_7
REMARK    4  A    between atoms: C_7  and  C_8
REMARK    5  A    between atoms: C_10  and  C_11
REMARK                            x       y       z     vdW  Elec       q    Type
REMARK                         _______ _______ _______ _____ _____    ______ ____
ROOT
ATOM      1  N   UNL     1      -0.210  12.499  19.403  0.00  0.00    +0.000 NA
ATOM      2  C   UNL     1       1.187  12.489  18.907  0.00  0.00    +0.000 C 
ATOM      3  C   UNL     1       1.628  11.153  18.267  0.00  0.00    +0.000 C 
ATOM      4  N   UNL     1       1.336   9.920  19.046  0.00  0.00    +0.000 NA
ATOM      5  C   UNL     1       0.005   9.969  19.715  0.00  0.00    +0.000 C 
ATOM      6  C   UNL     1      -0.093   8.974  20.887  0.00  0.00    +0.000 C 
ATOM      7  S   UNL     1       0.174   9.898  22.386  0.00  0.00    +0.000 S 
ATOM      8  O   UNL     1      -1.059   9.881  23.145  0.00  0.00    +0.000 OA
ATOM      9  O   UNL     1       1.439   9.505  22.977  0.00  0.00    +0.000 OA
ATOM     10  C   UNL     1       0.352  11.499  21.637  0.00  0.00    +0.000 C 
ATOM     11  C   UNL     1      -0.402  11.351  20.313  0.00  0.00    +0.000 C 
ENDROOT
BRANCH   1  13
ATOM     12  C   UNL     1      -2.567  12.068  18.597  0.00  0.00    +0.000 C 
ATOM     13  C   UNL     1      -1.144  12.497  18.256  0.00  0.00    +0.000 C 
ENDBRANCH   1  13
BRANCH   4  14
ATOM     14  C   UNL     1       1.384   8.743  18.125  0.00  0.00    +0.000 C 
BRANCH  14  15
ATOM     15  C   UNL     1       2.392   7.674  18.475  0.00  0.00    +0.000 A 
ATOM     16  N   UNL     1       3.348   7.274  17.661  0.00  0.00    +0.000 NA
ATOM     17  C   UNL     1       4.024   6.188  18.204  0.00  0.00    +0.000 A 
ATOM     18  C   UNL     1       3.562   5.789  19.443  0.00  0.00    +0.000 A 
ATOM     19  S   UNL     1       2.274   6.804  19.951  0.00  0.00    +0.000 S 
BRANCH  17  20
ATOM     20  C   UNL     1       5.091   5.522  17.458  0.00  0.00    +0.000 A 
ATOM     21  C   UNL     1       4.877   4.925  16.208  0.00  0.00    +0.000 A 
ATOM     22  C   UNL     1       5.930   4.304  15.528  0.00  0.00    +0.000 A 
ATOM     23  C   UNL     1       7.207   4.272  16.089  0.00  0.00    +0.000 A 
ATOM     24  C   UNL     1       7.433   4.860  17.331  0.00  0.00    +0.000 A 
ATOM     25  C   UNL     1       6.380   5.478  18.011  0.00  0.00    +0.000 A 
ENDBRANCH  17  20
ENDBRANCH  14  15
ENDBRANCH   4  14
TORSDOF 4
ENDMDL
MODEL 9
REMARK VINA RESULT:      -6.8      0.991      1.077
REMARK  Name = 
REMARK  5 active torsions:
REMARK  status: ('A' for Active; 'I' for Inactive)
REMARK    1  A    between atoms: C_1  and  C_2
REMARK    2  A    between atoms: C_2  and  N_3
REMARK    3  A    between atoms: N_6  and  C_7
REMARK    4  A    between atoms: C_7  and  C_8
REMARK    5  A    between atoms: C_10  and  C_11
REMARK                            x       y       z     vdW  Elec       q    Type
REMARK                         _______ _______ _______ _____ _____    ______ ____
ROOT
ATOM      1  N   UNL     1       3.418   3.423  19.415  0.00  0.00    +0.000 NA
ATOM      2  C   UNL     1       3.054   4.491  20.376  0.00  0.00    +0.000 C 
ATOM      3  C   UNL     1       2.477   5.768  19.724  0.00  0.00    +0.000 C 
ATOM      4  N   UNL     1       3.244   6.328  18.579  0.00  0.00    +0.000 NA
ATOM      5  C   UNL     1       3.786   5.268  17.682  0.00  0.00    +0.000 C 
ATOM      6  C   UNL     1       4.959   5.778  16.822  0.00  0.00    +0.000 C 
ATOM      7  S   UNL     1       6.462   5.230  17.605  0.00  0.00    +0.000 S 
ATOM      8  O   UNL     1       7.104   4.280  16.720  0.00  0.00    +0.000 OA
ATOM      9  O   UNL     1       7.174   6.376  18.139  0.00  0.00    +0.000 OA
ATOM     10  C   UNL     1       5.709   4.335  18.942  0.00  0.00    +0.000 C 
ATOM     11  C   UNL     1       4.323   3.987  18.393  0.00  0.00    +0.000 C 
ENDROOT
BRANCH   1  13
ATOM     12  C   UNL     1       2.391   2.112  17.512  0.00  0.00    +0.000 C 
ATOM     13  C   UNL     1       2.189   2.831  18.843  0.00  0.00    +0.000 C 
ENDBRANCH   1  13
BRANCH   4  14
ATOM     14  C   UNL     1       2.350   7.232  17.793  0.00  0.00    +0.000 C 
BRANCH  14  15
ATOM     15  C   UNL     1       1.966   8.527  18.467  0.00  0.00    +0.000 A 
ATOM     16  N   UNL     1       1.281   8.592  19.592  0.00  0.00    +0.000 NA
ATOM     17  C   UNL     1       0.960   9.911  19.888  0.00  0.00    +0.000 A 
ATOM     18  C   UNL     1       1.426  10.832  18.970  0.00  0.00    +0.000 A 
ATOM     19  S   UNL     1       2.301  10.039  17.725  0.00  0.00    +0.000 S 
BRANCH  17  20
ATOM     20  C   UNL     1       0.146  10.239  21.057  0.00  0.00    +0.000 A 
ATOM     21  C   UNL     1       0.073   9.406  22.183  0.00  0.00    +0.000 A 
ATOM     22  C   UNL     1      -0.716   9.763  23.281  0.00  0.00    +0.000 A 
ATOM     23  C   UNL     1      -1.440  10.955  23.269  0.00  0.00    +0.000 A 
ATOM     24  C   UNL     1      -1.378  11.791  22.156  0.00  0.00    +0.000 A 
ATOM     25  C   UNL     1      -0.592  11.432  21.058  0.00  0.00    +0.000 A 
ENDBRANCH  17  20
ENDBRANCH  14  15
ENDBRANCH   4  14
TORSDOF 4
ENDMDL
