MODEL 1
REMARK VINA RESULT:      -9.4      0.000      0.000
REMARK  Name = 
REMARK  9 active torsions:
REMARK  status: ('A' for Active; 'I' for Inactive)
REMARK    1  A    between atoms: C_2  and  O_3
REMARK    2  A    between atoms: C_2  and  C_4
REMARK    3  A    between atoms: C_4  and  C_5
REMARK    4  A    between atoms: C_5  and  N_6
REMARK    5  A    between atoms: C_5  and  C_25
REMARK    6  A    between atoms: C_7  and  C_9
REMARK    7  A    between atoms: C_14  and  C_16
REMARK    8  A    between atoms: C_16  and  C_17
REMARK    9  A    between atoms: C_17  and  C_18
REMARK                            x       y       z     vdW  Elec       q    Type
REMARK                         _______ _______ _______ _____ _____    ______ ____
ROOT
ATOM      1  N   UNL     1       3.070   5.622  20.563  0.00  0.00    +0.000 N 
ATOM      2  C   UNL     1       3.965   5.614  19.555  0.00  0.00    +0.000 C 
ATOM      3  O   UNL     1       5.142   5.501  19.884  0.00  0.00    +0.000 OA
ATOM      4  H   UNL     1       3.413   5.613  21.518  0.00  0.00    +0.000 HD
ENDROOT
BRANCH   2   5
ATOM      5  C   UNL     1       3.505   5.751  18.080  0.00  0.00    +0.000 C 
ATOM      6  C   UNL     1       3.256   4.422  17.393  0.00  0.00    +0.000 C 
ATOM      7  C   UNL     1       4.423   3.912  16.486  0.00  0.00    +0.000 C 
ATOM      8  C   UNL     1       5.450   4.971  15.763  0.00  0.00    +0.000 C 
ATOM      9  N   UNL     1       5.661   6.244  16.540  0.00  0.00    +0.000 N 
ATOM     10  C   UNL     1       7.224   6.877  16.735  0.00  0.00    +0.000 C 
ATOM     11  O   UNL     1       8.063   6.496  15.900  0.00  0.00    +0.000 OA
ATOM     12  C   UNL     1       4.149   6.618  16.977  0.00  0.00    +0.000 C 
BRANCH  10  13
ATOM     13  C   UNL     1       7.916   8.100  18.051  0.00  0.00    +0.000 C 
BRANCH  13  14
ATOM     14  C   UNL     1       8.341   9.832  18.103  0.00  0.00    +0.000 C 
BRANCH  14  15
ATOM     15  C   UNL     1       9.726  10.483  18.470  0.00  0.00    +0.000 C 
ATOM     16  C   UNL     1       9.901  10.657  19.949  0.00  0.00    +0.000 C 
ATOM     17  C   UNL     1       8.978  11.758  20.448  0.00  0.00    +0.000 C 
ATOM     18  N   UNL     1       9.250  13.046  19.797  0.00  0.00    +0.000 NA
ATOM     19  C   UNL     1       9.067  12.983  18.349  0.00  0.00    +0.000 C 
ATOM     20  C   UNL     1       9.938  11.883  17.749  0.00  0.00    +0.000 C 
ATOM     21  H   UNL     1      10.220  13.303  19.986  0.00  0.00    +0.000 HD
ENDBRANCH  14  15
ENDBRANCH  13  14
ENDBRANCH  10  13
ENDBRANCH   2   5
BRANCH   1  22
ATOM     22  C   UNL     1       1.710   5.806  20.281  0.00  0.00    +0.000 C 
BRANCH  22  23
ATOM     23  C   UNL     1       1.419   7.650  20.592  0.00  0.00    +0.000 A 
ATOM     24  C   UNL     1       1.239   8.428  21.906  0.00  0.00    +0.000 A 
ATOM     25  N   UNL     1       0.978   9.736  22.160  0.00  0.00    +0.000 NA
ATOM     26  C   UNL     1       0.859  10.451  21.097  0.00  0.00    +0.000 A 
ATOM     27 CL   UNL     1       0.387  12.091  21.461  0.00  0.00    +0.000 Cl
ATOM     28  C   UNL     1       1.060   9.936  19.812  0.00  0.00    +0.000 A 
ATOM     29 CL   UNL     1       0.758  10.960  18.419  0.00  0.00    +0.000 Cl
ATOM     30  C   UNL     1       1.391   8.557  19.539  0.00  0.00    +0.000 A 
ENDBRANCH  22  23
BRANCH  22  31
ATOM     31  C   UNL     1       0.981   4.304  20.551  0.00  0.00    +0.000 C 
BRANCH  31  33
ATOM     32  O   UNL     1       1.314   2.462  22.063  0.00  0.00    +0.000 OA
ATOM     33  C   UNL     1       1.291   2.855  20.891  0.00  0.00    +0.000 C 
BRANCH  33  34
ATOM     34  O   UNL     1       1.421   1.952  19.903  0.00  0.00    +0.000 OA
ATOM     35  H   UNL     1       0.764   1.232  19.918  0.00  0.00    +0.000 HD
ENDBRANCH  33  34
ENDBRANCH  31  33
ENDBRANCH  22  31
ENDBRANCH   1  22
TORSDOF 9
ENDMDL
MODEL 2
REMARK VINA RESULT:      -9.3      0.963      1.758
REMARK  Name = 
REMARK  9 active torsions:
REMARK  status: ('A' for Active; 'I' for Inactive)
REMARK    1  A    between atoms: C_2  and  O_3
REMARK    2  A    between atoms: C_2  and  C_4
REMARK    3  A    between atoms: C_4  and  C_5
REMARK    4  A    between atoms: C_5  and  N_6
REMARK    5  A    between atoms: C_5  and  C_25
REMARK    6  A    between atoms: C_7  and  C_9
REMARK    7  A    between atoms: C_14  and  C_16
REMARK    8  A    between atoms: C_16  and  C_17
REMARK    9  A    between atoms: C_17  and  C_18
REMARK                            x       y       z     vdW  Elec       q    Type
REMARK                         _______ _______ _______ _____ _____    ______ ____
ROOT
ATOM      1  N   UNL     1       2.986   5.650  20.510  0.00  0.00    +0.000 N 
ATOM      2  C   UNL     1       3.910   5.631  19.528  0.00  0.00    +0.000 C 
ATOM      3  O   UNL     1       5.081   5.593  19.894  0.00  0.00    +0.000 OA
ATOM      4  H   UNL     1       3.301   5.710  21.473  0.00  0.00    +0.000 HD
ENDROOT
BRANCH   2   5
ATOM      5  C   UNL     1       3.488   5.664  18.036  0.00  0.00    +0.000 C 
ATOM      6  C   UNL     1       3.353   4.289  17.409  0.00  0.00    +0.000 C 
ATOM      7  C   UNL     1       4.580   3.820  16.562  0.00  0.00    +0.000 C 
ATOM      8  C   UNL     1       5.553   4.913  15.816  0.00  0.00    +0.000 C 
ATOM      9  N   UNL     1       5.652   6.233  16.534  0.00  0.00    +0.000 N 
ATOM     10  C   UNL     1       7.160   6.984  16.740  0.00  0.00    +0.000 C 
ATOM     11  O   UNL     1       8.049   6.623  15.949  0.00  0.00    +0.000 OA
ATOM     12  C   UNL     1       4.105   6.520  16.910  0.00  0.00    +0.000 C 
BRANCH  10  13
ATOM     13  C   UNL     1       7.726   8.314  18.012  0.00  0.00    +0.000 C 
BRANCH  13  14
ATOM     14  C   UNL     1       8.858   9.692  18.018  0.00  0.00    +0.000 C 
BRANCH  14  15
ATOM     15  C   UNL     1       8.731  11.052  18.801  0.00  0.00    +0.000 C 
ATOM     16  C   UNL     1       8.871  12.243  17.901  0.00  0.00    +0.000 C 
ATOM     17  C   UNL     1      10.313  12.368  17.436  0.00  0.00    +0.000 C 
ATOM     18  N   UNL     1      11.246  12.526  18.558  0.00  0.00    +0.000 NA
ATOM     19  C   UNL     1      11.208  11.389  19.474  0.00  0.00    +0.000 C 
ATOM     20  C   UNL     1       9.787  11.162  19.983  0.00  0.00    +0.000 C 
ATOM     21  H   UNL     1      10.983  13.364  19.079  0.00  0.00    +0.000 HD
ENDBRANCH  14  15
ENDBRANCH  13  14
ENDBRANCH  10  13
ENDBRANCH   2   5
BRANCH   1  22
ATOM     22  C   UNL     1       1.628   5.752  20.182  0.00  0.00    +0.000 C 
BRANCH  22  23
ATOM     23  C   UNL     1       1.230   7.585  20.426  0.00  0.00    +0.000 A 
ATOM     24  C   UNL     1       1.496   8.798  19.518  0.00  0.00    +0.000 A 
ATOM     25  N   UNL     1       1.272  10.126  19.685  0.00  0.00    +0.000 NA
ATOM     26  C   UNL     1       0.736  10.417  20.819  0.00  0.00    +0.000 A 
ATOM     27 CL   UNL     1       0.593  12.140  21.052  0.00  0.00    +0.000 Cl
ATOM     28  C   UNL     1       0.354   9.442  21.748  0.00  0.00    +0.000 A 
ATOM     29 CL   UNL     1      -0.258   9.943  23.314  0.00  0.00    +0.000 Cl
ATOM     30  C   UNL     1       0.542   8.024  21.550  0.00  0.00    +0.000 A 
ENDBRANCH  22  23
BRANCH  22  31
ATOM     31  C   UNL     1       0.972   4.221  20.476  0.00  0.00    +0.000 C 
BRANCH  31  33
ATOM     32  O   UNL     1       1.685   1.997  19.896  0.00  0.00    +0.000 OA
ATOM     33  C   UNL     1       1.353   2.784  20.791  0.00  0.00    +0.000 C 
BRANCH  33  34
ATOM     34  O   UNL     1       1.454   2.386  22.072  0.00  0.00    +0.000 OA
ATOM     35  H   UNL     1       2.162   2.820  22.581  0.00  0.00    +0.000 HD
ENDBRANCH  33  34
ENDBRANCH  31  33
ENDBRANCH  22  31
ENDBRANCH   1  22
TORSDOF 9
ENDMDL
MODEL 3
REMARK VINA RESULT:      -9.3      0.823      1.283
REMARK  Name = 
REMARK  9 active torsions:
REMARK  status: ('A' for Active; 'I' for Inactive)
REMARK    1  A    between atoms: C_2  and  O_3
REMARK    2  A    between atoms: C_2  and  C_4
REMARK    3  A    between atoms: C_4  and  C_5
REMARK    4  A    between atoms: C_5  and  N_6
REMARK    5  A    between atoms: C_5  and  C_25
REMARK    6  A    between atoms: C_7  and  C_9
REMARK    7  A    between atoms: C_14  and  C_16
REMARK    8  A    between atoms: C_16  and  C_17
REMARK    9  A    between atoms: C_17  and  C_18
REMARK                            x       y       z     vdW  Elec       q    Type
REMARK                         _______ _______ _______ _____ _____    ______ ____
ROOT
ATOM      1  N   UNL     1       2.992   5.635  20.519  0.00  0.00    +0.000 N 
ATOM      2  C   UNL     1       3.908   5.664  19.529  0.00  0.00    +0.000 C 
ATOM      3  O   UNL     1       5.081   5.594  19.883  0.00  0.00    +0.000 OA
ATOM      4  H   UNL     1       3.315   5.636  21.480  0.00  0.00    +0.000 HD
ENDROOT
BRANCH   2   5
ATOM      5  C   UNL     1       3.474   5.788  18.045  0.00  0.00    +0.000 C 
ATOM      6  C   UNL     1       3.282   4.452  17.353  0.00  0.00    +0.000 C 
ATOM      7  C   UNL     1       4.482   3.981  16.470  0.00  0.00    +0.000 C 
ATOM      8  C   UNL     1       5.490   5.072  15.769  0.00  0.00    +0.000 C 
ATOM      9  N   UNL     1       5.645   6.350  16.551  0.00  0.00    +0.000 N 
ATOM     10  C   UNL     1       7.182   7.033  16.778  0.00  0.00    +0.000 C 
ATOM     11  O   UNL     1       8.050   6.679  15.960  0.00  0.00    +0.000 OA
ATOM     12  C   UNL     1       4.113   6.676  16.957  0.00  0.00    +0.000 C 
BRANCH  10  13
ATOM     13  C   UNL     1       7.809   8.276  18.108  0.00  0.00    +0.000 C 
BRANCH  13  14
ATOM     14  C   UNL     1       8.474   9.930  18.114  0.00  0.00    +0.000 C 
BRANCH  14  15
ATOM     15  C   UNL     1       9.835  10.429  18.728  0.00  0.00    +0.000 C 
ATOM     16  C   UNL     1       9.653  11.073  20.070  0.00  0.00    +0.000 C 
ATOM     17  C   UNL     1       8.958  12.415  19.904  0.00  0.00    +0.000 C 
ATOM     18  N   UNL     1       9.723  13.334  19.052  0.00  0.00    +0.000 NA
ATOM     19  C   UNL     1       9.918  12.806  17.705  0.00  0.00    +0.000 C 
ATOM     20  C   UNL     1      10.593  11.437  17.762  0.00  0.00    +0.000 C 
ATOM     21  H   UNL     1      10.641  13.476  19.476  0.00  0.00    +0.000 HD
ENDBRANCH  14  15
ENDBRANCH  13  14
ENDBRANCH  10  13
ENDBRANCH   2   5
BRANCH   1  22
ATOM     22  C   UNL     1       1.632   5.769  20.208  0.00  0.00    +0.000 C 
BRANCH  22  23
ATOM     23  C   UNL     1       1.270   7.603  20.498  0.00  0.00    +0.000 A 
ATOM     24  C   UNL     1       1.583   8.835  19.633  0.00  0.00    +0.000 A 
ATOM     25  N   UNL     1       1.385  10.163  19.835  0.00  0.00    +0.000 NA
ATOM     26  C   UNL     1       0.830  10.432  20.965  0.00  0.00    +0.000 A 
ATOM     27 CL   UNL     1       0.720  12.150  21.247  0.00  0.00    +0.000 Cl
ATOM     28  C   UNL     1       0.406   9.440  21.856  0.00  0.00    +0.000 A 
ATOM     29 CL   UNL     1      -0.230   9.908  23.423  0.00  0.00    +0.000 Cl
ATOM     30  C   UNL     1       0.567   8.024  21.620  0.00  0.00    +0.000 A 
ENDBRANCH  22  23
BRANCH  22  31
ATOM     31  C   UNL     1       0.952   4.243  20.476  0.00  0.00    +0.000 C 
BRANCH  31  33
ATOM     32  O   UNL     1       1.338   2.466  22.051  0.00  0.00    +0.000 OA
ATOM     33  C   UNL     1       1.302   2.816  20.866  0.00  0.00    +0.000 C 
BRANCH  33  34
ATOM     34  O   UNL     1       1.456   1.883  19.910  0.00  0.00    +0.000 OA
ATOM     35  H   UNL     1       1.648   2.235  19.022  0.00  0.00    +0.000 HD
ENDBRANCH  33  34
ENDBRANCH  31  33
ENDBRANCH  22  31
ENDBRANCH   1  22
TORSDOF 9
ENDMDL
MODEL 4
REMARK VINA RESULT:      -9.3      0.593      1.246
REMARK  Name = 
REMARK  9 active torsions:
REMARK  status: ('A' for Active; 'I' for Inactive)
REMARK    1  A    between atoms: C_2  and  O_3
REMARK    2  A    between atoms: C_2  and  C_4
REMARK    3  A    between atoms: C_4  and  C_5
REMARK    4  A    between atoms: C_5  and  N_6
REMARK    5  A    between atoms: C_5  and  C_25
REMARK    6  A    between atoms: C_7  and  C_9
REMARK    7  A    between atoms: C_14  and  C_16
REMARK    8  A    between atoms: C_16  and  C_17
REMARK    9  A    between atoms: C_17  and  C_18
REMARK                            x       y       z     vdW  Elec       q    Type
REMARK                         _______ _______ _______ _____ _____    ______ ____
ROOT
ATOM      1  N   UNL     1       3.094   5.703  20.525  0.00  0.00    +0.000 N 
ATOM      2  C   UNL     1       3.975   5.628  19.507  0.00  0.00    +0.000 C 
ATOM      3  O   UNL     1       5.153   5.499  19.826  0.00  0.00    +0.000 OA
ATOM      4  H   UNL     1       3.449   5.726  21.475  0.00  0.00    +0.000 HD
ENDROOT
BRANCH   2   5
ATOM      5  C   UNL     1       3.498   5.712  18.033  0.00  0.00    +0.000 C 
ATOM      6  C   UNL     1       3.295   4.359  17.380  0.00  0.00    +0.000 C 
ATOM      7  C   UNL     1       4.473   3.873  16.474  0.00  0.00    +0.000 C 
ATOM      8  C   UNL     1       5.453   4.953  15.718  0.00  0.00    +0.000 C 
ATOM      9  N   UNL     1       5.621   6.251  16.464  0.00  0.00    +0.000 N 
ATOM     10  C   UNL     1       7.160   6.949  16.631  0.00  0.00    +0.000 C 
ATOM     11  O   UNL     1       8.006   6.580  15.797  0.00  0.00    +0.000 OA
ATOM     12  C   UNL     1       4.100   6.577  16.906  0.00  0.00    +0.000 C 
BRANCH  10  13
ATOM     13  C   UNL     1       7.816   8.228  17.912  0.00  0.00    +0.000 C 
BRANCH  13  14
ATOM     14  C   UNL     1       8.793   9.719  17.859  0.00  0.00    +0.000 C 
BRANCH  14  15
ATOM     15  C   UNL     1       8.671  10.994  18.775  0.00  0.00    +0.000 C 
ATOM     16  C   UNL     1       8.766  12.269  17.992  0.00  0.00    +0.000 C 
ATOM     17  C   UNL     1      10.191  12.463  17.498  0.00  0.00    +0.000 C 
ATOM     18  N   UNL     1      11.156  12.527  18.602  0.00  0.00    +0.000 NA
ATOM     19  C   UNL     1      11.164  11.305  19.403  0.00  0.00    +0.000 C 
ATOM     20  C   UNL     1       9.762  11.006  19.930  0.00  0.00    +0.000 C 
ATOM     21  H   UNL     1      10.898  13.306  19.211  0.00  0.00    +0.000 HD
ENDBRANCH  14  15
ENDBRANCH  13  14
ENDBRANCH  10  13
ENDBRANCH   2   5
BRANCH   1  22
ATOM     22  C   UNL     1       1.735   5.910  20.253  0.00  0.00    +0.000 C 
BRANCH  22  23
ATOM     23  C   UNL     1       1.484   7.764  20.532  0.00  0.00    +0.000 A 
ATOM     24  C   UNL     1       1.365   8.574  21.834  0.00  0.00    +0.000 A 
ATOM     25  N   UNL     1       1.134   9.891  22.069  0.00  0.00    +0.000 NA
ATOM     26  C   UNL     1       0.987  10.585  20.994  0.00  0.00    +0.000 A 
ATOM     27 CL   UNL     1       0.554  12.239  21.338  0.00  0.00    +0.000 Cl
ATOM     28  C   UNL     1       1.132  10.038  19.714  0.00  0.00    +0.000 A 
ATOM     29 CL   UNL     1       0.795  11.036  18.311  0.00  0.00    +0.000 Cl
ATOM     30  C   UNL     1       1.431   8.648  19.461  0.00  0.00    +0.000 A 
ENDBRANCH  22  23
BRANCH  22  31
ATOM     31  C   UNL     1       0.979   4.427  20.556  0.00  0.00    +0.000 C 
BRANCH  31  33
ATOM     32  O   UNL     1       1.502   2.192  19.835  0.00  0.00    +0.000 OA
ATOM     33  C   UNL     1       1.261   2.951  20.781  0.00  0.00    +0.000 C 
BRANCH  33  34
ATOM     34  O   UNL     1       1.375   2.477  22.035  0.00  0.00    +0.000 OA
ATOM     35  H   UNL     1       0.678   2.774  22.648  0.00  0.00    +0.000 HD
ENDBRANCH  33  34
ENDBRANCH  31  33
ENDBRANCH  22  31
ENDBRANCH   1  22
TORSDOF 9
ENDMDL
MODEL 5
REMARK VINA RESULT:      -8.6      0.922      1.192
REMARK  Name = 
REMARK  9 active torsions:
REMARK  status: ('A' for Active; 'I' for Inactive)
REMARK    1  A    between atoms: C_2  and  O_3
REMARK    2  A    between atoms: C_2  and  C_4
REMARK    3  A    between atoms: C_4  and  C_5
REMARK    4  A    between atoms: C_5  and  N_6
REMARK    5  A    between atoms: C_5  and  C_25
REMARK    6  A    between atoms: C_7  and  C_9
REMARK    7  A    between atoms: C_14  and  C_16
REMARK    8  A    between atoms: C_16  and  C_17
REMARK    9  A    between atoms: C_17  and  C_18
REMARK                            x       y       z     vdW  Elec       q    Type
REMARK                         _______ _______ _______ _____ _____    ______ ____
ROOT
ATOM      1  N   UNL     1       3.207   5.520  20.365  0.00  0.00    +0.000 N 
ATOM      2  C   UNL     1       4.190   5.520  19.441  0.00  0.00    +0.000 C 
ATOM      3  O   UNL     1       5.334   5.417  19.875  0.00  0.00    +0.000 OA
ATOM      4  H   UNL     1       3.463   5.513  21.347  0.00  0.00    +0.000 HD
ENDROOT
BRANCH   2   5
ATOM      5  C   UNL     1       3.864   5.652  17.930  0.00  0.00    +0.000 C 
ATOM      6  C   UNL     1       3.924   4.338  17.176  0.00  0.00    +0.000 C 
ATOM      7  C   UNL     1       5.248   4.085  16.384  0.00  0.00    +0.000 C 
ATOM      8  C   UNL     1       6.139   5.341  15.813  0.00  0.00    +0.000 C 
ATOM      9  N   UNL     1       6.043   6.588  16.651  0.00  0.00    +0.000 N 
ATOM     10  C   UNL     1       7.442   7.470  17.035  0.00  0.00    +0.000 C 
ATOM     11  O   UNL     1       8.415   7.282  16.283  0.00  0.00    +0.000 OA
ATOM     12  C   UNL     1       4.453   6.674  16.934  0.00  0.00    +0.000 C 
BRANCH  10  13
ATOM     13  C   UNL     1       7.772   8.723  18.459  0.00  0.00    +0.000 C 
BRANCH  13  14
ATOM     14  C   UNL     1       9.006   9.956  18.829  0.00  0.00    +0.000 C 
BRANCH  14  15
ATOM     15  C   UNL     1       9.380  11.239  17.996  0.00  0.00    +0.000 C 
ATOM     16  C   UNL     1      10.848  11.318  17.700  0.00  0.00    +0.000 C 
ATOM     17  C   UNL     1      11.612  11.630  18.976  0.00  0.00    +0.000 C 
ATOM     18  N   UNL     1      11.194  12.903  19.577  0.00  0.00    +0.000 NA
ATOM     19  C   UNL     1       9.778  12.906  19.937  0.00  0.00    +0.000 C 
ATOM     20  C   UNL     1       8.918  12.577  18.719  0.00  0.00    +0.000 C 
ATOM     21  H   UNL     1      11.352  13.647  18.895  0.00  0.00    +0.000 HD
ENDBRANCH  14  15
ENDBRANCH  13  14
ENDBRANCH  10  13
ENDBRANCH   2   5
BRANCH   1  22
ATOM     22  C   UNL     1       1.877   5.692  19.961  0.00  0.00    +0.000 C 
BRANCH  22  23
ATOM     23  C   UNL     1       1.491   7.492  20.395  0.00  0.00    +0.000 A 
ATOM     24  C   UNL     1       1.068   8.133  21.728  0.00  0.00    +0.000 A 
ATOM     25  N   UNL     1       0.735   9.406  22.059  0.00  0.00    +0.000 NA
ATOM     26  C   UNL     1       0.783  10.224  21.066  0.00  0.00    +0.000 A 
ATOM     27 CL   UNL     1       0.214  11.815  21.501  0.00  0.00    +0.000 Cl
ATOM     28  C   UNL     1       1.215   9.842  19.791  0.00  0.00    +0.000 A 
ATOM     29 CL   UNL     1       1.130  10.999  18.474  0.00  0.00    +0.000 Cl
ATOM     30  C   UNL     1       1.622   8.500  19.447  0.00  0.00    +0.000 A 
ENDBRANCH  22  23
BRANCH  22  31
ATOM     31  C   UNL     1       1.179   4.152  20.026  0.00  0.00    +0.000 C 
BRANCH  31  33
ATOM     32  O   UNL     1       2.071   1.958  19.601  0.00  0.00    +0.000 OA
ATOM     33  C   UNL     1       1.192   2.791  19.350  0.00  0.00    +0.000 C 
BRANCH  33  34
ATOM     34  O   UNL     1       0.166   2.430  18.558  0.00  0.00    +0.000 OA
ATOM     35  H   UNL     1      -0.214   1.554  18.755  0.00  0.00    +0.000 HD
ENDBRANCH  33  34
ENDBRANCH  31  33
ENDBRANCH  22  31
ENDBRANCH   1  22
TORSDOF 9
ENDMDL
MODEL 6
REMARK VINA RESULT:      -8.2      1.236      1.669
REMARK  Name = 
REMARK  9 active torsions:
REMARK  status: ('A' for Active; 'I' for Inactive)
REMARK    1  A    between atoms: C_2  and  O_3
REMARK    2  A    between atoms: C_2  and  C_4
REMARK    3  A    between atoms: C_4  and  C_5
REMARK    4  A    between atoms: C_5  and  N_6
REMARK    5  A    between atoms: C_5  and  C_25
REMARK    6  A    between atoms: C_7  and  C_9
REMARK    7  A    between atoms: C_14  and  C_16
REMARK    8  A    between atoms: C_16  and  C_17
REMARK    9  A    between atoms: C_17  and  C_18
REMARK                            x       y       z     vdW  Elec       q    Type
REMARK                         _______ _______ _______ _____ _____    ______ ____
ROOT
ATOM      1  N   UNL     1       3.358   5.439  20.231  0.00  0.00    +0.000 N 
ATOM      2  C   UNL     1       4.366   5.448  19.334  0.00  0.00    +0.000 C 
ATOM      3  O   UNL     1       5.500   5.426  19.802  0.00  0.00    +0.000 OA
ATOM      4  H   UNL     1       3.586   5.491  21.218  0.00  0.00    +0.000 HD
ENDROOT
BRANCH   2   5
ATOM      5  C   UNL     1       4.076   5.493  17.811  0.00  0.00    +0.000 C 
ATOM      6  C   UNL     1       4.243   4.154  17.119  0.00  0.00    +0.000 C 
ATOM      7  C   UNL     1       5.603   3.953  16.374  0.00  0.00    +0.000 C 
ATOM      8  C   UNL     1       6.428   5.239  15.771  0.00  0.00    +0.000 C 
ATOM      9  N   UNL     1       6.228   6.513  16.549  0.00  0.00    +0.000 N 
ATOM     10  C   UNL     1       7.555   7.500  16.930  0.00  0.00    +0.000 C 
ATOM     11  O   UNL     1       8.559   7.344  16.213  0.00  0.00    +0.000 OA
ATOM     12  C   UNL     1       4.628   6.506  16.785  0.00  0.00    +0.000 C 
BRANCH  10  13
ATOM     13  C   UNL     1       7.762   8.833  18.303  0.00  0.00    +0.000 C 
BRANCH  13  14
ATOM     14  C   UNL     1       8.559  10.422  18.447  0.00  0.00    +0.000 C 
BRANCH  14  15
ATOM     15  C   UNL     1      10.057  10.727  18.824  0.00  0.00    +0.000 C 
ATOM     16  C   UNL     1      10.178  11.473  20.120  0.00  0.00    +0.000 C 
ATOM     17  C   UNL     1       9.680  12.898  19.940  0.00  0.00    +0.000 C 
ATOM     18  N   UNL     1      10.441  13.626  18.916  0.00  0.00    +0.000 NA
ATOM     19  C   UNL     1      10.349  12.992  17.604  0.00  0.00    +0.000 C 
ATOM     20  C   UNL     1      10.807  11.538  17.681  0.00  0.00    +0.000 C 
ATOM     21  H   UNL     1      11.423  13.641  19.196  0.00  0.00    +0.000 HD
ENDBRANCH  14  15
ENDBRANCH  13  14
ENDBRANCH  10  13
ENDBRANCH   2   5
BRANCH   1  22
ATOM     22  C   UNL     1       2.032   5.521  19.784  0.00  0.00    +0.000 C 
BRANCH  22  23
ATOM     23  C   UNL     1       1.537   7.313  20.136  0.00  0.00    +0.000 A 
ATOM     24  C   UNL     1       1.597   8.563  19.243  0.00  0.00    +0.000 A 
ATOM     25  N   UNL     1       1.300   9.866  19.480  0.00  0.00    +0.000 NA
ATOM     26  C   UNL     1       0.894  10.089  20.681  0.00  0.00    +0.000 A 
ATOM     27 CL   UNL     1       0.657  11.790  20.987  0.00  0.00    +0.000 Cl
ATOM     28  C   UNL     1       0.705   9.067  21.618  0.00  0.00    +0.000 A 
ATOM     29 CL   UNL     1       0.264   9.483  23.265  0.00  0.00    +0.000 Cl
ATOM     30  C   UNL     1       0.969   7.672  21.352  0.00  0.00    +0.000 A 
ENDBRANCH  22  23
BRANCH  22  31
ATOM     31  C   UNL     1       1.417   3.950  19.892  0.00  0.00    +0.000 C 
BRANCH  31  33
ATOM     32  O   UNL     1       1.810   2.263  18.221  0.00  0.00    +0.000 OA
ATOM     33  C   UNL     1       1.029   2.744  19.051  0.00  0.00    +0.000 C 
BRANCH  33  34
ATOM     34  O   UNL     1      -0.132   2.109  19.291  0.00  0.00    +0.000 OA
ATOM     35  H   UNL     1      -0.075   1.137  19.283  0.00  0.00    +0.000 HD
ENDBRANCH  33  34
ENDBRANCH  31  33
ENDBRANCH  22  31
ENDBRANCH   1  22
TORSDOF 9
ENDMDL
MODEL 7
REMARK VINA RESULT:      -8.2      1.196      1.672
REMARK  Name = 
REMARK  9 active torsions:
REMARK  status: ('A' for Active; 'I' for Inactive)
REMARK    1  A    between atoms: C_2  and  O_3
REMARK    2  A    between atoms: C_2  and  C_4
REMARK    3  A    between atoms: C_4  and  C_5
REMARK    4  A    between atoms: C_5  and  N_6
REMARK    5  A    between atoms: C_5  and  C_25
REMARK    6  A    between atoms: C_7  and  C_9
REMARK    7  A    between atoms: C_14  and  C_16
REMARK    8  A    between atoms: C_16  and  C_17
REMARK    9  A    between atoms: C_17  and  C_18
REMARK                            x       y       z     vdW  Elec       q    Type
REMARK                         _______ _______ _______ _____ _____    ______ ____
ROOT
ATOM      1  N   UNL     1       3.306   5.807  20.236  0.00  0.00    +0.000 N 
ATOM      2  C   UNL     1       4.321   5.595  19.374  0.00  0.00    +0.000 C 
ATOM      3  O   UNL     1       5.445   5.564  19.865  0.00  0.00    +0.000 OA
ATOM      4  H   UNL     1       3.527   6.001  21.208  0.00  0.00    +0.000 HD
ENDROOT
BRANCH   2   5
ATOM      5  C   UNL     1       4.052   5.415  17.856  0.00  0.00    +0.000 C 
ATOM      6  C   UNL     1       4.273   3.999  17.362  0.00  0.00    +0.000 C 
ATOM      7  C   UNL     1       5.649   3.742  16.666  0.00  0.00    +0.000 C 
ATOM      8  C   UNL     1       6.440   4.958  15.895  0.00  0.00    +0.000 C 
ATOM      9  N   UNL     1       6.187   6.321  16.484  0.00  0.00    +0.000 N 
ATOM     10  C   UNL     1       7.475   7.398  16.734  0.00  0.00    +0.000 C 
ATOM     11  O   UNL     1       8.494   7.178  16.057  0.00  0.00    +0.000 OA
ATOM     12  C   UNL     1       4.585   6.292  16.704  0.00  0.00    +0.000 C 
BRANCH  10  13
ATOM     13  C   UNL     1       7.618   8.917  17.908  0.00  0.00    +0.000 C 
BRANCH  13  14
ATOM     14  C   UNL     1       8.941   9.811  18.704  0.00  0.00    +0.000 C 
BRANCH  14  15
ATOM     15  C   UNL     1       9.813  10.982  18.118  0.00  0.00    +0.000 C 
ATOM     16  C   UNL     1      11.014  11.278  18.966  0.00  0.00    +0.000 C 
ATOM     17  C   UNL     1      10.574  11.933  20.265  0.00  0.00    +0.000 C 
ATOM     18  N   UNL     1       9.851  13.190  20.036  0.00  0.00    +0.000 NA
ATOM     19  C   UNL     1       8.638  12.994  19.246  0.00  0.00    +0.000 C 
ATOM     20  C   UNL     1       8.970  12.314  17.920  0.00  0.00    +0.000 C 
ATOM     21  H   UNL     1      10.466  13.826  19.525  0.00  0.00    +0.000 HD
ENDBRANCH  14  15
ENDBRANCH  13  14
ENDBRANCH  10  13
ENDBRANCH   2   5
BRANCH   1  22
ATOM     22  C   UNL     1       1.996   5.916  19.752  0.00  0.00    +0.000 C 
BRANCH  22  23
ATOM     23  C   UNL     1       1.796   7.758  19.369  0.00  0.00    +0.000 A 
ATOM     24  C   UNL     1       2.175   8.568  18.118  0.00  0.00    +0.000 A 
ATOM     25  N   UNL     1       2.093   9.893  17.833  0.00  0.00    +0.000 NA
ATOM     26  C   UNL     1       1.608  10.596  18.797  0.00  0.00    +0.000 A 
ATOM     27 CL   UNL     1       1.650  12.304  18.446  0.00  0.00    +0.000 Cl
ATOM     28  C   UNL     1       1.140  10.027  19.987  0.00  0.00    +0.000 A 
ATOM     29 CL   UNL     1       0.608  11.078  21.288  0.00  0.00    +0.000 Cl
ATOM     30  C   UNL     1       1.176   8.612  20.272  0.00  0.00    +0.000 A 
ENDBRANCH  22  23
BRANCH  22  31
ATOM     31  C   UNL     1       1.148   4.623  20.439  0.00  0.00    +0.000 C 
BRANCH  31  33
ATOM     32  O   UNL     1       1.392   2.421  19.501  0.00  0.00    +0.000 OA
ATOM     33  C   UNL     1       1.090   3.105  20.486  0.00  0.00    +0.000 C 
BRANCH  33  34
ATOM     34  O   UNL     1       0.827   2.484  21.649  0.00  0.00    +0.000 OA
ATOM     35  H   UNL     1       1.586   2.017  22.044  0.00  0.00    +0.000 HD
ENDBRANCH  33  34
ENDBRANCH  31  33
ENDBRANCH  22  31
ENDBRANCH   1  22
TORSDOF 9
ENDMDL
MODEL 8
REMARK VINA RESULT:      -7.8      1.392      1.989
REMARK  Name = 
REMARK  9 active torsions:
REMARK  status: ('A' for Active; 'I' for Inactive)
REMARK    1  A    between atoms: C_2  and  O_3
REMARK    2  A    between atoms: C_2  and  C_4
REMARK    3  A    between atoms: C_4  and  C_5
REMARK    4  A    between atoms: C_5  and  N_6
REMARK    5  A    between atoms: C_5  and  C_25
REMARK    6  A    between atoms: C_7  and  C_9
REMARK    7  A    between atoms: C_14  and  C_16
REMARK    8  A    between atoms: C_16  and  C_17
REMARK    9  A    between atoms: C_17  and  C_18
REMARK                            x       y       z     vdW  Elec       q    Type
REMARK                         _______ _______ _______ _____ _____    ______ ____
ROOT
ATOM      1  N   UNL     1       3.597   5.640  20.116  0.00  0.00    +0.000 N 
ATOM      2  C   UNL     1       4.637   5.662  19.258  0.00  0.00    +0.000 C 
ATOM      3  O   UNL     1       5.753   5.689  19.768  0.00  0.00    +0.000 OA
ATOM      4  H   UNL     1       3.785   5.723  21.110  0.00  0.00    +0.000 HD
ENDROOT
BRANCH   2   5
ATOM      5  C   UNL     1       4.404   5.661  17.724  0.00  0.00    +0.000 C 
ATOM      6  C   UNL     1       4.648   4.315  17.071  0.00  0.00    +0.000 C 
ATOM      7  C   UNL     1       6.042   4.151  16.382  0.00  0.00    +0.000 C 
ATOM      8  C   UNL     1       6.840   5.454  15.780  0.00  0.00    +0.000 C 
ATOM      9  N   UNL     1       6.561   6.736  16.519  0.00  0.00    +0.000 N 
ATOM     10  C   UNL     1       7.834   7.783  16.926  0.00  0.00    +0.000 C 
ATOM     11  O   UNL     1       8.871   7.650  16.251  0.00  0.00    +0.000 OA
ATOM     12  C   UNL     1       4.955   6.672  16.696  0.00  0.00    +0.000 C 
BRANCH  10  13
ATOM     13  C   UNL     1       7.938   9.153  18.274  0.00  0.00    +0.000 C 
BRANCH  13  14
ATOM     14  C   UNL     1       9.238  10.015  19.138  0.00  0.00    +0.000 C 
BRANCH  14  15
ATOM     15  C   UNL     1       9.455  11.569  19.268  0.00  0.00    +0.000 C 
ATOM     16  C   UNL     1       9.738  12.219  17.946  0.00  0.00    +0.000 C 
ATOM     17  C   UNL     1      11.125  11.822  17.467  0.00  0.00    +0.000 C 
ATOM     18  N   UNL     1      12.174  12.224  18.412  0.00  0.00    +0.000 NA
ATOM     19  C   UNL     1      12.003  11.607  19.725  0.00  0.00    +0.000 C 
ATOM     20  C   UNL     1      10.621  11.926  20.287  0.00  0.00    +0.000 C 
ATOM     21  H   UNL     1      12.131  13.238  18.528  0.00  0.00    +0.000 HD
ENDBRANCH  14  15
ENDBRANCH  13  14
ENDBRANCH  10  13
ENDBRANCH   2   5
BRANCH   1  22
ATOM     22  C   UNL     1       2.287   5.667  19.619  0.00  0.00    +0.000 C 
BRANCH  22  23
ATOM     23  C   UNL     1       1.661   7.397  20.060  0.00  0.00    +0.000 A 
ATOM     24  C   UNL     1       1.610   8.688  19.225  0.00  0.00    +0.000 A 
ATOM     25  N   UNL     1       1.218   9.952  19.526  0.00  0.00    +0.000 NA
ATOM     26  C   UNL     1       0.816  10.088  20.742  0.00  0.00    +0.000 A 
ATOM     27 CL   UNL     1       0.455  11.749  21.129  0.00  0.00    +0.000 Cl
ATOM     28  C   UNL     1       0.721   9.012  21.632  0.00  0.00    +0.000 A 
ATOM     29 CL   UNL     1       0.276   9.318  23.302  0.00  0.00    +0.000 Cl
ATOM     30  C   UNL     1       1.087   7.655  21.299  0.00  0.00    +0.000 A 
ENDBRANCH  22  23
BRANCH  22  31
ATOM     31  C   UNL     1       1.773   4.056  19.601  0.00  0.00    +0.000 C 
BRANCH  31  33
ATOM     32  O   UNL     1       1.004   2.838  21.529  0.00  0.00    +0.000 OA
ATOM     33  C   UNL     1       0.869   3.068  20.322  0.00  0.00    +0.000 C 
BRANCH  33  34
ATOM     34  O   UNL     1      -0.174   2.523  19.672  0.00  0.00    +0.000 OA
ATOM     35  H   UNL     1       0.047   2.108  18.819  0.00  0.00    +0.000 HD
ENDBRANCH  33  34
ENDBRANCH  31  33
ENDBRANCH  22  31
ENDBRANCH   1  22
TORSDOF 9
ENDMDL
MODEL 9
REMARK VINA RESULT:      -7.6      5.697     10.648
REMARK  Name = 
REMARK  9 active torsions:
REMARK  status: ('A' for Active; 'I' for Inactive)
REMARK    1  A    between atoms: C_2  and  O_3
REMARK    2  A    between atoms: C_2  and  C_4
REMARK    3  A    between atoms: C_4  and  C_5
REMARK    4  A    between atoms: C_5  and  N_6
REMARK    5  A    between atoms: C_5  and  C_25
REMARK    6  A    between atoms: C_7  and  C_9
REMARK    7  A    between atoms: C_14  and  C_16
REMARK    8  A    between atoms: C_16  and  C_17
REMARK    9  A    between atoms: C_17  and  C_18
REMARK                            x       y       z     vdW  Elec       q    Type
REMARK                         _______ _______ _______ _____ _____    ______ ____
ROOT
ATOM      1  N   UNL     1       0.478   9.867  17.970  0.00  0.00    +0.000 N 
ATOM      2  C   UNL     1      -0.230  10.176  19.076  0.00  0.00    +0.000 C 
ATOM      3  O   UNL     1      -1.450  10.088  18.973  0.00  0.00    +0.000 OA
ATOM      4  H   UNL     1      -0.025   9.661  17.113  0.00  0.00    +0.000 HD
ENDROOT
BRANCH   2   5
ATOM      5  C   UNL     1       0.483  10.619  20.380  0.00  0.00    +0.000 C 
ATOM      6  C   UNL     1       0.800   9.474  21.322  0.00  0.00    +0.000 C 
ATOM      7  C   UNL     1      -0.210   9.281  22.500  0.00  0.00    +0.000 C 
ATOM      8  C   UNL     1      -1.058  10.555  23.097  0.00  0.00    +0.000 C 
ATOM      9  N   UNL     1      -1.355  11.622  22.076  0.00  0.00    +0.000 N 
ATOM     10  C   UNL     1      -2.905  12.309  21.984  0.00  0.00    +0.000 C 
ATOM     11  O   UNL     1      -3.600  12.199  23.010  0.00  0.00    +0.000 OA
ATOM     12  C   UNL     1       0.070  11.767  21.326  0.00  0.00    +0.000 C 
BRANCH  10  13
ATOM     13  C   UNL     1      -3.771  13.238  20.538  0.00  0.00    +0.000 C 
BRANCH  13  14
ATOM     14  C   UNL     1      -5.429  13.777  20.162  0.00  0.00    +0.000 C 
BRANCH  14  15
ATOM     15  C   UNL     1      -6.684  12.893  19.812  0.00  0.00    +0.000 C 
ATOM     16  C   UNL     1      -6.352  11.431  19.752  0.00  0.00    +0.000 C 
ATOM     17  C   UNL     1      -5.507  11.148  18.520  0.00  0.00    +0.000 C 
ATOM     18  N   UNL     1      -6.198  11.516  17.277  0.00  0.00    +0.000 NA
ATOM     19  C   UNL     1      -6.529  12.938  17.228  0.00  0.00    +0.000 C 
ATOM     20  C   UNL     1      -7.362  13.333  18.445  0.00  0.00    +0.000 C 
ATOM     21  H   UNL     1      -7.068  10.984  17.223  0.00  0.00    +0.000 HD
ENDBRANCH  14  15
ENDBRANCH  13  14
ENDBRANCH  10  13
ENDBRANCH   2   5
BRANCH   1  22
ATOM     22  C   UNL     1       1.873   9.996  17.982  0.00  0.00    +0.000 C 
BRANCH  22  23
ATOM     23  C   UNL     1       2.497   8.242  18.315  0.00  0.00    +0.000 A 
ATOM     24  C   UNL     1       2.222   7.287  19.490  0.00  0.00    +0.000 A 
ATOM     25  N   UNL     1       2.692   6.048  19.784  0.00  0.00    +0.000 NA
ATOM     26  C   UNL     1       3.524   5.595  18.912  0.00  0.00    +0.000 A 
ATOM     27 CL   UNL     1       4.210   4.066  19.396  0.00  0.00    +0.000 Cl
ATOM     28  C   UNL     1       3.844   6.288  17.739  0.00  0.00    +0.000 A 
ATOM     29 CL   UNL     1       5.078   5.644  16.672  0.00  0.00    +0.000 Cl
ATOM     30  C   UNL     1       3.304   7.583  17.396  0.00  0.00    +0.000 A 
ENDBRANCH  22  23
BRANCH  22  31
ATOM     31  C   UNL     1       2.179  11.599  18.427  0.00  0.00    +0.000 C 
BRANCH  31  33
ATOM     32  O   UNL     1       2.561  13.942  18.033  0.00  0.00    +0.000 OA
ATOM     33  C   UNL     1       1.736  13.030  18.168  0.00  0.00    +0.000 C 
BRANCH  33  34
ATOM     34  O   UNL     1       0.435  13.298  17.957  0.00  0.00    +0.000 OA
ATOM     35  H   UNL     1      -0.062  12.586  17.514  0.00  0.00    +0.000 HD
ENDBRANCH  33  34
ENDBRANCH  31  33
ENDBRANCH  22  31
ENDBRANCH   1  22
TORSDOF 9
ENDMDL
