MODEL 1
REMARK VINA RESULT:      -6.9      0.000      0.000
REMARK  Name = 
REMARK  5 active torsions:
REMARK  status: ('A' for Active; 'I' for Inactive)
REMARK    1  A    between atoms: C_1  and  C_2
REMARK    2  A    between atoms: C_4  and  C_5
REMARK    3  A    between atoms: C_8  and  C_10
REMARK    4  A    between atoms: N_13  and  S_14
REMARK    5  A    between atoms: S_14  and  C_17
REMARK                            x       y       z     vdW  Elec       q    Type
REMARK                         _______ _______ _______ _____ _____    ______ ____
ROOT
ATOM      1  C   UNL     1       2.245   7.185  18.351  0.00  0.00    +0.000 C 
ATOM      2  C   UNL     1       3.785   7.059  18.348  0.00  0.00    +0.000 C 
ATOM      3  C   UNL     1       4.342   6.022  19.333  0.00  0.00    +0.000 C 
ATOM      4  N   UNL     1       3.642   4.727  19.233  0.00  0.00    +0.000 NA
ATOM      5  C   UNL     1       2.166   4.796  19.193  0.00  0.00    +0.000 C 
ATOM      6  C   UNL     1       1.676   5.781  18.133  0.00  0.00    +0.000 C 
ENDROOT
BRANCH   1  14
ATOM      7  C   UNL     1      -1.091   9.887  17.795  0.00  0.00    +0.000 C 
ATOM      8  C   UNL     1      -0.025  10.849  18.328  0.00  0.00    +0.000 C 
ATOM      9  C   UNL     1      -0.472  11.508  19.643  0.00  0.00    +0.000 C 
ATOM     10  C   UNL     1      -0.469  10.521  20.819  0.00  0.00    +0.000 C 
ATOM     11  C   UNL     1      -0.769  11.253  22.128  0.00  0.00    +0.000 C 
ATOM     12  C   UNL     1       0.870   9.777  20.908  0.00  0.00    +0.000 C 
ATOM     13  N   UNL     1       1.262   9.174  19.625  0.00  0.00    +0.000 N 
ATOM     14  C   UNL     1       1.722   7.868  19.635  0.00  0.00    +0.000 C 
ATOM     15  O   UNL     1       1.694   7.205  20.682  0.00  0.00    +0.000 OA
ATOM     16  C   UNL     1       1.325  10.130  18.517  0.00  0.00    +0.000 C 
ENDBRANCH   1  14
BRANCH   4  17
ATOM     17  S   UNL     1       4.403   3.461  18.423  0.00  0.00    +0.000 S 
ATOM     18  O   UNL     1       5.450   2.911  19.247  0.00  0.00    +0.000 OA
ATOM     19  O   UNL     1       3.373   2.616  17.860  0.00  0.00    +0.000 OA
BRANCH  17  20
ATOM     20  C   UNL     1       5.264   4.120  16.991  0.00  0.00    +0.000 A 
ATOM     21  C   UNL     1       4.862   4.343  15.684  0.00  0.00    +0.000 A 
ATOM     22  C   UNL     1       5.934   4.779  14.852  0.00  0.00    +0.000 A 
ATOM     23  C   UNL     1       7.107   4.922  15.560  0.00  0.00    +0.000 A 
ATOM     24  S   UNL     1       6.910   4.530  17.215  0.00  0.00    +0.000 S 
ENDBRANCH  17  20
ENDBRANCH   4  17
TORSDOF 3
ENDMDL
MODEL 2
REMARK VINA RESULT:      -6.1      3.881      5.554
REMARK  Name = 
REMARK  5 active torsions:
REMARK  status: ('A' for Active; 'I' for Inactive)
REMARK    1  A    between atoms: C_1  and  C_2
REMARK    2  A    between atoms: C_4  and  C_5
REMARK    3  A    between atoms: C_8  and  C_10
REMARK    4  A    between atoms: N_13  and  S_14
REMARK    5  A    between atoms: S_14  and  C_17
REMARK                            x       y       z     vdW  Elec       q    Type
REMARK                         _______ _______ _______ _____ _____    ______ ____
ROOT
ATOM      1  C   UNL     1       5.550   5.958  18.110  0.00  0.00    +0.000 C 
ATOM      2  C   UNL     1       7.015   5.781  17.655  0.00  0.00    +0.000 C 
ATOM      3  C   UNL     1       7.253   4.590  16.715  0.00  0.00    +0.000 C 
ATOM      4  N   UNL     1       6.279   4.553  15.607  0.00  0.00    +0.000 NA
ATOM      5  C   UNL     1       4.865   4.757  15.987  0.00  0.00    +0.000 C 
ATOM      6  C   UNL     1       4.687   6.006  16.848  0.00  0.00    +0.000 C 
ENDROOT
BRANCH   1  14
ATOM      7  C   UNL     1       1.464   4.584  17.712  0.00  0.00    +0.000 C 
ATOM      8  C   UNL     1       1.436   5.169  19.127  0.00  0.00    +0.000 C 
ATOM      9  C   UNL     1       1.072   4.099  20.170  0.00  0.00    +0.000 C 
ATOM     10  C   UNL     1       2.206   3.088  20.385  0.00  0.00    +0.000 C 
ATOM     11  C   UNL     1       1.863   2.140  21.534  0.00  0.00    +0.000 C 
ATOM     12  C   UNL     1       3.538   3.803  20.651  0.00  0.00    +0.000 C 
ATOM     13  N   UNL     1       3.837   4.825  19.637  0.00  0.00    +0.000 N 
ATOM     14  C   UNL     1       5.117   4.860  19.109  0.00  0.00    +0.000 C 
ATOM     15  O   UNL     1       5.940   3.985  19.411  0.00  0.00    +0.000 OA
ATOM     16  C   UNL     1       2.783   5.829  19.480  0.00  0.00    +0.000 C 
ENDBRANCH   1  14
BRANCH   4  17
ATOM     17  S   UNL     1       6.777   5.067  14.082  0.00  0.00    +0.000 S 
ATOM     18  O   UNL     1       5.923   6.133  13.620  0.00  0.00    +0.000 OA
ATOM     19  O   UNL     1       8.215   5.224  14.118  0.00  0.00    +0.000 OA
BRANCH  17  20
ATOM     20  C   UNL     1       6.509   3.739  12.903  0.00  0.00    +0.000 A 
ATOM     21  C   UNL     1       7.381   2.976  12.145  0.00  0.00    +0.000 A 
ATOM     22  C   UNL     1       6.701   2.102  11.247  0.00  0.00    +0.000 A 
ATOM     23  C   UNL     1       5.333   2.190  11.384  0.00  0.00    +0.000 A 
ATOM     24  S   UNL     1       4.879   3.322  12.585  0.00  0.00    +0.000 S 
ENDBRANCH  17  20
ENDBRANCH   4  17
TORSDOF 3
ENDMDL
MODEL 3
REMARK VINA RESULT:      -6.0      1.912      2.381
REMARK  Name = 
REMARK  5 active torsions:
REMARK  status: ('A' for Active; 'I' for Inactive)
REMARK    1  A    between atoms: C_1  and  C_2
REMARK    2  A    between atoms: C_4  and  C_5
REMARK    3  A    between atoms: C_8  and  C_10
REMARK    4  A    between atoms: N_13  and  S_14
REMARK    5  A    between atoms: S_14  and  C_17
REMARK                            x       y       z     vdW  Elec       q    Type
REMARK                         _______ _______ _______ _____ _____    ______ ____
ROOT
ATOM      1  C   UNL     1       2.866   6.048  17.816  0.00  0.00    +0.000 C 
ATOM      2  C   UNL     1       3.779   7.091  17.134  0.00  0.00    +0.000 C 
ATOM      3  C   UNL     1       5.134   7.303  17.824  0.00  0.00    +0.000 C 
ATOM      4  N   UNL     1       5.812   6.027  18.123  0.00  0.00    +0.000 NA
ATOM      5  C   UNL     1       4.970   4.982  18.743  0.00  0.00    +0.000 C 
ATOM      6  C   UNL     1       3.679   4.759  17.958  0.00  0.00    +0.000 C 
ENDROOT
BRANCH   1  14
ATOM      7  C   UNL     1      -0.137   9.148  17.489  0.00  0.00    +0.000 C 
ATOM      8  C   UNL     1       0.963   9.890  18.254  0.00  0.00    +0.000 C 
ATOM      9  C   UNL     1       0.464  10.372  19.626  0.00  0.00    +0.000 C 
ATOM     10  C   UNL     1       0.270   9.213  20.613  0.00  0.00    +0.000 C 
ATOM     11  C   UNL     1      -0.076   9.751  22.003  0.00  0.00    +0.000 C 
ATOM     12  C   UNL     1       1.519   8.324  20.671  0.00  0.00    +0.000 C 
ATOM     13  N   UNL     1       1.965   7.898  19.336  0.00  0.00    +0.000 N 
ATOM     14  C   UNL     1       2.297   6.566  19.157  0.00  0.00    +0.000 C 
ATOM     15  O   UNL     1       2.114   5.749  20.071  0.00  0.00    +0.000 OA
ATOM     16  C   UNL     1       2.217   9.009  18.415  0.00  0.00    +0.000 C 
ENDBRANCH   1  14
BRANCH   4  17
ATOM     17  S   UNL     1       7.086   5.542  17.134  0.00  0.00    +0.000 S 
ATOM     18  O   UNL     1       7.837   6.694  16.701  0.00  0.00    +0.000 OA
ATOM     19  O   UNL     1       7.740   4.422  17.775  0.00  0.00    +0.000 OA
BRANCH  17  20
ATOM     20  C   UNL     1       6.416   4.852  15.617  0.00  0.00    +0.000 A 
ATOM     21  C   UNL     1       5.278   4.108  15.356  0.00  0.00    +0.000 A 
ATOM     22  C   UNL     1       5.209   3.674  14.000  0.00  0.00    +0.000 A 
ATOM     23  C   UNL     1       6.272   4.143  13.258  0.00  0.00    +0.000 A 
ATOM     24  S   UNL     1       7.340   5.095  14.197  0.00  0.00    +0.000 S 
ENDBRANCH  17  20
ENDBRANCH   4  17
TORSDOF 3
ENDMDL
MODEL 4
REMARK VINA RESULT:      -6.0      3.196      7.535
REMARK  Name = 
REMARK  5 active torsions:
REMARK  status: ('A' for Active; 'I' for Inactive)
REMARK    1  A    between atoms: C_1  and  C_2
REMARK    2  A    between atoms: C_4  and  C_5
REMARK    3  A    between atoms: C_8  and  C_10
REMARK    4  A    between atoms: N_13  and  S_14
REMARK    5  A    between atoms: S_14  and  C_17
REMARK                            x       y       z     vdW  Elec       q    Type
REMARK                         _______ _______ _______ _____ _____    ______ ____
ROOT
ATOM      1  C   UNL     1       2.223   5.757  18.709  0.00  0.00    +0.000 C 
ATOM      2  C   UNL     1       1.446   6.269  19.942  0.00  0.00    +0.000 C 
ATOM      3  C   UNL     1       1.864   7.665  20.425  0.00  0.00    +0.000 C 
ATOM      4  N   UNL     1       1.931   8.640  19.320  0.00  0.00    +0.000 NA
ATOM      5  C   UNL     1       2.631   8.183  18.101  0.00  0.00    +0.000 C 
ATOM      6  C   UNL     1       2.107   6.830  17.624  0.00  0.00    +0.000 C 
ENDROOT
BRANCH   1  14
ATOM      7  C   UNL     1       5.128   6.532  15.595  0.00  0.00    +0.000 C 
ATOM      8  C   UNL     1       5.250   5.011  15.732  0.00  0.00    +0.000 C 
ATOM      9  C   UNL     1       6.673   4.596  16.140  0.00  0.00    +0.000 C 
ATOM     10  C   UNL     1       6.989   4.962  17.596  0.00  0.00    +0.000 C 
ATOM     11  C   UNL     1       8.350   4.396  18.003  0.00  0.00    +0.000 C 
ATOM     12  C   UNL     1       5.889   4.461  18.542  0.00  0.00    +0.000 C 
ATOM     13  N   UNL     1       4.546   4.871  18.105  0.00  0.00    +0.000 N 
ATOM     14  C   UNL     1       3.684   5.389  19.056  0.00  0.00    +0.000 C 
ATOM     15  O   UNL     1       4.081   5.596  20.211  0.00  0.00    +0.000 OA
ATOM     16  C   UNL     1       4.219   4.462  16.737  0.00  0.00    +0.000 C 
ENDBRANCH   1  14
BRANCH   4  17
ATOM     17  S   UNL     1       0.674   9.749  19.149  0.00  0.00    +0.000 S 
ATOM     18  O   UNL     1       0.093   9.633  17.834  0.00  0.00    +0.000 OA
ATOM     19  O   UNL     1      -0.147   9.671  20.338  0.00  0.00    +0.000 OA
BRANCH  17  20
ATOM     20  C   UNL     1       1.353  11.411  19.190  0.00  0.00    +0.000 A 
ATOM     21  C   UNL     1       2.186  12.099  18.322  0.00  0.00    +0.000 A 
ATOM     22  C   UNL     1       2.563  13.377  18.828  0.00  0.00    +0.000 A 
ATOM     23  C   UNL     1       1.966  13.644  20.041  0.00  0.00    +0.000 A 
ATOM     24  S   UNL     1       0.963  12.359  20.561  0.00  0.00    +0.000 S 
ENDBRANCH  17  20
ENDBRANCH   4  17
TORSDOF 3
ENDMDL
MODEL 5
REMARK VINA RESULT:      -5.8      2.312      3.767
REMARK  Name = 
REMARK  5 active torsions:
REMARK  status: ('A' for Active; 'I' for Inactive)
REMARK    1  A    between atoms: C_1  and  C_2
REMARK    2  A    between atoms: C_4  and  C_5
REMARK    3  A    between atoms: C_8  and  C_10
REMARK    4  A    between atoms: N_13  and  S_14
REMARK    5  A    between atoms: S_14  and  C_17
REMARK                            x       y       z     vdW  Elec       q    Type
REMARK                         _______ _______ _______ _____ _____    ______ ____
ROOT
ATOM      1  C   UNL     1       0.015   9.937  18.998  0.00  0.00    +0.000 C 
ATOM      2  C   UNL     1       0.751   9.399  17.751  0.00  0.00    +0.000 C 
ATOM      3  C   UNL     1       2.203   8.969  18.002  0.00  0.00    +0.000 C 
ATOM      4  N   UNL     1       2.328   8.097  19.186  0.00  0.00    +0.000 NA
ATOM      5  C   UNL     1       1.609   8.550  20.396  0.00  0.00    +0.000 C 
ATOM      6  C   UNL     1       0.148   8.878  20.094  0.00  0.00    +0.000 C 
ENDROOT
BRANCH   1  14
ATOM      7  C   UNL     1      -1.051  11.181  23.005  0.00  0.00    +0.000 C 
ATOM      8  C   UNL     1      -1.749  12.260  22.172  0.00  0.00    +0.000 C 
ATOM      9  C   UNL     1      -1.219  13.663  22.512  0.00  0.00    +0.000 C 
ATOM     10  C   UNL     1       0.207  13.887  21.990  0.00  0.00    +0.000 C 
ATOM     11  C   UNL     1       0.633  15.338  22.214  0.00  0.00    +0.000 C 
ATOM     12  C   UNL     1       0.315  13.513  20.505  0.00  0.00    +0.000 C 
ATOM     13  N   UNL     1      -0.215  12.170  20.227  0.00  0.00    +0.000 N 
ATOM     14  C   UNL     1       0.536  11.329  19.422  0.00  0.00    +0.000 C 
ATOM     15  O   UNL     1       1.666  11.671  19.048  0.00  0.00    +0.000 OA
ATOM     16  C   UNL     1      -1.600  11.978  20.664  0.00  0.00    +0.000 C 
ENDBRANCH   1  14
BRANCH   4  17
ATOM     17  S   UNL     1       2.526   6.441  18.948  0.00  0.00    +0.000 S 
ATOM     18  O   UNL     1       2.491   5.756  20.216  0.00  0.00    +0.000 OA
ATOM     19  O   UNL     1       1.658   6.046  17.860  0.00  0.00    +0.000 OA
BRANCH  17  20
ATOM     20  C   UNL     1       4.182   6.136  18.324  0.00  0.00    +0.000 A 
ATOM     21  C   UNL     1       4.908   6.707  17.292  0.00  0.00    +0.000 A 
ATOM     22  C   UNL     1       6.160   6.058  17.082  0.00  0.00    +0.000 A 
ATOM     23  C   UNL     1       6.370   5.044  17.991  0.00  0.00    +0.000 A 
ATOM     24  S   UNL     1       5.063   4.882  19.085  0.00  0.00    +0.000 S 
ENDBRANCH  17  20
ENDBRANCH   4  17
TORSDOF 3
ENDMDL
MODEL 6
REMARK VINA RESULT:      -5.8      6.861      8.562
REMARK  Name = 
REMARK  5 active torsions:
REMARK  status: ('A' for Active; 'I' for Inactive)
REMARK    1  A    between atoms: C_1  and  C_2
REMARK    2  A    between atoms: C_4  and  C_5
REMARK    3  A    between atoms: C_8  and  C_10
REMARK    4  A    between atoms: N_13  and  S_14
REMARK    5  A    between atoms: S_14  and  C_17
REMARK                            x       y       z     vdW  Elec       q    Type
REMARK                         _______ _______ _______ _____ _____    ______ ____
ROOT
ATOM      1  C   UNL     1       0.557  14.577  19.813  0.00  0.00    +0.000 C 
ATOM      2  C   UNL     1       1.209  15.928  20.180  0.00  0.00    +0.000 C 
ATOM      3  C   UNL     1       2.699  15.841  20.540  0.00  0.00    +0.000 C 
ATOM      4  N   UNL     1       3.467  15.062  19.549  0.00  0.00    +0.000 NA
ATOM      5  C   UNL     1       2.864  13.776  19.136  0.00  0.00    +0.000 C 
ATOM      6  C   UNL     1       1.408  13.949  18.708  0.00  0.00    +0.000 C 
ENDROOT
BRANCH   1  14
ATOM      7  C   UNL     1       1.159  10.349  19.103  0.00  0.00    +0.000 C 
ATOM      8  C   UNL     1      -0.308  10.363  19.541  0.00  0.00    +0.000 C 
ATOM      9  C   UNL     1      -0.524   9.518  20.807  0.00  0.00    +0.000 C 
ATOM     10  C   UNL     1       0.073  10.181  22.056  0.00  0.00    +0.000 C 
ATOM     11  C   UNL     1      -0.298   9.386  23.309  0.00  0.00    +0.000 C 
ATOM     12  C   UNL     1      -0.393  11.638  22.182  0.00  0.00    +0.000 C 
ATOM     13  N   UNL     1      -0.179  12.402  20.944  0.00  0.00    +0.000 N 
ATOM     14  C   UNL     1       0.383  13.664  21.049  0.00  0.00    +0.000 C 
ATOM     15  O   UNL     1       0.787  14.077  22.144  0.00  0.00    +0.000 OA
ATOM     16  C   UNL     1      -0.806  11.804  19.763  0.00  0.00    +0.000 C 
ENDBRANCH   1  14
BRANCH   4  17
ATOM     17  S   UNL     1       4.416  15.893  18.433  0.00  0.00    +0.000 S 
ATOM     18  O   UNL     1       3.971  15.596  17.094  0.00  0.00    +0.000 OA
ATOM     19  O   UNL     1       4.542  17.259  18.893  0.00  0.00    +0.000 OA
BRANCH  17  20
ATOM     20  C   UNL     1       6.091  15.249  18.498  0.00  0.00    +0.000 A 
ATOM     21  C   UNL     1       6.874  14.594  17.563  0.00  0.00    +0.000 A 
ATOM     22  C   UNL     1       8.120  14.160  18.103  0.00  0.00    +0.000 A 
ATOM     23  C   UNL     1       8.268  14.541  19.419  0.00  0.00    +0.000 A 
ATOM     24  S   UNL     1       6.911  15.413  19.991  0.00  0.00    +0.000 S 
ENDBRANCH  17  20
ENDBRANCH   4  17
TORSDOF 3
ENDMDL
MODEL 7
REMARK VINA RESULT:      -5.8      9.457     11.977
REMARK  Name = 
REMARK  5 active torsions:
REMARK  status: ('A' for Active; 'I' for Inactive)
REMARK    1  A    between atoms: C_1  and  C_2
REMARK    2  A    between atoms: C_4  and  C_5
REMARK    3  A    between atoms: C_8  and  C_10
REMARK    4  A    between atoms: N_13  and  S_14
REMARK    5  A    between atoms: S_14  and  C_17
REMARK                            x       y       z     vdW  Elec       q    Type
REMARK                         _______ _______ _______ _____ _____    ______ ____
ROOT
ATOM      1  C   UNL     1       9.733  14.091  22.367  0.00  0.00    +0.000 C 
ATOM      2  C   UNL     1       8.948  15.194  23.110  0.00  0.00    +0.000 C 
ATOM      3  C   UNL     1       7.495  15.368  22.645  0.00  0.00    +0.000 C 
ATOM      4  N   UNL     1       6.778  14.080  22.566  0.00  0.00    +0.000 NA
ATOM      5  C   UNL     1       7.505  12.980  21.897  0.00  0.00    +0.000 C 
ATOM      6  C   UNL     1       8.911  12.805  22.467  0.00  0.00    +0.000 C 
ENDROOT
BRANCH   1  14
ATOM      7  C   UNL     1       9.608  10.882  19.464  0.00  0.00    +0.000 C 
ATOM      8  C   UNL     1      11.081  11.295  19.376  0.00  0.00    +0.000 C 
ATOM      9  C   UNL     1      11.447  11.769  17.960  0.00  0.00    +0.000 C 
ATOM     10  C   UNL     1      10.828  13.133  17.626  0.00  0.00    +0.000 C 
ATOM     11  C   UNL     1      11.342  13.634  16.276  0.00  0.00    +0.000 C 
ATOM     12  C   UNL     1      11.122  14.157  18.732  0.00  0.00    +0.000 C 
ATOM     13  N   UNL     1      10.768  13.654  20.068  0.00  0.00    +0.000 N 
ATOM     14  C   UNL     1      10.065  14.497  20.913  0.00  0.00    +0.000 C 
ATOM     15  O   UNL     1       9.660  15.594  20.503  0.00  0.00    +0.000 OA
ATOM     16  C   UNL     1      11.413  12.385  20.413  0.00  0.00    +0.000 C 
ENDBRANCH   1  14
BRANCH   4  17
ATOM     17  S   UNL     1       5.692  13.688  23.793  0.00  0.00    +0.000 S 
ATOM     18  O   UNL     1       4.562  14.583  23.752  0.00  0.00    +0.000 OA
ATOM     19  O   UNL     1       5.509  12.253  23.777  0.00  0.00    +0.000 OA
BRANCH  17  20
ATOM     20  C   UNL     1       6.463  14.017  25.381  0.00  0.00    +0.000 A 
ATOM     21  C   UNL     1       6.406  15.104  26.237  0.00  0.00    +0.000 A 
ATOM     22  C   UNL     1       7.287  14.969  27.349  0.00  0.00    +0.000 A 
ATOM     23  C   UNL     1       7.952  13.762  27.332  0.00  0.00    +0.000 A 
ATOM     24  S   UNL     1       7.512  12.806  25.982  0.00  0.00    +0.000 S 
ENDBRANCH  17  20
ENDBRANCH   4  17
TORSDOF 3
ENDMDL
MODEL 8
REMARK VINA RESULT:      -5.8      4.577      8.796
REMARK  Name = 
REMARK  5 active torsions:
REMARK  status: ('A' for Active; 'I' for Inactive)
REMARK    1  A    between atoms: C_1  and  C_2
REMARK    2  A    between atoms: C_4  and  C_5
REMARK    3  A    between atoms: C_8  and  C_10
REMARK    4  A    between atoms: N_13  and  S_14
REMARK    5  A    between atoms: S_14  and  C_17
REMARK                            x       y       z     vdW  Elec       q    Type
REMARK                         _______ _______ _______ _____ _____    ______ ____
ROOT
ATOM      1  C   UNL     1       0.537   8.966  19.057  0.00  0.00    +0.000 C 
ATOM      2  C   UNL     1       0.814   9.363  20.525  0.00  0.00    +0.000 C 
ATOM      3  C   UNL     1       1.324  10.798  20.713  0.00  0.00    +0.000 C 
ATOM      4  N   UNL     1       0.505  11.781  19.977  0.00  0.00    +0.000 NA
ATOM      5  C   UNL     1       0.180  11.429  18.579  0.00  0.00    +0.000 C 
ATOM      6  C   UNL     1      -0.404  10.022  18.473  0.00  0.00    +0.000 C 
ENDROOT
BRANCH   1  14
ATOM      7  C   UNL     1       1.489   4.901  17.915  0.00  0.00    +0.000 C 
ATOM      8  C   UNL     1       2.688   5.239  18.806  0.00  0.00    +0.000 C 
ATOM      9  C   UNL     1       4.011   5.143  18.029  0.00  0.00    +0.000 C 
ATOM     10  C   UNL     1       4.175   6.285  17.018  0.00  0.00    +0.000 C 
ATOM     11  C   UNL     1       5.565   6.236  16.382  0.00  0.00    +0.000 C 
ATOM     12  C   UNL     1       3.930   7.647  17.681  0.00  0.00    +0.000 C 
ATOM     13  N   UNL     1       2.660   7.688  18.422  0.00  0.00    +0.000 N 
ATOM     14  C   UNL     1       1.843   8.792  18.248  0.00  0.00    +0.000 C 
ATOM     15  O   UNL     1       2.132   9.657  17.410  0.00  0.00    +0.000 OA
ATOM     16  C   UNL     1       2.533   6.638  19.435  0.00  0.00    +0.000 C 
ENDBRANCH   1  14
BRANCH   4  17
ATOM     17  S   UNL     1      -0.598  12.716  20.842  0.00  0.00    +0.000 S 
ATOM     18  O   UNL     1      -1.923  12.163  20.703  0.00  0.00    +0.000 OA
ATOM     19  O   UNL     1      -0.029  12.974  22.146  0.00  0.00    +0.000 OA
BRANCH  17  20
ATOM     20  C   UNL     1      -0.711  14.338  20.080  0.00  0.00    +0.000 A 
ATOM     21  C   UNL     1      -0.015  14.928  19.038  0.00  0.00    +0.000 A 
ATOM     22  C   UNL     1      -0.371  16.296  18.851  0.00  0.00    +0.000 A 
ATOM     23  C   UNL     1      -1.362  16.691  19.723  0.00  0.00    +0.000 A 
ATOM     24  S   UNL     1      -1.853  15.419  20.757  0.00  0.00    +0.000 S 
ENDBRANCH  17  20
ENDBRANCH   4  17
TORSDOF 3
ENDMDL
MODEL 9
REMARK VINA RESULT:      -5.7      6.301      8.675
REMARK  Name = 
REMARK  5 active torsions:
REMARK  status: ('A' for Active; 'I' for Inactive)
REMARK    1  A    between atoms: C_1  and  C_2
REMARK    2  A    between atoms: C_4  and  C_5
REMARK    3  A    between atoms: C_8  and  C_10
REMARK    4  A    between atoms: N_13  and  S_14
REMARK    5  A    between atoms: S_14  and  C_17
REMARK                            x       y       z     vdW  Elec       q    Type
REMARK                         _______ _______ _______ _____ _____    ______ ____
ROOT
ATOM      1  C   UNL     1      -4.240  10.774  18.359  0.00  0.00    +0.000 C 
ATOM      2  C   UNL     1      -3.370   9.689  17.686  0.00  0.00    +0.000 C 
ATOM      3  C   UNL     1      -2.053  10.206  17.090  0.00  0.00    +0.000 C 
ATOM      4  N   UNL     1      -1.310  11.059  18.037  0.00  0.00    +0.000 NA
ATOM      5  C   UNL     1      -2.108  12.089  18.736  0.00  0.00    +0.000 C 
ATOM      6  C   UNL     1      -3.357  11.493  19.381  0.00  0.00    +0.000 C 
ENDROOT
BRANCH   1  14
ATOM      7  C   UNL     1      -5.818  14.473  19.959  0.00  0.00    +0.000 C 
ATOM      8  C   UNL     1      -7.093  13.832  19.402  0.00  0.00    +0.000 C 
ATOM      9  C   UNL     1      -7.737  14.712  18.319  0.00  0.00    +0.000 C 
ATOM     10  C   UNL     1      -6.923  14.722  17.018  0.00  0.00    +0.000 C 
ATOM     11  C   UNL     1      -7.677  15.481  15.925  0.00  0.00    +0.000 C 
ATOM     12  C   UNL     1      -6.599  13.293  16.561  0.00  0.00    +0.000 C 
ATOM     13  N   UNL     1      -5.997  12.486  17.633  0.00  0.00    +0.000 N 
ATOM     14  C   UNL     1      -4.882  11.725  17.324  0.00  0.00    +0.000 C 
ATOM     15  O   UNL     1      -4.355  11.817  16.206  0.00  0.00    +0.000 OA
ATOM     16  C   UNL     1      -6.808  12.421  18.851  0.00  0.00    +0.000 C 
ENDBRANCH   1  14
BRANCH   4  17
ATOM     17  S   UNL     1       0.022  10.404  18.835  0.00  0.00    +0.000 S 
ATOM     18  O   UNL     1      -0.410   9.710  20.022  0.00  0.00    +0.000 OA
ATOM     19  O   UNL     1       0.849   9.749  17.845  0.00  0.00    +0.000 OA
BRANCH  17  20
ATOM     20  C   UNL     1       1.049  11.743  19.450  0.00  0.00    +0.000 A 
ATOM     21  C   UNL     1       1.104  12.387  20.675  0.00  0.00    +0.000 A 
ATOM     22  C   UNL     1       2.010  13.487  20.673  0.00  0.00    +0.000 A 
ATOM     23  C   UNL     1       2.654  13.617  19.461  0.00  0.00    +0.000 A 
ATOM     24  S   UNL     1       2.162  12.420  18.341  0.00  0.00    +0.000 S 
ENDBRANCH  17  20
ENDBRANCH   4  17
TORSDOF 3
ENDMDL
