MODEL 1
REMARK VINA RESULT:      -8.8      0.000      0.000
REMARK  Name = 
REMARK  6 active torsions:
REMARK  status: ('A' for Active; 'I' for Inactive)
REMARK    1  A    between atoms: C_1  and  O_2
REMARK    2  A    between atoms: O_2  and  C_3
REMARK    3  A    between atoms: C_8  and  N_9
REMARK    4  A    between atoms: C_13  and  S_14
REMARK    5  A    between atoms: S_14  and  C_15
REMARK    6  A    between atoms: C_15  and  C_16
REMARK                            x       y       z     vdW  Elec       q    Type
REMARK                         _______ _______ _______ _____ _____    ______ ____
ROOT
ATOM      1  C   UNL     1       2.259   7.040  19.636  0.00  0.00    +0.000 C 
ENDROOT
BRANCH   1   2
ATOM      2  C   UNL     1       1.877   8.429  19.116  0.00  0.00    +0.000 C 
ATOM      3  O   UNL     1       2.655   8.874  18.221  0.00  0.00    +0.000 OA
ATOM      4  N   UNL     1       0.776   9.242  19.434  0.00  0.00    +0.000 N 
ATOM      5  C   UNL     1       0.454  10.161  18.333  0.00  0.00    +0.000 C 
ATOM      6  C   UNL     1      -0.983  10.589  18.455  0.00  0.00    +0.000 C 
ATOM      7  O   UNL     1      -1.920  10.092  17.841  0.00  0.00    +0.000 OA
ATOM      8  N   UNL     1      -1.144  11.417  19.539  0.00  0.00    +0.000 N 
ATOM      9  C   UNL     1      -0.658  10.840  20.742  0.00  0.00    +0.000 A 
ATOM     10  C   UNL     1      -1.149  11.439  21.904  0.00  0.00    +0.000 A 
ATOM     11  C   UNL     1      -0.934  10.826  23.115  0.00  0.00    +0.000 A 
ATOM     12  C   UNL     1      -0.182   9.631  23.135  0.00  0.00    +0.000 A 
ATOM     13  C   UNL     1       0.399   9.078  21.971  0.00  0.00    +0.000 A 
ATOM     14  C   UNL     1       0.181   9.663  20.731  0.00  0.00    +0.000 A 
ATOM     15  H   UNL     1      -0.739  12.346  19.428  0.00  0.00    +0.000 HD
ENDBRANCH   1   2
BRANCH   1  16
ATOM     16  S   UNL     1       2.352   5.708  18.431  0.00  0.00    +0.000 S 
BRANCH  16  21
ATOM     17  N   UNL     1       4.283   3.702  18.817  0.00  0.00    +0.000 N 
ATOM     18  C   UNL     1       4.371   2.557  19.576  0.00  0.00    +0.000 A 
ATOM     19  N   UNL     1       3.425   2.549  20.489  0.00  0.00    +0.000 NA
ATOM     20  N   UNL     1       2.626   3.663  20.287  0.00  0.00    +0.000 NA
ATOM     21  C   UNL     1       3.117   4.337  19.267  0.00  0.00    +0.000 A 
BRANCH  17  27
ATOM     22  C   UNL     1       6.443   4.660  18.056  0.00  0.00    +0.000 A 
ATOM     23  C   UNL     1       7.352   4.711  16.988  0.00  0.00    +0.000 A 
ATOM     24  C   UNL     1       6.979   4.343  15.696  0.00  0.00    +0.000 A 
ATOM     25  C   UNL     1       5.666   3.985  15.425  0.00  0.00    +0.000 A 
ATOM     26  C   UNL     1       4.762   3.900  16.472  0.00  0.00    +0.000 A 
ATOM     27  C   UNL     1       5.170   4.125  17.797  0.00  0.00    +0.000 A 
BRANCH  22  29
ATOM     28  C   UNL     1       7.946   5.873  19.423  0.00  0.00    +0.000 C 
ATOM     29  O   UNL     1       6.799   5.019  19.330  0.00  0.00    +0.000 OA
ENDBRANCH  22  29
ENDBRANCH  17  27
ENDBRANCH  16  21
ENDBRANCH   1  16
TORSDOF 5
ENDMDL
MODEL 2
REMARK VINA RESULT:      -8.6      0.952      1.808
REMARK  Name = 
REMARK  6 active torsions:
REMARK  status: ('A' for Active; 'I' for Inactive)
REMARK    1  A    between atoms: C_1  and  O_2
REMARK    2  A    between atoms: O_2  and  C_3
REMARK    3  A    between atoms: C_8  and  N_9
REMARK    4  A    between atoms: C_13  and  S_14
REMARK    5  A    between atoms: S_14  and  C_15
REMARK    6  A    between atoms: C_15  and  C_16
REMARK                            x       y       z     vdW  Elec       q    Type
REMARK                         _______ _______ _______ _____ _____    ______ ____
ROOT
ATOM      1  C   UNL     1       2.326   7.203  19.469  0.00  0.00    +0.000 C 
ENDROOT
BRANCH   1   2
ATOM      2  C   UNL     1       1.832   8.573  18.994  0.00  0.00    +0.000 C 
ATOM      3  O   UNL     1       2.534   9.079  18.069  0.00  0.00    +0.000 OA
ATOM      4  N   UNL     1       0.701   9.310  19.382  0.00  0.00    +0.000 N 
ATOM      5  C   UNL     1       0.266  10.224  18.315  0.00  0.00    +0.000 C 
ATOM      6  C   UNL     1      -1.186  10.559  18.517  0.00  0.00    +0.000 C 
ATOM      7  O   UNL     1      -2.122  10.013  17.944  0.00  0.00    +0.000 OA
ATOM      8  N   UNL     1      -1.342  11.359  19.624  0.00  0.00    +0.000 N 
ATOM      9  C   UNL     1      -0.759  10.796  20.790  0.00  0.00    +0.000 A 
ATOM     10  C   UNL     1      -1.225  11.347  21.986  0.00  0.00    +0.000 A 
ATOM     11  C   UNL     1      -0.910  10.730  23.173  0.00  0.00    +0.000 A 
ATOM     12  C   UNL     1      -0.085   9.585  23.133  0.00  0.00    +0.000 A 
ATOM     13  C   UNL     1       0.467   9.086  21.931  0.00  0.00    +0.000 A 
ATOM     14  C   UNL     1       0.149   9.674  20.715  0.00  0.00    +0.000 A 
ATOM     15  H   UNL     1      -1.001  12.313  19.509  0.00  0.00    +0.000 HD
ENDBRANCH   1   2
BRANCH   1  16
ATOM     16  S   UNL     1       2.690   5.976  18.205  0.00  0.00    +0.000 S 
BRANCH  16  21
ATOM     17  N   UNL     1       4.606   4.075  18.992  0.00  0.00    +0.000 N 
ATOM     18  C   UNL     1       4.570   2.825  19.566  0.00  0.00    +0.000 A 
ATOM     19  N   UNL     1       3.373   2.592  20.060  0.00  0.00    +0.000 NA
ATOM     20  N   UNL     1       2.559   3.665  19.735  0.00  0.00    +0.000 NA
ATOM     21  C   UNL     1       3.284   4.538  19.067  0.00  0.00    +0.000 A 
BRANCH  17  27
ATOM     22  C   UNL     1       5.929   4.879  17.051  0.00  0.00    +0.000 A 
ATOM     23  C   UNL     1       6.870   5.832  16.632  0.00  0.00    +0.000 A 
ATOM     24  C   UNL     1       7.654   6.533  17.546  0.00  0.00    +0.000 A 
ATOM     25  C   UNL     1       7.569   6.245  18.901  0.00  0.00    +0.000 A 
ATOM     26  C   UNL     1       6.625   5.329  19.337  0.00  0.00    +0.000 A 
ATOM     27  C   UNL     1       5.730   4.731  18.434  0.00  0.00    +0.000 A 
BRANCH  22  29
ATOM     28  C   UNL     1       5.741   3.980  14.870  0.00  0.00    +0.000 C 
ATOM     29  O   UNL     1       5.152   4.184  16.161  0.00  0.00    +0.000 OA
ENDBRANCH  22  29
ENDBRANCH  17  27
ENDBRANCH  16  21
ENDBRANCH   1  16
TORSDOF 5
ENDMDL
MODEL 3
REMARK VINA RESULT:      -8.5      2.479      8.659
REMARK  Name = 
REMARK  6 active torsions:
REMARK  status: ('A' for Active; 'I' for Inactive)
REMARK    1  A    between atoms: C_1  and  O_2
REMARK    2  A    between atoms: O_2  and  C_3
REMARK    3  A    between atoms: C_8  and  N_9
REMARK    4  A    between atoms: C_13  and  S_14
REMARK    5  A    between atoms: S_14  and  C_15
REMARK    6  A    between atoms: C_15  and  C_16
REMARK                            x       y       z     vdW  Elec       q    Type
REMARK                         _______ _______ _______ _____ _____    ______ ____
ROOT
ATOM      1  C   UNL     1       1.457   8.285  21.041  0.00  0.00    +0.000 C 
ENDROOT
BRANCH   1   2
ATOM      2  C   UNL     1       1.921   7.833  19.653  0.00  0.00    +0.000 C 
ATOM      3  O   UNL     1       1.786   8.716  18.755  0.00  0.00    +0.000 OA
ATOM      4  N   UNL     1       2.520   6.629  19.248  0.00  0.00    +0.000 N 
ATOM      5  C   UNL     1       3.332   6.817  18.037  0.00  0.00    +0.000 C 
ATOM      6  C   UNL     1       4.357   5.719  17.958  0.00  0.00    +0.000 C 
ATOM      7  O   UNL     1       5.522   5.815  18.325  0.00  0.00    +0.000 OA
ATOM      8  N   UNL     1       3.750   4.518  17.680  0.00  0.00    +0.000 N 
ATOM      9  C   UNL     1       2.709   4.209  18.595  0.00  0.00    +0.000 A 
ATOM     10  C   UNL     1       2.344   2.861  18.612  0.00  0.00    +0.000 A 
ATOM     11  C   UNL     1       1.518   2.405  19.611  0.00  0.00    +0.000 A 
ATOM     12  C   UNL     1       1.037   3.335  20.557  0.00  0.00    +0.000 A 
ATOM     13  C   UNL     1       1.328   4.717  20.483  0.00  0.00    +0.000 A 
ATOM     14  C   UNL     1       2.176   5.204  19.498  0.00  0.00    +0.000 A 
ATOM     15  H   UNL     1       3.393   4.433  16.729  0.00  0.00    +0.000 HD
ENDBRANCH   1   2
BRANCH   1  16
ATOM     16  S   UNL     1      -0.088   9.200  21.134  0.00  0.00    +0.000 S 
BRANCH  16  21
ATOM     17  N   UNL     1      -0.298  11.540  19.590  0.00  0.00    +0.000 N 
ATOM     18  C   UNL     1       0.462  12.676  19.421  0.00  0.00    +0.000 A 
ATOM     19  N   UNL     1       1.357  12.764  20.380  0.00  0.00    +0.000 NA
ATOM     20  N   UNL     1       1.264  11.623  21.160  0.00  0.00    +0.000 NA
ATOM     21  C   UNL     1       0.298  10.874  20.671  0.00  0.00    +0.000 A 
BRANCH  17  27
ATOM     22  C   UNL     1      -2.693  11.708  18.964  0.00  0.00    +0.000 A 
ATOM     23  C   UNL     1      -3.619  11.484  17.933  0.00  0.00    +0.000 A 
ATOM     24  C   UNL     1      -3.324  10.643  16.860  0.00  0.00    +0.000 A 
ATOM     25  C   UNL     1      -2.125   9.947  16.831  0.00  0.00    +0.000 A 
ATOM     26  C   UNL     1      -1.187  10.178  17.824  0.00  0.00    +0.000 A 
ATOM     27  C   UNL     1      -1.418  11.136  18.825  0.00  0.00    +0.000 A 
BRANCH  22  29
ATOM     28  C   UNL     1      -4.365  12.688  20.323  0.00  0.00    +0.000 C 
ATOM     29  O   UNL     1      -2.972  12.533  20.023  0.00  0.00    +0.000 OA
ENDBRANCH  22  29
ENDBRANCH  17  27
ENDBRANCH  16  21
ENDBRANCH   1  16
TORSDOF 5
ENDMDL
MODEL 4
REMARK VINA RESULT:      -8.4      1.768      2.320
REMARK  Name = 
REMARK  6 active torsions:
REMARK  status: ('A' for Active; 'I' for Inactive)
REMARK    1  A    between atoms: C_1  and  O_2
REMARK    2  A    between atoms: O_2  and  C_3
REMARK    3  A    between atoms: C_8  and  N_9
REMARK    4  A    between atoms: C_13  and  S_14
REMARK    5  A    between atoms: S_14  and  C_15
REMARK    6  A    between atoms: C_15  and  C_16
REMARK                            x       y       z     vdW  Elec       q    Type
REMARK                         _______ _______ _______ _____ _____    ______ ____
ROOT
ATOM      1  C   UNL     1       1.557   8.026  17.955  0.00  0.00    +0.000 C 
ENDROOT
BRANCH   1   2
ATOM      2  C   UNL     1       1.480   9.532  18.227  0.00  0.00    +0.000 C 
ATOM      3  O   UNL     1       2.337  10.212  17.590  0.00  0.00    +0.000 OA
ATOM      4  N   UNL     1       0.576  10.262  19.016  0.00  0.00    +0.000 N 
ATOM      5  C   UNL     1       0.460  11.652  18.548  0.00  0.00    +0.000 C 
ATOM      6  C   UNL     1      -0.853  12.219  19.013  0.00  0.00    +0.000 C 
ATOM      7  O   UNL     1      -1.873  12.280  18.337  0.00  0.00    +0.000 OA
ATOM      8  N   UNL     1      -0.838  12.404  20.375  0.00  0.00    +0.000 N 
ATOM      9  C   UNL     1      -0.488  11.223  21.081  0.00  0.00    +0.000 A 
ATOM     10  C   UNL     1      -0.843  11.238  22.432  0.00  0.00    +0.000 A 
ATOM     11  C   UNL     1      -0.767  10.072  23.156  0.00  0.00    +0.000 A 
ATOM     12  C   UNL     1      -0.286   8.914  22.508  0.00  0.00    +0.000 A 
ATOM     13  C   UNL     1       0.166   8.922  21.169  0.00  0.00    +0.000 A 
ATOM     14  C   UNL     1       0.081  10.078  20.406  0.00  0.00    +0.000 A 
ATOM     15  H   UNL     1      -0.244  13.170  20.692  0.00  0.00    +0.000 HD
ENDBRANCH   1   2
BRANCH   1  16
ATOM     16  S   UNL     1       2.830   7.099  18.822  0.00  0.00    +0.000 S 
BRANCH  16  21
ATOM     17  N   UNL     1       3.828   4.699  17.750  0.00  0.00    +0.000 N 
ATOM     18  C   UNL     1       3.280   3.593  17.139  0.00  0.00    +0.000 A 
ATOM     19  N   UNL     1       1.978   3.579  17.322  0.00  0.00    +0.000 NA
ATOM     20  N   UNL     1       1.626   4.741  17.989  0.00  0.00    +0.000 NA
ATOM     21  C   UNL     1       2.725   5.429  18.217  0.00  0.00    +0.000 A 
BRANCH  17  27
ATOM     22  C   UNL     1       5.972   5.488  16.780  0.00  0.00    +0.000 A 
ATOM     23  C   UNL     1       7.197   6.104  17.077  0.00  0.00    +0.000 A 
ATOM     24  C   UNL     1       7.684   6.164  18.382  0.00  0.00    +0.000 A 
ATOM     25  C   UNL     1       6.993   5.545  19.413  0.00  0.00    +0.000 A 
ATOM     26  C   UNL     1       5.766   4.958  19.144  0.00  0.00    +0.000 A 
ATOM     27  C   UNL     1       5.201   5.025  17.860  0.00  0.00    +0.000 A 
BRANCH  22  29
ATOM     28  C   UNL     1       6.417   4.961  14.516  0.00  0.00    +0.000 C 
ATOM     29  O   UNL     1       5.484   5.423  15.501  0.00  0.00    +0.000 OA
ENDBRANCH  22  29
ENDBRANCH  17  27
ENDBRANCH  16  21
ENDBRANCH   1  16
TORSDOF 5
ENDMDL
MODEL 5
REMARK VINA RESULT:      -8.3      2.276      8.637
REMARK  Name = 
REMARK  6 active torsions:
REMARK  status: ('A' for Active; 'I' for Inactive)
REMARK    1  A    between atoms: C_1  and  O_2
REMARK    2  A    between atoms: O_2  and  C_3
REMARK    3  A    between atoms: C_8  and  N_9
REMARK    4  A    between atoms: C_13  and  S_14
REMARK    5  A    between atoms: S_14  and  C_15
REMARK    6  A    between atoms: C_15  and  C_16
REMARK                            x       y       z     vdW  Elec       q    Type
REMARK                         _______ _______ _______ _____ _____    ______ ____
ROOT
ATOM      1  C   UNL     1       1.832   8.390  19.312  0.00  0.00    +0.000 C 
ENDROOT
BRANCH   1   2
ATOM      2  C   UNL     1       2.752   7.433  18.548  0.00  0.00    +0.000 C 
ATOM      3  O   UNL     1       3.075   7.845  17.395  0.00  0.00    +0.000 OA
ATOM      4  N   UNL     1       3.329   6.219  18.953  0.00  0.00    +0.000 N 
ATOM      5  C   UNL     1       4.566   5.940  18.209  0.00  0.00    +0.000 C 
ATOM      6  C   UNL     1       5.417   4.991  19.007  0.00  0.00    +0.000 C 
ATOM      7  O   UNL     1       6.347   5.318  19.734  0.00  0.00    +0.000 OA
ATOM      8  N   UNL     1       4.843   3.742  19.032  0.00  0.00    +0.000 N 
ATOM      9  C   UNL     1       3.500   3.769  19.492  0.00  0.00    +0.000 A 
ATOM     10  C   UNL     1       3.015   2.530  19.916  0.00  0.00    +0.000 A 
ATOM     11  C   UNL     1       1.820   2.475  20.592  0.00  0.00    +0.000 A 
ATOM     12  C   UNL     1       1.108   3.678  20.790  0.00  0.00    +0.000 A 
ATOM     13  C   UNL     1       1.551   4.918  20.275  0.00  0.00    +0.000 A 
ATOM     14  C   UNL     1       2.765   5.008  19.608  0.00  0.00    +0.000 A 
ATOM     15  H   UNL     1       4.881   3.240  18.146  0.00  0.00    +0.000 HD
ENDBRANCH   1   2
BRANCH   1  16
ATOM     16  S   UNL     1       0.848   9.538  18.339  0.00  0.00    +0.000 S 
BRANCH  16  21
ATOM     17  N   UNL     1       0.903  12.096  19.504  0.00  0.00    +0.000 N 
ATOM     18  C   UNL     1       1.577  13.271  19.260  0.00  0.00    +0.000 A 
ATOM     19  N   UNL     1       2.582  13.051  18.442  0.00  0.00    +0.000 NA
ATOM     20  N   UNL     1       2.535  11.722  18.053  0.00  0.00    +0.000 NA
ATOM     21  C   UNL     1       1.512  11.156  18.660  0.00  0.00    +0.000 A 
BRANCH  17  27
ATOM     22  C   UNL     1      -0.040  11.258  21.641  0.00  0.00    +0.000 A 
ATOM     23  C   UNL     1      -1.076  11.430  22.573  0.00  0.00    +0.000 A 
ATOM     24  C   UNL     1      -2.243  12.118  22.247  0.00  0.00    +0.000 A 
ATOM     25  C   UNL     1      -2.435  12.590  20.956  0.00  0.00    +0.000 A 
ATOM     26  C   UNL     1      -1.412  12.456  20.031  0.00  0.00    +0.000 A 
ATOM     27  C   UNL     1      -0.177  11.896  20.397  0.00  0.00    +0.000 A 
BRANCH  22  29
ATOM     28  C   UNL     1       0.921   9.342  22.644  0.00  0.00    +0.000 C 
ATOM     29  O   UNL     1       1.111  10.583  21.952  0.00  0.00    +0.000 OA
ENDBRANCH  22  29
ENDBRANCH  17  27
ENDBRANCH  16  21
ENDBRANCH   1  16
TORSDOF 5
ENDMDL
MODEL 6
REMARK VINA RESULT:      -8.3      1.209      1.312
REMARK  Name = 
REMARK  6 active torsions:
REMARK  status: ('A' for Active; 'I' for Inactive)
REMARK    1  A    between atoms: C_1  and  O_2
REMARK    2  A    between atoms: O_2  and  C_3
REMARK    3  A    between atoms: C_8  and  N_9
REMARK    4  A    between atoms: C_13  and  S_14
REMARK    5  A    between atoms: S_14  and  C_15
REMARK    6  A    between atoms: C_15  and  C_16
REMARK                            x       y       z     vdW  Elec       q    Type
REMARK                         _______ _______ _______ _____ _____    ______ ____
ROOT
ATOM      1  C   UNL     1       1.598   8.142  18.037  0.00  0.00    +0.000 C 
ENDROOT
BRANCH   1   2
ATOM      2  C   UNL     1       1.430   9.645  18.281  0.00  0.00    +0.000 C 
ATOM      3  O   UNL     1       2.234  10.365  17.619  0.00  0.00    +0.000 OA
ATOM      4  N   UNL     1       0.492  10.332  19.069  0.00  0.00    +0.000 N 
ATOM      5  C   UNL     1       0.283  11.702  18.576  0.00  0.00    +0.000 C 
ATOM      6  C   UNL     1      -1.058  12.194  19.050  0.00  0.00    +0.000 C 
ATOM      7  O   UNL     1      -2.088  12.178  18.387  0.00  0.00    +0.000 OA
ATOM      8  N   UNL     1      -1.036  12.407  20.407  0.00  0.00    +0.000 N 
ATOM      9  C   UNL     1      -0.603  11.265  21.131  0.00  0.00    +0.000 A 
ATOM     10  C   UNL     1      -0.941  11.284  22.486  0.00  0.00    +0.000 A 
ATOM     11  C   UNL     1      -0.781  10.140  23.231  0.00  0.00    +0.000 A 
ATOM     12  C   UNL     1      -0.237   9.001  22.599  0.00  0.00    +0.000 A 
ATOM     13  C   UNL     1       0.196   9.012  21.253  0.00  0.00    +0.000 A 
ATOM     14  C   UNL     1       0.028  10.145  20.469  0.00  0.00    +0.000 A 
ATOM     15  H   UNL     1      -0.488  13.215  20.701  0.00  0.00    +0.000 HD
ENDBRANCH   1   2
BRANCH   1  16
ATOM     16  S   UNL     1       3.265   7.474  18.138  0.00  0.00    +0.000 S 
BRANCH  16  21
ATOM     17  N   UNL     1       3.842   4.722  18.098  0.00  0.00    +0.000 N 
ATOM     18  C   UNL     1       3.216   3.582  18.547  0.00  0.00    +0.000 A 
ATOM     19  N   UNL     1       2.250   3.898  19.382  0.00  0.00    +0.000 NA
ATOM     20  N   UNL     1       2.160   5.280  19.430  0.00  0.00    +0.000 NA
ATOM     21  C   UNL     1       3.088   5.775  18.637  0.00  0.00    +0.000 A 
BRANCH  17  27
ATOM     22  C   UNL     1       6.299   4.755  17.748  0.00  0.00    +0.000 A 
ATOM     23  C   UNL     1       7.320   4.490  16.823  0.00  0.00    +0.000 A 
ATOM     24  C   UNL     1       7.056   4.380  15.458  0.00  0.00    +0.000 A 
ATOM     25  C   UNL     1       5.775   4.606  14.977  0.00  0.00    +0.000 A 
ATOM     26  C   UNL     1       4.748   4.839  15.878  0.00  0.00    +0.000 A 
ATOM     27  C   UNL     1       4.981   4.803  17.262  0.00  0.00    +0.000 A 
BRANCH  22  29
ATOM     28  C   UNL     1       7.613   5.756  19.443  0.00  0.00    +0.000 C 
ATOM     29  O   UNL     1       6.547   4.865  19.092  0.00  0.00    +0.000 OA
ENDBRANCH  22  29
ENDBRANCH  17  27
ENDBRANCH  16  21
ENDBRANCH   1  16
TORSDOF 5
ENDMDL
MODEL 7
REMARK VINA RESULT:      -8.2      1.930      3.394
REMARK  Name = 
REMARK  6 active torsions:
REMARK  status: ('A' for Active; 'I' for Inactive)
REMARK    1  A    between atoms: C_1  and  O_2
REMARK    2  A    between atoms: O_2  and  C_3
REMARK    3  A    between atoms: C_8  and  N_9
REMARK    4  A    between atoms: C_13  and  S_14
REMARK    5  A    between atoms: S_14  and  C_15
REMARK    6  A    between atoms: C_15  and  C_16
REMARK                            x       y       z     vdW  Elec       q    Type
REMARK                         _______ _______ _______ _____ _____    ______ ____
ROOT
ATOM      1  C   UNL     1       1.798   8.053  17.906  0.00  0.00    +0.000 C 
ENDROOT
BRANCH   1   2
ATOM      2  C   UNL     1       1.697   9.548  18.223  0.00  0.00    +0.000 C 
ATOM      3  O   UNL     1       2.553  10.259  17.618  0.00  0.00    +0.000 OA
ATOM      4  N   UNL     1       0.775  10.242  19.023  0.00  0.00    +0.000 N 
ATOM      5  C   UNL     1       0.645  11.643  18.597  0.00  0.00    +0.000 C 
ATOM      6  C   UNL     1      -0.681  12.178  19.063  0.00  0.00    +0.000 C 
ATOM      7  O   UNL     1      -1.694  12.246  18.377  0.00  0.00    +0.000 OA
ATOM      8  N   UNL     1      -0.684  12.321  20.430  0.00  0.00    +0.000 N 
ATOM      9  C   UNL     1      -0.327  11.123  21.104  0.00  0.00    +0.000 A 
ATOM     10  C   UNL     1      -0.698  11.091  22.450  0.00  0.00    +0.000 A 
ATOM     11  C   UNL     1      -0.615   9.905  23.138  0.00  0.00    +0.000 A 
ATOM     12  C   UNL     1      -0.110   8.773  22.461  0.00  0.00    +0.000 A 
ATOM     13  C   UNL     1       0.358   8.830  21.128  0.00  0.00    +0.000 A 
ATOM     14  C   UNL     1       0.266  10.008  20.401  0.00  0.00    +0.000 A 
ATOM     15  H   UNL     1      -0.105  13.084  20.778  0.00  0.00    +0.000 HD
ENDBRANCH   1   2
BRANCH   1  16
ATOM     16  S   UNL     1       2.907   7.069  18.924  0.00  0.00    +0.000 S 
BRANCH  16  21
ATOM     17  N   UNL     1       3.603   4.480  18.078  0.00  0.00    +0.000 N 
ATOM     18  C   UNL     1       4.492   3.950  17.170  0.00  0.00    +0.000 A 
ATOM     19  N   UNL     1       4.933   4.895  16.369  0.00  0.00    +0.000 NA
ATOM     20  N   UNL     1       4.405   6.102  16.798  0.00  0.00    +0.000 NA
ATOM     21  C   UNL     1       3.636   5.862  17.840  0.00  0.00    +0.000 A 
BRANCH  17  27
ATOM     22  C   UNL     1       3.423   3.042  20.093  0.00  0.00    +0.000 A 
ATOM     23  C   UNL     1       2.595   2.693  21.171  0.00  0.00    +0.000 A 
ATOM     24  C   UNL     1       1.229   2.971  21.161  0.00  0.00    +0.000 A 
ATOM     25  C   UNL     1       0.643   3.541  20.040  0.00  0.00    +0.000 A 
ATOM     26  C   UNL     1       1.449   3.920  18.978  0.00  0.00    +0.000 A 
ATOM     27  C   UNL     1       2.844   3.778  19.045  0.00  0.00    +0.000 A 
BRANCH  22  29
ATOM     28  C   UNL     1       5.136   1.513  20.668  0.00  0.00    +0.000 C 
ATOM     29  O   UNL     1       4.767   2.773  20.092  0.00  0.00    +0.000 OA
ENDBRANCH  22  29
ENDBRANCH  17  27
ENDBRANCH  16  21
ENDBRANCH   1  16
TORSDOF 5
ENDMDL
MODEL 8
REMARK VINA RESULT:      -8.1      2.119      3.239
REMARK  Name = 
REMARK  6 active torsions:
REMARK  status: ('A' for Active; 'I' for Inactive)
REMARK    1  A    between atoms: C_1  and  O_2
REMARK    2  A    between atoms: O_2  and  C_3
REMARK    3  A    between atoms: C_8  and  N_9
REMARK    4  A    between atoms: C_13  and  S_14
REMARK    5  A    between atoms: S_14  and  C_15
REMARK    6  A    between atoms: C_15  and  C_16
REMARK                            x       y       z     vdW  Elec       q    Type
REMARK                         _______ _______ _______ _____ _____    ______ ____
ROOT
ATOM      1  C   UNL     1       1.762   8.266  17.839  0.00  0.00    +0.000 C 
ENDROOT
BRANCH   1   2
ATOM      2  C   UNL     1       1.281   8.927  19.135  0.00  0.00    +0.000 C 
ATOM      3  O   UNL     1       1.713   8.369  20.186  0.00  0.00    +0.000 OA
ATOM      4  N   UNL     1       0.497  10.077  19.325  0.00  0.00    +0.000 N 
ATOM      5  C   UNL     1       0.765  10.696  20.631  0.00  0.00    +0.000 C 
ATOM      6  C   UNL     1       0.368  12.146  20.578  0.00  0.00    +0.000 C 
ATOM      7  O   UNL     1       1.135  13.080  20.376  0.00  0.00    +0.000 OA
ATOM      8  N   UNL     1      -1.000  12.264  20.511  0.00  0.00    +0.000 N 
ATOM      9  C   UNL     1      -1.558  11.520  19.438  0.00  0.00    +0.000 A 
ATOM     10  C   UNL     1      -2.849  11.915  19.079  0.00  0.00    +0.000 A 
ATOM     11  C   UNL     1      -3.397  11.429  17.916  0.00  0.00    +0.000 A 
ATOM     12  C   UNL     1      -2.643  10.511  17.154  0.00  0.00    +0.000 A 
ATOM     13  C   UNL     1      -1.377  10.037  17.568  0.00  0.00    +0.000 A 
ATOM     14  C   UNL     1      -0.788  10.526  18.726  0.00  0.00    +0.000 A 
ATOM     15  H   UNL     1      -1.489  12.025  21.372  0.00  0.00    +0.000 HD
ENDBRANCH   1   2
BRANCH   1  16
ATOM     16  S   UNL     1       3.284   7.312  17.918  0.00  0.00    +0.000 S 
BRANCH  16  21
ATOM     17  N   UNL     1       3.706   4.534  17.823  0.00  0.00    +0.000 N 
ATOM     18  C   UNL     1       2.926   3.431  17.557  0.00  0.00    +0.000 A 
ATOM     19  N   UNL     1       1.654   3.763  17.589  0.00  0.00    +0.000 NA
ATOM     20  N   UNL     1       1.573   5.132  17.788  0.00  0.00    +0.000 NA
ATOM     21  C   UNL     1       2.799   5.601  17.895  0.00  0.00    +0.000 A 
BRANCH  17  27
ATOM     22  C   UNL     1       6.006   4.344  16.908  0.00  0.00    +0.000 A 
ATOM     23  C   UNL     1       7.338   4.750  17.083  0.00  0.00    +0.000 A 
ATOM     24  C   UNL     1       7.788   5.267  18.297  0.00  0.00    +0.000 A 
ATOM     25  C   UNL     1       6.934   5.322  19.390  0.00  0.00    +0.000 A 
ATOM     26  C   UNL     1       5.608   4.953  19.228  0.00  0.00    +0.000 A 
ATOM     27  C   UNL     1       5.114   4.574  17.969  0.00  0.00    +0.000 A 
BRANCH  22  29
ATOM     28  C   UNL     1       6.393   4.092  14.587  0.00  0.00    +0.000 C 
ATOM     29  O   UNL     1       5.553   3.834  15.719  0.00  0.00    +0.000 OA
ENDBRANCH  22  29
ENDBRANCH  17  27
ENDBRANCH  16  21
ENDBRANCH   1  16
TORSDOF 5
ENDMDL
MODEL 9
REMARK VINA RESULT:      -8.1      1.755      2.451
REMARK  Name = 
REMARK  6 active torsions:
REMARK  status: ('A' for Active; 'I' for Inactive)
REMARK    1  A    between atoms: C_1  and  O_2
REMARK    2  A    between atoms: O_2  and  C_3
REMARK    3  A    between atoms: C_8  and  N_9
REMARK    4  A    between atoms: C_13  and  S_14
REMARK    5  A    between atoms: S_14  and  C_15
REMARK    6  A    between atoms: C_15  and  C_16
REMARK                            x       y       z     vdW  Elec       q    Type
REMARK                         _______ _______ _______ _____ _____    ______ ____
ROOT
ATOM      1  C   UNL     1       1.532   8.545  17.855  0.00  0.00    +0.000 C 
ENDROOT
BRANCH   1   2
ATOM      2  C   UNL     1       1.560  10.008  18.311  0.00  0.00    +0.000 C 
ATOM      3  O   UNL     1       2.488  10.691  17.785  0.00  0.00    +0.000 OA
ATOM      4  N   UNL     1       0.688  10.705  19.163  0.00  0.00    +0.000 N 
ATOM      5  C   UNL     1       0.693  12.146  18.869  0.00  0.00    +0.000 C 
ATOM      6  C   UNL     1      -0.589  12.754  19.370  0.00  0.00    +0.000 C 
ATOM      7  O   UNL     1      -1.578  12.978  18.682  0.00  0.00    +0.000 OA
ATOM      8  N   UNL     1      -0.605  12.769  20.744  0.00  0.00    +0.000 N 
ATOM      9  C   UNL     1      -0.370  11.486  21.306  0.00  0.00    +0.000 A 
ATOM     10  C   UNL     1      -0.769  11.363  22.638  0.00  0.00    +0.000 A 
ATOM     11  C   UNL     1      -0.805  10.115  23.213  0.00  0.00    +0.000 A 
ATOM     12  C   UNL     1      -0.391   9.010  22.437  0.00  0.00    +0.000 A 
ATOM     13  C   UNL     1       0.105   9.147  21.121  0.00  0.00    +0.000 A 
ATOM     14  C   UNL     1       0.133  10.391  20.507  0.00  0.00    +0.000 A 
ATOM     15  H   UNL     1       0.033  13.440  21.169  0.00  0.00    +0.000 HD
ENDBRANCH   1   2
BRANCH   1  16
ATOM     16  S   UNL     1       3.074   7.626  17.948  0.00  0.00    +0.000 S 
BRANCH  16  21
ATOM     17  N   UNL     1       3.586   5.240  19.344  0.00  0.00    +0.000 N 
ATOM     18  C   UNL     1       2.941   4.517  20.323  0.00  0.00    +0.000 A 
ATOM     19  N   UNL     1       1.997   5.249  20.873  0.00  0.00    +0.000 NA
ATOM     20  N   UNL     1       1.941   6.456  20.194  0.00  0.00    +0.000 NA
ATOM     21  C   UNL     1       2.867   6.440  19.258  0.00  0.00    +0.000 A 
BRANCH  17  27
ATOM     22  C   UNL     1       4.618   4.139  17.373  0.00  0.00    +0.000 A 
ATOM     23  C   UNL     1       5.755   4.111  16.551  0.00  0.00    +0.000 A 
ATOM     24  C   UNL     1       6.966   4.666  16.963  0.00  0.00    +0.000 A 
ATOM     25  C   UNL     1       7.089   5.198  18.238  0.00  0.00    +0.000 A 
ATOM     26  C   UNL     1       5.970   5.263  19.053  0.00  0.00    +0.000 A 
ATOM     27  C   UNL     1       4.714   4.841  18.587  0.00  0.00    +0.000 A 
BRANCH  22  29
ATOM     28  C   UNL     1       3.121   2.314  17.542  0.00  0.00    +0.000 C 
ATOM     29  O   UNL     1       3.422   3.597  16.978  0.00  0.00    +0.000 OA
ENDBRANCH  22  29
ENDBRANCH  17  27
ENDBRANCH  16  21
ENDBRANCH   1  16
TORSDOF 5
ENDMDL
