MODEL 1
REMARK VINA RESULT:      -6.4      0.000      0.000
REMARK  Name = 
REMARK  8 active torsions:
REMARK  status: ('A' for Active; 'I' for Inactive)
REMARK    1  A    between atoms: C_1  and  O_2
REMARK    2  A    between atoms: O_2  and  C_3
REMARK    3  A    between atoms: C_3  and  C_4
REMARK    4  A    between atoms: C_9  and  C_10
REMARK    5  A    between atoms: C_11  and  C_12
REMARK    6  A    between atoms: C_12  and  C_14
REMARK    7  A    between atoms: N_24  and  C_25
REMARK    8  A    between atoms: C_28  and  C_29
REMARK                            x       y       z     vdW  Elec       q    Type
REMARK                         _______ _______ _______ _____ _____    ______ ____
ROOT
ATOM      1  C   UNL     1       0.767  13.019  21.172  0.00  0.00    +0.000 C 
ATOM      2  C   UNL     1       2.191  13.597  20.956  0.00  0.00    +0.000 C 
ATOM      3  C   UNL     1       2.138  14.745  21.919  0.00  0.00    +0.000 C 
ATOM      4  O   UNL     1       3.107  15.345  22.348  0.00  0.00    +0.000 OA
ATOM      5  C   UNL     1       0.687  15.085  22.263  0.00  0.00    +0.000 C 
ATOM      6  O   UNL     1       0.359  16.031  22.950  0.00  0.00    +0.000 OA
ATOM      7  N   UNL     1      -0.088  14.104  21.669  0.00  0.00    +0.000 N 
ENDROOT
BRANCH   1  13
ATOM      8  C   UNL     1       0.044  10.810  20.032  0.00  0.00    +0.000 A 
ATOM      9  C   UNL     1      -0.731  10.173  19.040  0.00  0.00    +0.000 A 
ATOM     10  C   UNL     1      -1.430  10.905  18.082  0.00  0.00    +0.000 A 
ATOM     11  C   UNL     1      -1.316  12.284  18.057  0.00  0.00    +0.000 A 
ATOM     12  C   UNL     1      -0.515  12.925  18.998  0.00  0.00    +0.000 A 
ATOM     13  C   UNL     1       0.133  12.221  20.037  0.00  0.00    +0.000 A 
BRANCH   8  14
ATOM     14  C   UNL     1       0.705   9.925  21.070  0.00  0.00    +0.000 C 
BRANCH  14  16
ATOM     15  C   UNL     1       0.133   9.448  23.327  0.00  0.00    +0.000 C 
ATOM     16  O   UNL     1      -0.226   9.305  21.955  0.00  0.00    +0.000 OA
ENDBRANCH  14  16
ENDBRANCH   8  14
ENDBRANCH   1  13
BRANCH   7  17
ATOM     17  C   UNL     1      -1.424  13.866  22.091  0.00  0.00    +0.000 A 
ATOM     18  C   UNL     1      -2.450  14.561  21.453  0.00  0.00    +0.000 A 
ATOM     19  C   UNL     1      -3.792  14.216  21.664  0.00  0.00    +0.000 A 
ATOM     20  C   UNL     1      -4.149  13.207  22.571  0.00  0.00    +0.000 A 
ATOM     21  C   UNL     1      -3.113  12.560  23.262  0.00  0.00    +0.000 A 
ATOM     22  C   UNL     1      -1.762  12.873  23.019  0.00  0.00    +0.000 A 
BRANCH  20  23
ATOM     23  C   UNL     1      -5.555  12.828  22.769  0.00  0.00    +0.000 A 
ATOM     24  C   UNL     1      -6.346  12.958  23.963  0.00  0.00    +0.000 A 
ATOM     25  C   UNL     1      -7.634  12.488  23.812  0.00  0.00    +0.000 A 
ATOM     26  S   UNL     1      -7.916  11.886  22.244  0.00  0.00    +0.000 S 
ATOM     27  C   UNL     1      -6.316  12.255  21.760  0.00  0.00    +0.000 A 
ENDBRANCH  20  23
ENDBRANCH   7  17
BRANCH   2  28
ATOM     28  C   UNL     1       2.571  14.131  19.585  0.00  0.00    +0.000 C 
ATOM     29  O   UNL     1       3.287  13.473  18.826  0.00  0.00    +0.000 OA
BRANCH  28  30
ATOM     30  C   UNL     1       2.008  15.425  19.073  0.00  0.00    +0.000 A 
ATOM     31  C   UNL     1       0.675  15.637  18.708  0.00  0.00    +0.000 A 
ATOM     32  C   UNL     1       0.270  16.900  18.264  0.00  0.00    +0.000 A 
ATOM     33  C   UNL     1       1.202  17.913  18.183  0.00  0.00    +0.000 A 
ATOM     34  N   UNL     1       2.504  17.745  18.497  0.00  0.00    +0.000 NA
ATOM     35  C   UNL     1       2.875  16.508  18.921  0.00  0.00    +0.000 A 
ENDBRANCH  28  30
ENDBRANCH   2  28
TORSDOF 7
ENDMDL
MODEL 2
REMARK VINA RESULT:      -6.4      7.821     11.322
REMARK  Name = 
REMARK  8 active torsions:
REMARK  status: ('A' for Active; 'I' for Inactive)
REMARK    1  A    between atoms: C_1  and  O_2
REMARK    2  A    between atoms: O_2  and  C_3
REMARK    3  A    between atoms: C_3  and  C_4
REMARK    4  A    between atoms: C_9  and  C_10
REMARK    5  A    between atoms: C_11  and  C_12
REMARK    6  A    between atoms: C_12  and  C_14
REMARK    7  A    between atoms: N_24  and  C_25
REMARK    8  A    between atoms: C_28  and  C_29
REMARK                            x       y       z     vdW  Elec       q    Type
REMARK                         _______ _______ _______ _____ _____    ______ ____
ROOT
ATOM      1  C   UNL     1       9.238  14.194  19.067  0.00  0.00    +0.000 C 
ATOM      2  C   UNL     1      10.162  15.412  18.797  0.00  0.00    +0.000 C 
ATOM      3  C   UNL     1      10.969  14.860  17.659  0.00  0.00    +0.000 C 
ATOM      4  O   UNL     1      11.637  15.524  16.888  0.00  0.00    +0.000 OA
ATOM      5  C   UNL     1      10.864  13.335  17.623  0.00  0.00    +0.000 C 
ATOM      6  O   UNL     1      11.493  12.631  16.858  0.00  0.00    +0.000 OA
ATOM      7  N   UNL     1       9.928  12.992  18.583  0.00  0.00    +0.000 N 
ENDROOT
BRANCH   1  13
ATOM      8  C   UNL     1       7.419  14.603  20.862  0.00  0.00    +0.000 A 
ATOM      9  C   UNL     1       6.860  14.237  22.106  0.00  0.00    +0.000 A 
ATOM     10  C   UNL     1       7.483  13.308  22.937  0.00  0.00    +0.000 A 
ATOM     11  C   UNL     1       8.706  12.774  22.571  0.00  0.00    +0.000 A 
ATOM     12  C   UNL     1       9.295  13.163  21.372  0.00  0.00    +0.000 A 
ATOM     13  C   UNL     1       8.649  14.032  20.465  0.00  0.00    +0.000 A 
BRANCH   8  14
ATOM     14  C   UNL     1       6.626  15.567  20.003  0.00  0.00    +0.000 C 
BRANCH  14  16
ATOM     15  C   UNL     1       4.359  16.218  19.705  0.00  0.00    +0.000 C 
ATOM     16  O   UNL     1       5.287  15.138  19.766  0.00  0.00    +0.000 OA
ENDBRANCH  14  16
ENDBRANCH   8  14
ENDBRANCH   1  13
BRANCH   7  17
ATOM     17  C   UNL     1       9.287  11.722  18.565  0.00  0.00    +0.000 A 
ATOM     18  C   UNL     1       8.266  11.513  17.639  0.00  0.00    +0.000 A 
ATOM     19  C   UNL     1       7.746  10.231  17.419  0.00  0.00    +0.000 A 
ATOM     20  C   UNL     1       8.190   9.128  18.165  0.00  0.00    +0.000 A 
ATOM     21  C   UNL     1       9.169   9.360  19.143  0.00  0.00    +0.000 A 
ATOM     22  C   UNL     1       9.725  10.639  19.337  0.00  0.00    +0.000 A 
BRANCH  20  23
ATOM     23  C   UNL     1       7.665   7.780  17.911  0.00  0.00    +0.000 A 
ATOM     24  C   UNL     1       6.616   7.396  17.004  0.00  0.00    +0.000 A 
ATOM     25  C   UNL     1       6.357   6.041  17.019  0.00  0.00    +0.000 A 
ATOM     26  S   UNL     1       7.360   5.211  18.118  0.00  0.00    +0.000 S 
ATOM     27  C   UNL     1       8.148   6.661  18.573  0.00  0.00    +0.000 A 
ENDBRANCH  20  23
ENDBRANCH   7  17
BRANCH   2  28
ATOM     28  C   UNL     1      11.115  15.872  19.888  0.00  0.00    +0.000 C 
ATOM     29  O   UNL     1      12.333  15.721  19.769  0.00  0.00    +0.000 OA
BRANCH  28  30
ATOM     30  C   UNL     1      10.614  16.613  21.094  0.00  0.00    +0.000 A 
ATOM     31  C   UNL     1      10.880  16.266  22.422  0.00  0.00    +0.000 A 
ATOM     32  C   UNL     1      10.370  17.053  23.460  0.00  0.00    +0.000 A 
ATOM     33  C   UNL     1       9.600  18.153  23.150  0.00  0.00    +0.000 A 
ATOM     34  N   UNL     1       9.293  18.508  21.884  0.00  0.00    +0.000 NA
ATOM     35  C   UNL     1       9.796  17.725  20.893  0.00  0.00    +0.000 A 
ENDBRANCH  28  30
ENDBRANCH   2  28
TORSDOF 7
ENDMDL
MODEL 3
REMARK VINA RESULT:      -6.3      3.682      7.951
REMARK  Name = 
REMARK  8 active torsions:
REMARK  status: ('A' for Active; 'I' for Inactive)
REMARK    1  A    between atoms: C_1  and  O_2
REMARK    2  A    between atoms: O_2  and  C_3
REMARK    3  A    between atoms: C_3  and  C_4
REMARK    4  A    between atoms: C_9  and  C_10
REMARK    5  A    between atoms: C_11  and  C_12
REMARK    6  A    between atoms: C_12  and  C_14
REMARK    7  A    between atoms: N_24  and  C_25
REMARK    8  A    between atoms: C_28  and  C_29
REMARK                            x       y       z     vdW  Elec       q    Type
REMARK                         _______ _______ _______ _____ _____    ______ ____
ROOT
ATOM      1  C   UNL     1      -2.255  12.133  20.212  0.00  0.00    +0.000 C 
ATOM      2  C   UNL     1      -3.687  11.593  19.951  0.00  0.00    +0.000 C 
ATOM      3  C   UNL     1      -3.535  11.175  18.519  0.00  0.00    +0.000 C 
ATOM      4  O   UNL     1      -4.283  10.420  17.926  0.00  0.00    +0.000 OA
ATOM      5  C   UNL     1      -2.321  11.862  17.890  0.00  0.00    +0.000 C 
ATOM      6  O   UNL     1      -2.025  11.770  16.716  0.00  0.00    +0.000 OA
ATOM      7  N   UNL     1      -1.685  12.534  18.919  0.00  0.00    +0.000 N 
ENDROOT
BRANCH   1  13
ATOM      8  C   UNL     1      -1.625  12.868  22.612  0.00  0.00    +0.000 A 
ATOM      9  C   UNL     1      -1.291  13.919  23.494  0.00  0.00    +0.000 A 
ATOM     10  C   UNL     1      -1.365  15.252  23.097  0.00  0.00    +0.000 A 
ATOM     11  C   UNL     1      -1.834  15.565  21.832  0.00  0.00    +0.000 A 
ATOM     12  C   UNL     1      -2.215  14.543  20.968  0.00  0.00    +0.000 A 
ATOM     13  C   UNL     1      -2.066  13.179  21.306  0.00  0.00    +0.000 A 
BRANCH   8  14
ATOM     14  C   UNL     1      -1.440  11.453  23.120  0.00  0.00    +0.000 C 
BRANCH  14  16
ATOM     15  C   UNL     1      -0.081   9.533  22.775  0.00  0.00    +0.000 C 
ATOM     16  O   UNL     1      -0.121  10.950  22.919  0.00  0.00    +0.000 OA
ENDBRANCH  14  16
ENDBRANCH   8  14
ENDBRANCH   1  13
BRANCH   7  17
ATOM     17  C   UNL     1      -0.330  12.949  18.800  0.00  0.00    +0.000 A 
ATOM     18  C   UNL     1      -0.070  14.308  18.631  0.00  0.00    +0.000 A 
ATOM     19  C   UNL     1       1.235  14.807  18.726  0.00  0.00    +0.000 A 
ATOM     20  C   UNL     1       2.329  13.952  18.931  0.00  0.00    +0.000 A 
ATOM     21  C   UNL     1       2.066  12.577  19.029  0.00  0.00    +0.000 A 
ATOM     22  C   UNL     1       0.751  12.076  18.979  0.00  0.00    +0.000 A 
BRANCH  20  23
ATOM     23  C   UNL     1       3.693  14.482  19.060  0.00  0.00    +0.000 A 
ATOM     24  C   UNL     1       4.665  14.683  18.019  0.00  0.00    +0.000 A 
ATOM     25  C   UNL     1       5.862  15.186  18.487  0.00  0.00    +0.000 A 
ATOM     26  S   UNL     1       5.840  15.423  20.173  0.00  0.00    +0.000 S 
ATOM     27  C   UNL     1       4.228  14.858  20.284  0.00  0.00    +0.000 A 
ENDBRANCH  20  23
ENDBRANCH   7  17
BRANCH   2  28
ATOM     28  C   UNL     1      -4.866  12.547  20.056  0.00  0.00    +0.000 C 
ATOM     29  O   UNL     1      -5.197  13.249  19.098  0.00  0.00    +0.000 OA
BRANCH  28  30
ATOM     30  C   UNL     1      -5.722  12.590  21.288  0.00  0.00    +0.000 A 
ATOM     31  C   UNL     1      -5.471  13.374  22.418  0.00  0.00    +0.000 A 
ATOM     32  C   UNL     1      -6.359  13.341  23.497  0.00  0.00    +0.000 A 
ATOM     33  C   UNL     1      -7.466  12.521  23.429  0.00  0.00    +0.000 A 
ATOM     34  N   UNL     1      -7.732  11.726  22.371  0.00  0.00    +0.000 NA
ATOM     35  C   UNL     1      -6.851  11.772  21.337  0.00  0.00    +0.000 A 
ENDBRANCH  28  30
ENDBRANCH   2  28
TORSDOF 7
ENDMDL
MODEL 4
REMARK VINA RESULT:      -6.3      3.538      7.749
REMARK  Name = 
REMARK  8 active torsions:
REMARK  status: ('A' for Active; 'I' for Inactive)
REMARK    1  A    between atoms: C_1  and  O_2
REMARK    2  A    between atoms: O_2  and  C_3
REMARK    3  A    between atoms: C_3  and  C_4
REMARK    4  A    between atoms: C_9  and  C_10
REMARK    5  A    between atoms: C_11  and  C_12
REMARK    6  A    between atoms: C_12  and  C_14
REMARK    7  A    between atoms: N_24  and  C_25
REMARK    8  A    between atoms: C_28  and  C_29
REMARK                            x       y       z     vdW  Elec       q    Type
REMARK                         _______ _______ _______ _____ _____    ______ ____
ROOT
ATOM      1  C   UNL     1      -2.006  13.480  20.614  0.00  0.00    +0.000 C 
ATOM      2  C   UNL     1      -3.438  13.959  20.971  0.00  0.00    +0.000 C 
ATOM      3  C   UNL     1      -3.218  15.441  20.935  0.00  0.00    +0.000 C 
ATOM      4  O   UNL     1      -4.099  16.278  20.857  0.00  0.00    +0.000 OA
ATOM      5  C   UNL     1      -1.726  15.761  21.047  0.00  0.00    +0.000 C 
ATOM      6  O   UNL     1      -1.281  16.888  21.134  0.00  0.00    +0.000 OA
ATOM      7  N   UNL     1      -1.069  14.545  20.997  0.00  0.00    +0.000 N 
ENDROOT
BRANCH   1  13
ATOM      8  C   UNL     1      -1.114  11.085  20.203  0.00  0.00    +0.000 A 
ATOM      9  C   UNL     1      -0.548   9.910  20.741  0.00  0.00    +0.000 A 
ATOM     10  C   UNL     1      -0.407   9.734  22.117  0.00  0.00    +0.000 A 
ATOM     11  C   UNL     1      -0.886  10.702  22.983  0.00  0.00    +0.000 A 
ATOM     12  C   UNL     1      -1.493  11.845  22.469  0.00  0.00    +0.000 A 
ATOM     13  C   UNL     1      -1.570  12.095  21.081  0.00  0.00    +0.000 A 
BRANCH   8  14
ATOM     14  C   UNL     1      -1.154  11.206  18.693  0.00  0.00    +0.000 C 
BRANCH  14  16
ATOM     15  C   UNL     1      -2.815   9.875  17.633  0.00  0.00    +0.000 C 
ATOM     16  O   UNL     1      -1.452   9.975  18.038  0.00  0.00    +0.000 OA
ENDBRANCH  14  16
ENDBRANCH   8  14
ENDBRANCH   1  13
BRANCH   7  17
ATOM     17  C   UNL     1       0.315  14.469  20.678  0.00  0.00    +0.000 A 
ATOM     18  C   UNL     1       0.685  14.521  19.334  0.00  0.00    +0.000 A 
ATOM     19  C   UNL     1       2.027  14.672  18.963  0.00  0.00    +0.000 A 
ATOM     20  C   UNL     1       3.047  14.712  19.926  0.00  0.00    +0.000 A 
ATOM     21  C   UNL     1       2.673  14.589  21.273  0.00  0.00    +0.000 A 
ATOM     22  C   UNL     1       1.321  14.482  21.651  0.00  0.00    +0.000 A 
BRANCH  20  23
ATOM     23  C   UNL     1       4.451  14.901  19.536  0.00  0.00    +0.000 A 
ATOM     24  C   UNL     1       5.557  15.284  20.372  0.00  0.00    +0.000 A 
ATOM     25  C   UNL     1       6.747  15.385  19.681  0.00  0.00    +0.000 A 
ATOM     26  S   UNL     1       6.559  15.027  18.026  0.00  0.00    +0.000 S 
ATOM     27  C   UNL     1       4.885  14.730  18.229  0.00  0.00    +0.000 A 
ENDBRANCH  20  23
ENDBRANCH   7  17
BRANCH   2  28
ATOM     28  C   UNL     1      -4.024  13.588  22.324  0.00  0.00    +0.000 C 
ATOM     29  O   UNL     1      -3.434  13.875  23.368  0.00  0.00    +0.000 OA
BRANCH  28  30
ATOM     30  C   UNL     1      -5.381  12.955  22.435  0.00  0.00    +0.000 A 
ATOM     31  C   UNL     1      -6.176  12.556  21.356  0.00  0.00    +0.000 A 
ATOM     32  C   UNL     1      -7.417  11.956  21.593  0.00  0.00    +0.000 A 
ATOM     33  C   UNL     1      -7.838  11.780  22.894  0.00  0.00    +0.000 A 
ATOM     34  N   UNL     1      -7.117  12.176  23.965  0.00  0.00    +0.000 NA
ATOM     35  C   UNL     1      -5.916  12.761  23.709  0.00  0.00    +0.000 A 
ENDBRANCH  28  30
ENDBRANCH   2  28
TORSDOF 7
ENDMDL
MODEL 5
REMARK VINA RESULT:      -6.3      3.569      7.770
REMARK  Name = 
REMARK  8 active torsions:
REMARK  status: ('A' for Active; 'I' for Inactive)
REMARK    1  A    between atoms: C_1  and  O_2
REMARK    2  A    between atoms: O_2  and  C_3
REMARK    3  A    between atoms: C_3  and  C_4
REMARK    4  A    between atoms: C_9  and  C_10
REMARK    5  A    between atoms: C_11  and  C_12
REMARK    6  A    between atoms: C_12  and  C_14
REMARK    7  A    between atoms: N_24  and  C_25
REMARK    8  A    between atoms: C_28  and  C_29
REMARK                            x       y       z     vdW  Elec       q    Type
REMARK                         _______ _______ _______ _____ _____    ______ ____
ROOT
ATOM      1  C   UNL     1      -1.827  13.703  20.550  0.00  0.00    +0.000 C 
ATOM      2  C   UNL     1      -3.220  14.244  20.967  0.00  0.00    +0.000 C 
ATOM      3  C   UNL     1      -2.934  15.715  20.928  0.00  0.00    +0.000 C 
ATOM      4  O   UNL     1      -3.778  16.592  20.890  0.00  0.00    +0.000 OA
ATOM      5  C   UNL     1      -1.426  15.965  20.980  0.00  0.00    +0.000 C 
ATOM      6  O   UNL     1      -0.926  17.070  21.053  0.00  0.00    +0.000 OA
ATOM      7  N   UNL     1      -0.827  14.721  20.898  0.00  0.00    +0.000 N 
ENDROOT
BRANCH   1  13
ATOM      8  C   UNL     1      -1.099  11.262  20.090  0.00  0.00    +0.000 A 
ATOM      9  C   UNL     1      -0.562  10.057  20.594  0.00  0.00    +0.000 A 
ATOM     10  C   UNL     1      -0.335   9.876  21.957  0.00  0.00    +0.000 A 
ATOM     11  C   UNL     1      -0.700  10.870  22.849  0.00  0.00    +0.000 A 
ATOM     12  C   UNL     1      -1.277  12.044  22.373  0.00  0.00    +0.000 A 
ATOM     13  C   UNL     1      -1.436  12.296  20.992  0.00  0.00    +0.000 A 
BRANCH   8  14
ATOM     14  C   UNL     1      -1.238  11.382  18.586  0.00  0.00    +0.000 C 
BRANCH  14  16
ATOM     15  C   UNL     1      -2.765   9.911  17.512  0.00  0.00    +0.000 C 
ATOM     16  O   UNL     1      -2.573  11.182  18.127  0.00  0.00    +0.000 OA
ENDBRANCH  14  16
ENDBRANCH   8  14
ENDBRANCH   1  13
BRANCH   7  17
ATOM     17  C   UNL     1       0.537  14.584  20.522  0.00  0.00    +0.000 A 
ATOM     18  C   UNL     1       0.862  14.691  19.170  0.00  0.00    +0.000 A 
ATOM     19  C   UNL     1       2.197  14.786  18.757  0.00  0.00    +0.000 A 
ATOM     20  C   UNL     1       3.251  14.712  19.680  0.00  0.00    +0.000 A 
ATOM     21  C   UNL     1       2.918  14.533  21.031  0.00  0.00    +0.000 A 
ATOM     22  C   UNL     1       1.576  14.483  21.455  0.00  0.00    +0.000 A 
BRANCH  20  23
ATOM     23  C   UNL     1       4.649  14.841  19.246  0.00  0.00    +0.000 A 
ATOM     24  C   UNL     1       5.183  14.674  17.921  0.00  0.00    +0.000 A 
ATOM     25  C   UNL     1       6.549  14.852  17.861  0.00  0.00    +0.000 A 
ATOM     26  S   UNL     1       7.213  15.220  19.387  0.00  0.00    +0.000 S 
ATOM     27  C   UNL     1       5.673  15.146  20.131  0.00  0.00    +0.000 A 
ENDBRANCH  20  23
ENDBRANCH   7  17
BRANCH   2  28
ATOM     28  C   UNL     1      -3.767  13.892  22.341  0.00  0.00    +0.000 C 
ATOM     29  O   UNL     1      -3.176  14.244  23.365  0.00  0.00    +0.000 OA
BRANCH  28  30
ATOM     30  C   UNL     1      -5.088  13.196  22.496  0.00  0.00    +0.000 A 
ATOM     31  C   UNL     1      -5.857  13.175  23.664  0.00  0.00    +0.000 A 
ATOM     32  C   UNL     1      -7.085  12.506  23.674  0.00  0.00    +0.000 A 
ATOM     33  C   UNL     1      -7.509  11.867  22.528  0.00  0.00    +0.000 A 
ATOM     34  N   UNL     1      -6.786  11.837  21.388  0.00  0.00    +0.000 NA
ATOM     35  C   UNL     1      -5.594  12.490  21.405  0.00  0.00    +0.000 A 
ENDBRANCH  28  30
ENDBRANCH   2  28
TORSDOF 7
ENDMDL
MODEL 6
REMARK VINA RESULT:      -6.2      7.715     11.258
REMARK  Name = 
REMARK  8 active torsions:
REMARK  status: ('A' for Active; 'I' for Inactive)
REMARK    1  A    between atoms: C_1  and  O_2
REMARK    2  A    between atoms: O_2  and  C_3
REMARK    3  A    between atoms: C_3  and  C_4
REMARK    4  A    between atoms: C_9  and  C_10
REMARK    5  A    between atoms: C_11  and  C_12
REMARK    6  A    between atoms: C_12  and  C_14
REMARK    7  A    between atoms: N_24  and  C_25
REMARK    8  A    between atoms: C_28  and  C_29
REMARK                            x       y       z     vdW  Elec       q    Type
REMARK                         _______ _______ _______ _____ _____    ______ ____
ROOT
ATOM      1  C   UNL     1       9.158  14.594  19.517  0.00  0.00    +0.000 C 
ATOM      2  C   UNL     1       9.877  15.969  19.545  0.00  0.00    +0.000 C 
ATOM      3  C   UNL     1      10.734  15.823  18.323  0.00  0.00    +0.000 C 
ATOM      4  O   UNL     1      11.275  16.741  17.733  0.00  0.00    +0.000 OA
ATOM      5  C   UNL     1      10.866  14.349  17.939  0.00  0.00    +0.000 C 
ATOM      6  O   UNL     1      11.579  13.945  17.042  0.00  0.00    +0.000 OA
ATOM      7  N   UNL     1      10.015  13.655  18.781  0.00  0.00    +0.000 N 
ENDROOT
BRANCH   1  13
ATOM      8  C   UNL     1       7.293  14.171  21.261  0.00  0.00    +0.000 A 
ATOM      9  C   UNL     1       6.851  13.449  22.390  0.00  0.00    +0.000 A 
ATOM     10  C   UNL     1       7.698  12.581  23.075  0.00  0.00    +0.000 A 
ATOM     11  C   UNL     1       9.021  12.465  22.684  0.00  0.00    +0.000 A 
ATOM     12  C   UNL     1       9.486  13.209  21.603  0.00  0.00    +0.000 A 
ATOM     13  C   UNL     1       8.632  14.028  20.832  0.00  0.00    +0.000 A 
BRANCH   8  14
ATOM     14  C   UNL     1       6.272  15.033  20.546  0.00  0.00    +0.000 C 
BRANCH  14  16
ATOM     15  C   UNL     1       4.063  14.698  19.733  0.00  0.00    +0.000 C 
ATOM     16  O   UNL     1       4.925  14.693  20.868  0.00  0.00    +0.000 OA
ENDBRANCH  14  16
ENDBRANCH   8  14
ENDBRANCH   1  13
BRANCH   7  17
ATOM     17  C   UNL     1       9.578  12.339  18.465  0.00  0.00    +0.000 A 
ATOM     18  C   UNL     1      10.190  11.268  19.114  0.00  0.00    +0.000 A 
ATOM     19  C   UNL     1       9.666   9.973  19.016  0.00  0.00    +0.000 A 
ATOM     20  C   UNL     1       8.548   9.700  18.213  0.00  0.00    +0.000 A 
ATOM     21  C   UNL     1       7.980  10.771  17.507  0.00  0.00    +0.000 A 
ATOM     22  C   UNL     1       8.477  12.082  17.638  0.00  0.00    +0.000 A 
BRANCH  20  23
ATOM     23  C   UNL     1       7.982   8.346  18.136  0.00  0.00    +0.000 A 
ATOM     24  C   UNL     1       8.345   7.191  18.912  0.00  0.00    +0.000 A 
ATOM     25  C   UNL     1       7.623   6.065  18.575  0.00  0.00    +0.000 A 
ATOM     26  S   UNL     1       6.505   6.371  17.327  0.00  0.00    +0.000 S 
ATOM     27  C   UNL     1       6.979   8.013  17.236  0.00  0.00    +0.000 A 
ENDBRANCH  20  23
ENDBRANCH   7  17
BRANCH   2  28
ATOM     28  C   UNL     1      10.770  16.312  20.726  0.00  0.00    +0.000 C 
ATOM     29  O   UNL     1      11.998  16.309  20.611  0.00  0.00    +0.000 OA
BRANCH  28  30
ATOM     30  C   UNL     1      10.188  16.760  22.035  0.00  0.00    +0.000 A 
ATOM     31  C   UNL     1      10.462  16.185  23.280  0.00  0.00    +0.000 A 
ATOM     32  C   UNL     1       9.870  16.710  24.432  0.00  0.00    +0.000 A 
ATOM     33  C   UNL     1       9.012  17.784  24.315  0.00  0.00    +0.000 A 
ATOM     34  N   UNL     1       8.696  18.352  23.132  0.00  0.00    +0.000 NA
ATOM     35  C   UNL     1       9.281  17.820  22.025  0.00  0.00    +0.000 A 
ENDBRANCH  28  30
ENDBRANCH   2  28
TORSDOF 7
ENDMDL
MODEL 7
REMARK VINA RESULT:      -6.2      1.163      1.456
REMARK  Name = 
REMARK  8 active torsions:
REMARK  status: ('A' for Active; 'I' for Inactive)
REMARK    1  A    between atoms: C_1  and  O_2
REMARK    2  A    between atoms: O_2  and  C_3
REMARK    3  A    between atoms: C_3  and  C_4
REMARK    4  A    between atoms: C_9  and  C_10
REMARK    5  A    between atoms: C_11  and  C_12
REMARK    6  A    between atoms: C_12  and  C_14
REMARK    7  A    between atoms: N_24  and  C_25
REMARK    8  A    between atoms: C_28  and  C_29
REMARK                            x       y       z     vdW  Elec       q    Type
REMARK                         _______ _______ _______ _____ _____    ______ ____
ROOT
ATOM      1  C   UNL     1       0.630  12.660  20.855  0.00  0.00    +0.000 C 
ATOM      2  C   UNL     1       2.076  13.046  20.441  0.00  0.00    +0.000 C 
ATOM      3  C   UNL     1       2.328  14.145  21.429  0.00  0.00    +0.000 C 
ATOM      4  O   UNL     1       3.425  14.587  21.721  0.00  0.00    +0.000 OA
ATOM      5  C   UNL     1       1.006  14.666  21.996  0.00  0.00    +0.000 C 
ATOM      6  O   UNL     1       0.920  15.616  22.747  0.00  0.00    +0.000 OA
ATOM      7  N   UNL     1       0.021  13.829  21.502  0.00  0.00    +0.000 N 
ENDROOT
BRANCH   1  13
ATOM      8  C   UNL     1      -0.268  10.623  19.535  0.00  0.00    +0.000 A 
ATOM      9  C   UNL     1      -1.269  10.086  18.697  0.00  0.00    +0.000 A 
ATOM     10  C   UNL     1      -2.272  10.889  18.156  0.00  0.00    +0.000 A 
ATOM     11  C   UNL     1      -2.257  12.253  18.390  0.00  0.00    +0.000 A 
ATOM     12  C   UNL     1      -1.248  12.806  19.173  0.00  0.00    +0.000 A 
ATOM     13  C   UNL     1      -0.271  12.009  19.810  0.00  0.00    +0.000 A 
BRANCH   8  14
ATOM     14  C   UNL     1       0.733   9.652  20.128  0.00  0.00    +0.000 C 
BRANCH  14  16
ATOM     15  C   UNL     1       1.925   9.598  18.072  0.00  0.00    +0.000 C 
ATOM     16  O   UNL     1       1.378   8.841  19.149  0.00  0.00    +0.000 OA
ENDBRANCH  14  16
ENDBRANCH   8  14
ENDBRANCH   1  13
BRANCH   7  17
ATOM     17  C   UNL     1      -1.259  13.758  22.115  0.00  0.00    +0.000 A 
ATOM     18  C   UNL     1      -2.152  14.807  21.900  0.00  0.00    +0.000 A 
ATOM     19  C   UNL     1      -3.494  14.701  22.288  0.00  0.00    +0.000 A 
ATOM     20  C   UNL     1      -3.968  13.565  22.961  0.00  0.00    +0.000 A 
ATOM     21  C   UNL     1      -3.047  12.543  23.236  0.00  0.00    +0.000 A 
ATOM     22  C   UNL     1      -1.708  12.627  22.809  0.00  0.00    +0.000 A 
BRANCH  20  23
ATOM     23  C   UNL     1      -5.383  13.444  23.340  0.00  0.00    +0.000 A 
ATOM     24  C   UNL     1      -6.196  12.257  23.352  0.00  0.00    +0.000 A 
ATOM     25  C   UNL     1      -7.496  12.497  23.749  0.00  0.00    +0.000 A 
ATOM     26  S   UNL     1      -7.761  14.140  24.111  0.00  0.00    +0.000 S 
ATOM     27  C   UNL     1      -6.137  14.537  23.742  0.00  0.00    +0.000 A 
ENDBRANCH  20  23
ENDBRANCH   7  17
BRANCH   2  28
ATOM     28  C   UNL     1       2.323  13.585  19.042  0.00  0.00    +0.000 C 
ATOM     29  O   UNL     1       2.732  12.845  18.143  0.00  0.00    +0.000 OA
BRANCH  28  30
ATOM     30  C   UNL     1       1.985  15.003  18.685  0.00  0.00    +0.000 A 
ATOM     31  C   UNL     1       0.693  15.534  18.624  0.00  0.00    +0.000 A 
ATOM     32  C   UNL     1       0.511  16.882  18.298  0.00  0.00    +0.000 A 
ATOM     33  C   UNL     1       1.617  17.661  18.030  0.00  0.00    +0.000 A 
ATOM     34  N   UNL     1       2.880  17.184  18.049  0.00  0.00    +0.000 NA
ATOM     35  C   UNL     1       3.030  15.870  18.363  0.00  0.00    +0.000 A 
ENDBRANCH  28  30
ENDBRANCH   2  28
TORSDOF 7
ENDMDL
MODEL 8
REMARK VINA RESULT:      -6.2      4.007      8.340
REMARK  Name = 
REMARK  8 active torsions:
REMARK  status: ('A' for Active; 'I' for Inactive)
REMARK    1  A    between atoms: C_1  and  O_2
REMARK    2  A    between atoms: O_2  and  C_3
REMARK    3  A    between atoms: C_3  and  C_4
REMARK    4  A    between atoms: C_9  and  C_10
REMARK    5  A    between atoms: C_11  and  C_12
REMARK    6  A    between atoms: C_12  and  C_14
REMARK    7  A    between atoms: N_24  and  C_25
REMARK    8  A    between atoms: C_28  and  C_29
REMARK                            x       y       z     vdW  Elec       q    Type
REMARK                         _______ _______ _______ _____ _____    ______ ____
ROOT
ATOM      1  C   UNL     1       0.538  13.358  20.053  0.00  0.00    +0.000 C 
ATOM      2  C   UNL     1      -0.417  12.143  19.905  0.00  0.00    +0.000 C 
ATOM      3  C   UNL     1       0.526  11.166  19.269  0.00  0.00    +0.000 C 
ATOM      4  O   UNL     1       0.356   9.962  19.214  0.00  0.00    +0.000 OA
ATOM      5  C   UNL     1       1.724  11.900  18.663  0.00  0.00    +0.000 C 
ATOM      6  O   UNL     1       2.591  11.355  18.009  0.00  0.00    +0.000 OA
ATOM      7  N   UNL     1       1.595  13.224  19.043  0.00  0.00    +0.000 N 
ENDROOT
BRANCH   1  13
ATOM      8  C   UNL     1      -0.234  15.490  21.303  0.00  0.00    +0.000 A 
ATOM      9  C   UNL     1      -0.625  16.844  21.231  0.00  0.00    +0.000 A 
ATOM     10  C   UNL     1      -0.833  17.477  20.007  0.00  0.00    +0.000 A 
ATOM     11  C   UNL     1      -0.716  16.753  18.833  0.00  0.00    +0.000 A 
ATOM     12  C   UNL     1      -0.380  15.403  18.889  0.00  0.00    +0.000 A 
ATOM     13  C   UNL     1      -0.074  14.755  20.106  0.00  0.00    +0.000 A 
BRANCH   8  14
ATOM     14  C   UNL     1       0.036  14.918  22.680  0.00  0.00    +0.000 C 
BRANCH  14  16
ATOM     15  C   UNL     1      -1.872  14.545  24.049  0.00  0.00    +0.000 C 
ATOM     16  O   UNL     1      -0.958  13.989  23.108  0.00  0.00    +0.000 OA
ENDBRANCH  14  16
ENDBRANCH   8  14
ENDBRANCH   1  13
BRANCH   7  17
ATOM     17  C   UNL     1       2.705  14.112  19.004  0.00  0.00    +0.000 A 
ATOM     18  C   UNL     1       3.465  14.267  20.162  0.00  0.00    +0.000 A 
ATOM     19  C   UNL     1       4.689  14.948  20.133  0.00  0.00    +0.000 A 
ATOM     20  C   UNL     1       5.158  15.551  18.955  0.00  0.00    +0.000 A 
ATOM     21  C   UNL     1       4.353  15.451  17.811  0.00  0.00    +0.000 A 
ATOM     22  C   UNL     1       3.144  14.729  17.825  0.00  0.00    +0.000 A 
BRANCH  20  23
ATOM     23  C   UNL     1       6.456  16.239  18.921  0.00  0.00    +0.000 A 
ATOM     24  C   UNL     1       7.606  15.917  18.119  0.00  0.00    +0.000 A 
ATOM     25  C   UNL     1       8.674  16.762  18.342  0.00  0.00    +0.000 A 
ATOM     26  S   UNL     1       8.318  17.947  19.513  0.00  0.00    +0.000 S 
ATOM     27  C   UNL     1       6.732  17.338  19.722  0.00  0.00    +0.000 A 
ENDBRANCH  20  23
ENDBRANCH   7  17
BRANCH   2  28
ATOM     28  C   UNL     1      -1.647  12.274  19.021  0.00  0.00    +0.000 C 
ATOM     29  O   UNL     1      -1.550  12.237  17.793  0.00  0.00    +0.000 OA
BRANCH  28  30
ATOM     30  C   UNL     1      -3.024  12.353  19.615  0.00  0.00    +0.000 A 
ATOM     31  C   UNL     1      -3.330  12.863  20.881  0.00  0.00    +0.000 A 
ATOM     32  C   UNL     1      -4.659  12.900  21.311  0.00  0.00    +0.000 A 
ATOM     33  C   UNL     1      -5.647  12.419  20.478  0.00  0.00    +0.000 A 
ATOM     34  N   UNL     1      -5.395  11.891  19.261  0.00  0.00    +0.000 NA
ATOM     35  C   UNL     1      -4.094  11.861  18.867  0.00  0.00    +0.000 A 
ENDBRANCH  28  30
ENDBRANCH   2  28
TORSDOF 7
ENDMDL
MODEL 9
REMARK VINA RESULT:      -6.1      3.602      7.818
REMARK  Name = 
REMARK  8 active torsions:
REMARK  status: ('A' for Active; 'I' for Inactive)
REMARK    1  A    between atoms: C_1  and  O_2
REMARK    2  A    between atoms: O_2  and  C_3
REMARK    3  A    between atoms: C_3  and  C_4
REMARK    4  A    between atoms: C_9  and  C_10
REMARK    5  A    between atoms: C_11  and  C_12
REMARK    6  A    between atoms: C_12  and  C_14
REMARK    7  A    between atoms: N_24  and  C_25
REMARK    8  A    between atoms: C_28  and  C_29
REMARK                            x       y       z     vdW  Elec       q    Type
REMARK                         _______ _______ _______ _____ _____    ______ ____
ROOT
ATOM      1  C   UNL     1      -2.104  13.737  20.245  0.00  0.00    +0.000 C 
ATOM      2  C   UNL     1      -3.538  13.887  20.822  0.00  0.00    +0.000 C 
ATOM      3  C   UNL     1      -3.493  15.332  21.220  0.00  0.00    +0.000 C 
ATOM      4  O   UNL     1      -4.466  16.024  21.455  0.00  0.00    +0.000 OA
ATOM      5  C   UNL     1      -2.043  15.809  21.327  0.00  0.00    +0.000 C 
ATOM      6  O   UNL     1      -1.722  16.913  21.721  0.00  0.00    +0.000 OA
ATOM      7  N   UNL     1      -1.260  14.764  20.870  0.00  0.00    +0.000 N 
ENDROOT
BRANCH   1  13
ATOM      8  C   UNL     1      -1.519  11.473  19.137  0.00  0.00    +0.000 A 
ATOM      9  C   UNL     1      -0.737  10.297  19.156  0.00  0.00    +0.000 A 
ATOM     10  C   UNL     1       0.100   9.997  20.229  0.00  0.00    +0.000 A 
ATOM     11  C   UNL     1       0.125  10.833  21.332  0.00  0.00    +0.000 A 
ATOM     12  C   UNL     1      -0.678  11.970  21.351  0.00  0.00    +0.000 A 
ATOM     13  C   UNL     1      -1.468  12.351  20.244  0.00  0.00    +0.000 A 
BRANCH   8  14
ATOM     14  C   UNL     1      -2.339  11.739  17.892  0.00  0.00    +0.000 C 
BRANCH  14  16
ATOM     15  C   UNL     1      -4.422  11.382  16.803  0.00  0.00    +0.000 C 
ATOM     16  O   UNL     1      -3.715  11.394  18.040  0.00  0.00    +0.000 OA
ENDBRANCH  14  16
ENDBRANCH   8  14
ENDBRANCH   1  13
BRANCH   7  17
ATOM     17  C   UNL     1       0.083  14.978  20.455  0.00  0.00    +0.000 A 
ATOM     18  C   UNL     1       1.097  14.818  21.398  0.00  0.00    +0.000 A 
ATOM     19  C   UNL     1       2.443  14.797  21.010  0.00  0.00    +0.000 A 
ATOM     20  C   UNL     1       2.817  15.000  19.673  0.00  0.00    +0.000 A 
ATOM     21  C   UNL     1       1.794  15.230  18.741  0.00  0.00    +0.000 A 
ATOM     22  C   UNL     1       0.438  15.207  19.120  0.00  0.00    +0.000 A 
BRANCH  20  23
ATOM     23  C   UNL     1       4.228  14.948  19.264  0.00  0.00    +0.000 A 
ATOM     24  C   UNL     1       4.759  14.699  17.951  0.00  0.00    +0.000 A 
ATOM     25  C   UNL     1       6.138  14.704  17.915  0.00  0.00    +0.000 A 
ATOM     26  S   UNL     1       6.816  15.004  19.449  0.00  0.00    +0.000 S 
ATOM     27  C   UNL     1       5.267  15.133  20.165  0.00  0.00    +0.000 A 
ENDBRANCH  20  23
ENDBRANCH   7  17
BRANCH   2  28
ATOM     28  C   UNL     1      -3.936  13.061  22.034  0.00  0.00    +0.000 C 
ATOM     29  O   UNL     1      -3.119  12.812  22.924  0.00  0.00    +0.000 OA
BRANCH  28  30
ATOM     30  C   UNL     1      -5.354  12.611  22.235  0.00  0.00    +0.000 A 
ATOM     31  C   UNL     1      -6.229  12.220  21.217  0.00  0.00    +0.000 A 
ATOM     32  C   UNL     1      -7.523  11.800  21.537  0.00  0.00    +0.000 A 
ATOM     33  C   UNL     1      -7.916  11.790  22.859  0.00  0.00    +0.000 A 
ATOM     34  N   UNL     1      -7.115  12.186  23.871  0.00  0.00    +0.000 NA
ATOM     35  C   UNL     1      -5.863  12.596  23.534  0.00  0.00    +0.000 A 
ENDBRANCH  28  30
ENDBRANCH   2  28
TORSDOF 7
ENDMDL
