MODEL 1
REMARK VINA RESULT:      -8.5      0.000      0.000
REMARK  Name = 
REMARK  7 active torsions:
REMARK  status: ('A' for Active; 'I' for Inactive)
REMARK    1  A    between atoms: C_1  and  C_2
REMARK    2  A    between atoms: C_5  and  O_6
REMARK    3  A    between atoms: O_6  and  C_7
REMARK    4  A    between atoms: C_7  and  C_8
REMARK    5  A    between atoms: C_8  and  N_9
REMARK    6  A    between atoms: C_16  and  O_17
REMARK    7  A    between atoms: O_17  and  C_18
REMARK                            x       y       z     vdW  Elec       q    Type
REMARK                         _______ _______ _______ _____ _____    ______ ____
ROOT
ATOM      1  N   UNL     1       6.647   5.967  17.422  0.00  0.00    +0.000 N 
ATOM      2  C   UNL     1       6.789   5.558  16.083  0.00  0.00    +0.000 C 
ATOM      3  O   UNL     1       7.653   5.832  15.289  0.00  0.00    +0.000 OA
ATOM      4  C   UNL     1       5.592   4.671  15.783  0.00  0.00    +0.000 C 
ATOM      5  O   UNL     1       5.361   4.070  14.753  0.00  0.00    +0.000 OA
ATOM      6  C   UNL     1       4.781   4.685  16.990  0.00  0.00    +0.000 A 
ATOM      7  C   UNL     1       3.558   4.058  17.135  0.00  0.00    +0.000 A 
ATOM      8  C   UNL     1       2.875   4.243  18.331  0.00  0.00    +0.000 A 
ATOM      9  C   UNL     1       3.461   5.061  19.321  0.00  0.00    +0.000 A 
ATOM     10  C   UNL     1       4.741   5.676  19.138  0.00  0.00    +0.000 A 
ATOM     11  C   UNL     1       5.420   5.488  17.946  0.00  0.00    +0.000 A 
ENDROOT
BRANCH   1  12
ATOM     12  C   UNL     1       7.725   6.803  17.917  0.00  0.00    +0.000 C 
BRANCH  12  13
ATOM     13  C   UNL     1       7.842   8.305  17.701  0.00  0.00    +0.000 C 
BRANCH  13  14
ATOM     14  O   UNL     1       8.681   8.921  18.674  0.00  0.00    +0.000 OA
BRANCH  14  19
ATOM     15  C   UNL     1      10.179  14.334  17.790  0.00  0.00    +0.000 C 
ATOM     16  C   UNL     1       9.741  12.926  18.071  0.00  0.00    +0.000 A 
ATOM     17  C   UNL     1      10.519  12.057  18.842  0.00  0.00    +0.000 A 
ATOM     18  C   UNL     1      10.115  10.732  19.039  0.00  0.00    +0.000 A 
ATOM     19  C   UNL     1       8.929  10.257  18.479  0.00  0.00    +0.000 A 
ATOM     20  C   UNL     1       8.134  11.132  17.735  0.00  0.00    +0.000 A 
ATOM     21  C   UNL     1       8.541  12.455  17.530  0.00  0.00    +0.000 A 
ENDBRANCH  14  19
ENDBRANCH  13  14
ENDBRANCH  12  13
ENDBRANCH   1  12
BRANCH   8  22
ATOM     22  O   UNL     1       1.612   3.746  18.317  0.00  0.00    +0.000 OA
BRANCH  22  23
ATOM     23  C   UNL     1       1.271   2.576  19.036  0.00  0.00    +0.000 C 
ATOM     24  F   UNL     1       2.241   1.645  19.063  0.00  0.00    +0.000 F 
ATOM     25  F   UNL     1       0.980   2.931  20.311  0.00  0.00    +0.000 F 
ATOM     26  F   UNL     1       0.156   2.028  18.500  0.00  0.00    +0.000 F 
ENDBRANCH  22  23
ENDBRANCH   8  22
TORSDOF 6
ENDMDL
MODEL 2
REMARK VINA RESULT:      -8.4      0.772      1.073
REMARK  Name = 
REMARK  7 active torsions:
REMARK  status: ('A' for Active; 'I' for Inactive)
REMARK    1  A    between atoms: C_1  and  C_2
REMARK    2  A    between atoms: C_5  and  O_6
REMARK    3  A    between atoms: O_6  and  C_7
REMARK    4  A    between atoms: C_7  and  C_8
REMARK    5  A    between atoms: C_8  and  N_9
REMARK    6  A    between atoms: C_16  and  O_17
REMARK    7  A    between atoms: O_17  and  C_18
REMARK                            x       y       z     vdW  Elec       q    Type
REMARK                         _______ _______ _______ _____ _____    ______ ____
ROOT
ATOM      1  N   UNL     1       6.714   6.001  17.532  0.00  0.00    +0.000 N 
ATOM      2  C   UNL     1       6.807   5.635  16.177  0.00  0.00    +0.000 C 
ATOM      3  O   UNL     1       7.673   5.886  15.377  0.00  0.00    +0.000 OA
ATOM      4  C   UNL     1       5.554   4.833  15.868  0.00  0.00    +0.000 C 
ATOM      5  O   UNL     1       5.270   4.286  14.821  0.00  0.00    +0.000 OA
ATOM      6  C   UNL     1       4.767   4.849  17.090  0.00  0.00    +0.000 A 
ATOM      7  C   UNL     1       3.510   4.292  17.236  0.00  0.00    +0.000 A 
ATOM      8  C   UNL     1       2.861   4.473  18.451  0.00  0.00    +0.000 A 
ATOM      9  C   UNL     1       3.512   5.216  19.458  0.00  0.00    +0.000 A 
ATOM     10  C   UNL     1       4.824   5.759  19.274  0.00  0.00    +0.000 A 
ATOM     11  C   UNL     1       5.470   5.576  18.062  0.00  0.00    +0.000 A 
ENDROOT
BRANCH   1  12
ATOM     12  C   UNL     1       7.848   6.751  18.036  0.00  0.00    +0.000 C 
BRANCH  12  13
ATOM     13  C   UNL     1       8.028   8.258  17.918  0.00  0.00    +0.000 C 
BRANCH  13  14
ATOM     14  O   UNL     1       8.458   8.842  19.144  0.00  0.00    +0.000 OA
BRANCH  14  19
ATOM     15  C   UNL     1      11.594  13.583  19.005  0.00  0.00    +0.000 C 
ATOM     16  C   UNL     1      10.711  12.370  19.032  0.00  0.00    +0.000 A 
ATOM     17  C   UNL     1      10.339  11.761  20.234  0.00  0.00    +0.000 A 
ATOM     18  C   UNL     1       9.565  10.596  20.227  0.00  0.00    +0.000 A 
ATOM     19  C   UNL     1       9.143  10.027  19.025  0.00  0.00    +0.000 A 
ATOM     20  C   UNL     1       9.486  10.651  17.824  0.00  0.00    +0.000 A 
ATOM     21  C   UNL     1      10.268  11.812  17.829  0.00  0.00    +0.000 A 
ENDBRANCH  14  19
ENDBRANCH  13  14
ENDBRANCH  12  13
ENDBRANCH   1  12
BRANCH   8  22
ATOM     22  O   UNL     1       1.570   4.052  18.444  0.00  0.00    +0.000 OA
BRANCH  22  23
ATOM     23  C   UNL     1       1.137   2.981  19.261  0.00  0.00    +0.000 C 
ATOM     24  F   UNL     1       0.240   2.170  18.672  0.00  0.00    +0.000 F 
ATOM     25  F   UNL     1       2.221   2.245  19.606  0.00  0.00    +0.000 F 
ATOM     26  F   UNL     1       0.598   3.473  20.400  0.00  0.00    +0.000 F 
ENDBRANCH  22  23
ENDBRANCH   8  22
TORSDOF 6
ENDMDL
MODEL 3
REMARK VINA RESULT:      -8.2      1.082      1.500
REMARK  Name = 
REMARK  7 active torsions:
REMARK  status: ('A' for Active; 'I' for Inactive)
REMARK    1  A    between atoms: C_1  and  C_2
REMARK    2  A    between atoms: C_5  and  O_6
REMARK    3  A    between atoms: O_6  and  C_7
REMARK    4  A    between atoms: C_7  and  C_8
REMARK    5  A    between atoms: C_8  and  N_9
REMARK    6  A    between atoms: C_16  and  O_17
REMARK    7  A    between atoms: O_17  and  C_18
REMARK                            x       y       z     vdW  Elec       q    Type
REMARK                         _______ _______ _______ _____ _____    ______ ____
ROOT
ATOM      1  N   UNL     1       5.906   6.652  17.093  0.00  0.00    +0.000 N 
ATOM      2  C   UNL     1       6.625   5.778  16.255  0.00  0.00    +0.000 C 
ATOM      3  O   UNL     1       7.665   5.961  15.676  0.00  0.00    +0.000 OA
ATOM      4  C   UNL     1       5.814   4.494  16.188  0.00  0.00    +0.000 C 
ATOM      5  O   UNL     1       6.111   3.467  15.612  0.00  0.00    +0.000 OA
ATOM      6  C   UNL     1       4.612   4.748  16.964  0.00  0.00    +0.000 A 
ATOM      7  C   UNL     1       3.559   3.865  17.114  0.00  0.00    +0.000 A 
ATOM      8  C   UNL     1       2.446   4.302  17.822  0.00  0.00    +0.000 A 
ATOM      9  C   UNL     1       2.448   5.616  18.337  0.00  0.00    +0.000 A 
ATOM     10  C   UNL     1       3.569   6.493  18.177  0.00  0.00    +0.000 A 
ATOM     11  C   UNL     1       4.678   6.054  17.472  0.00  0.00    +0.000 A 
ENDROOT
BRANCH   1  12
ATOM     12  C   UNL     1       6.542   7.936  17.316  0.00  0.00    +0.000 C 
BRANCH  12  13
ATOM     13  C   UNL     1       7.890   8.144  17.991  0.00  0.00    +0.000 C 
BRANCH  13  14
ATOM     14  O   UNL     1       8.614   9.227  17.417  0.00  0.00    +0.000 OA
BRANCH  14  19
ATOM     15  C   UNL     1      10.002  13.332  21.099  0.00  0.00    +0.000 C 
ATOM     16  C   UNL     1       9.571  12.265  20.135  0.00  0.00    +0.000 A 
ATOM     17  C   UNL     1       9.504  10.921  20.513  0.00  0.00    +0.000 A 
ATOM     18  C   UNL     1       9.156   9.939  19.578  0.00  0.00    +0.000 A 
ATOM     19  C   UNL     1       8.863  10.284  18.258  0.00  0.00    +0.000 A 
ATOM     20  C   UNL     1       8.898  11.629  17.887  0.00  0.00    +0.000 A 
ATOM     21  C   UNL     1       9.254  12.611  18.818  0.00  0.00    +0.000 A 
ENDBRANCH  14  19
ENDBRANCH  13  14
ENDBRANCH  12  13
ENDBRANCH   1  12
BRANCH   8  22
ATOM     22  O   UNL     1       1.396   3.443  17.766  0.00  0.00    +0.000 OA
BRANCH  22  23
ATOM     23  C   UNL     1       0.993   2.694  18.896  0.00  0.00    +0.000 C 
ATOM     24  F   UNL     1       0.582   3.444  19.934  0.00  0.00    +0.000 F 
ATOM     25  F   UNL     1      -0.025   1.880  18.525  0.00  0.00    +0.000 F 
ATOM     26  F   UNL     1       2.016   1.908  19.305  0.00  0.00    +0.000 F 
ENDBRANCH  22  23
ENDBRANCH   8  22
TORSDOF 6
ENDMDL
MODEL 4
REMARK VINA RESULT:      -8.2      1.090      1.624
REMARK  Name = 
REMARK  7 active torsions:
REMARK  status: ('A' for Active; 'I' for Inactive)
REMARK    1  A    between atoms: C_1  and  C_2
REMARK    2  A    between atoms: C_5  and  O_6
REMARK    3  A    between atoms: O_6  and  C_7
REMARK    4  A    between atoms: C_7  and  C_8
REMARK    5  A    between atoms: C_8  and  N_9
REMARK    6  A    between atoms: C_16  and  O_17
REMARK    7  A    between atoms: O_17  and  C_18
REMARK                            x       y       z     vdW  Elec       q    Type
REMARK                         _______ _______ _______ _____ _____    ______ ____
ROOT
ATOM      1  N   UNL     1       6.766   5.836  17.520  0.00  0.00    +0.000 N 
ATOM      2  C   UNL     1       6.961   5.423  16.189  0.00  0.00    +0.000 C 
ATOM      3  O   UNL     1       7.707   5.867  15.354  0.00  0.00    +0.000 OA
ATOM      4  C   UNL     1       6.006   4.261  15.962  0.00  0.00    +0.000 C 
ATOM      5  O   UNL     1       5.897   3.584  14.960  0.00  0.00    +0.000 OA
ATOM      6  C   UNL     1       5.255   4.124  17.199  0.00  0.00    +0.000 A 
ATOM      7  C   UNL     1       4.225   3.226  17.410  0.00  0.00    +0.000 A 
ATOM      8  C   UNL     1       3.556   3.286  18.626  0.00  0.00    +0.000 A 
ATOM      9  C   UNL     1       3.955   4.259  19.567  0.00  0.00    +0.000 A 
ATOM     10  C   UNL     1       5.042   5.157  19.317  0.00  0.00    +0.000 A 
ATOM     11  C   UNL     1       5.708   5.094  18.105  0.00  0.00    +0.000 A 
ENDROOT
BRANCH   1  12
ATOM     12  C   UNL     1       7.622   6.925  17.947  0.00  0.00    +0.000 C 
BRANCH  12  13
ATOM     13  C   UNL     1       7.329   8.405  17.746  0.00  0.00    +0.000 C 
BRANCH  13  14
ATOM     14  O   UNL     1       8.500   9.141  17.407  0.00  0.00    +0.000 OA
BRANCH  14  19
ATOM     15  C   UNL     1       9.625  13.444  20.949  0.00  0.00    +0.000 C 
ATOM     16  C   UNL     1       9.395  12.300  20.006  0.00  0.00    +0.000 A 
ATOM     17  C   UNL     1       9.032  12.512  18.673  0.00  0.00    +0.000 A 
ATOM     18  C   UNL     1       8.765  11.426  17.831  0.00  0.00    +0.000 A 
ATOM     19  C   UNL     1       8.864  10.117  18.302  0.00  0.00    +0.000 A 
ATOM     20  C   UNL     1       9.257   9.902  19.625  0.00  0.00    +0.000 A 
ATOM     21  C   UNL     1       9.515  10.987  20.471  0.00  0.00    +0.000 A 
ENDBRANCH  14  19
ENDBRANCH  13  14
ENDBRANCH  12  13
ENDBRANCH   1  12
BRANCH   8  22
ATOM     22  O   UNL     1       2.452   2.498  18.676  0.00  0.00    +0.000 OA
BRANCH  22  23
ATOM     23  C   UNL     1       1.185   3.021  19.027  0.00  0.00    +0.000 C 
ATOM     24  F   UNL     1       0.949   4.255  18.548  0.00  0.00    +0.000 F 
ATOM     25  F   UNL     1       0.233   2.185  18.548  0.00  0.00    +0.000 F 
ATOM     26  F   UNL     1       1.066   3.047  20.375  0.00  0.00    +0.000 F 
ENDBRANCH  22  23
ENDBRANCH   8  22
TORSDOF 6
ENDMDL
MODEL 5
REMARK VINA RESULT:      -8.2      0.964      1.197
REMARK  Name = 
REMARK  7 active torsions:
REMARK  status: ('A' for Active; 'I' for Inactive)
REMARK    1  A    between atoms: C_1  and  C_2
REMARK    2  A    between atoms: C_5  and  O_6
REMARK    3  A    between atoms: O_6  and  C_7
REMARK    4  A    between atoms: C_7  and  C_8
REMARK    5  A    between atoms: C_8  and  N_9
REMARK    6  A    between atoms: C_16  and  O_17
REMARK    7  A    between atoms: O_17  and  C_18
REMARK                            x       y       z     vdW  Elec       q    Type
REMARK                         _______ _______ _______ _____ _____    ______ ____
ROOT
ATOM      1  N   UNL     1       6.879   5.590  17.670  0.00  0.00    +0.000 N 
ATOM      2  C   UNL     1       6.938   5.419  16.275  0.00  0.00    +0.000 C 
ATOM      3  O   UNL     1       7.665   5.946  15.472  0.00  0.00    +0.000 OA
ATOM      4  C   UNL     1       5.857   4.408  15.927  0.00  0.00    +0.000 C 
ATOM      5  O   UNL     1       5.610   3.943  14.833  0.00  0.00    +0.000 OA
ATOM      6  C   UNL     1       5.184   4.108  17.180  0.00  0.00    +0.000 A 
ATOM      7  C   UNL     1       4.085   3.279  17.315  0.00  0.00    +0.000 A 
ATOM      8  C   UNL     1       3.512   3.168  18.575  0.00  0.00    +0.000 A 
ATOM      9  C   UNL     1       4.073   3.908  19.638  0.00  0.00    +0.000 A 
ATOM     10  C   UNL     1       5.225   4.739  19.460  0.00  0.00    +0.000 A 
ATOM     11  C   UNL     1       5.796   4.847  18.203  0.00  0.00    +0.000 A 
ENDROOT
BRANCH   1  12
ATOM     12  C   UNL     1       7.870   6.501  18.210  0.00  0.00    +0.000 C 
BRANCH  12  13
ATOM     13  C   UNL     1       7.887   8.009  17.998  0.00  0.00    +0.000 C 
BRANCH  13  14
ATOM     14  O   UNL     1       8.916   8.643  18.750  0.00  0.00    +0.000 OA
BRANCH  14  19
ATOM     15  C   UNL     1       9.278  14.315  18.908  0.00  0.00    +0.000 C 
ATOM     16  C   UNL     1       9.117  12.823  18.880  0.00  0.00    +0.000 A 
ATOM     17  C   UNL     1       9.500  12.025  19.962  0.00  0.00    +0.000 A 
ATOM     18  C   UNL     1       9.394  10.632  19.886  0.00  0.00    +0.000 A 
ATOM     19  C   UNL     1       8.897  10.016  18.736  0.00  0.00    +0.000 A 
ATOM     20  C   UNL     1       8.484  10.813  17.667  0.00  0.00    +0.000 A 
ATOM     21  C   UNL     1       8.598  12.206  17.738  0.00  0.00    +0.000 A 
ENDBRANCH  14  19
ENDBRANCH  13  14
ENDBRANCH  12  13
ENDBRANCH   1  12
BRANCH   8  22
ATOM     22  O   UNL     1       2.340   2.483  18.580  0.00  0.00    +0.000 OA
BRANCH  22  23
ATOM     23  C   UNL     1       1.093   3.151  18.637  0.00  0.00    +0.000 C 
ATOM     24  F   UNL     1       0.961   4.146  17.742  0.00  0.00    +0.000 F 
ATOM     25  F   UNL     1       0.114   2.241  18.416  0.00  0.00    +0.000 F 
ATOM     26  F   UNL     1       0.910   3.654  19.880  0.00  0.00    +0.000 F 
ENDBRANCH  22  23
ENDBRANCH   8  22
TORSDOF 6
ENDMDL
MODEL 6
REMARK VINA RESULT:      -8.1      0.819      1.374
REMARK  Name = 
REMARK  7 active torsions:
REMARK  status: ('A' for Active; 'I' for Inactive)
REMARK    1  A    between atoms: C_1  and  C_2
REMARK    2  A    between atoms: C_5  and  O_6
REMARK    3  A    between atoms: O_6  and  C_7
REMARK    4  A    between atoms: C_7  and  C_8
REMARK    5  A    between atoms: C_8  and  N_9
REMARK    6  A    between atoms: C_16  and  O_17
REMARK    7  A    between atoms: O_17  and  C_18
REMARK                            x       y       z     vdW  Elec       q    Type
REMARK                         _______ _______ _______ _____ _____    ______ ____
ROOT
ATOM      1  N   UNL     1       6.923   5.643  17.535  0.00  0.00    +0.000 N 
ATOM      2  C   UNL     1       6.990   5.400  16.150  0.00  0.00    +0.000 C 
ATOM      3  O   UNL     1       7.728   5.881  15.327  0.00  0.00    +0.000 OA
ATOM      4  C   UNL     1       5.905   4.380  15.846  0.00  0.00    +0.000 C 
ATOM      5  O   UNL     1       5.663   3.862  14.774  0.00  0.00    +0.000 OA
ATOM      6  C   UNL     1       5.221   4.148  17.106  0.00  0.00    +0.000 A 
ATOM      7  C   UNL     1       4.116   3.334  17.274  0.00  0.00    +0.000 A 
ATOM      8  C   UNL     1       3.532   3.291  18.535  0.00  0.00    +0.000 A 
ATOM      9  C   UNL     1       4.090   4.080  19.563  0.00  0.00    +0.000 A 
ATOM     10  C   UNL     1       5.249   4.894  19.352  0.00  0.00    +0.000 A 
ATOM     11  C   UNL     1       5.830   4.934  18.095  0.00  0.00    +0.000 A 
ENDROOT
BRANCH   1  12
ATOM     12  C   UNL     1       7.915   6.574  18.035  0.00  0.00    +0.000 C 
BRANCH  12  13
ATOM     13  C   UNL     1       7.859   8.087  17.880  0.00  0.00    +0.000 C 
BRANCH  13  14
ATOM     14  O   UNL     1       8.622   8.756  18.879  0.00  0.00    +0.000 OA
BRANCH  14  19
ATOM     15  C   UNL     1       9.578  14.242  17.732  0.00  0.00    +0.000 C 
ATOM     16  C   UNL     1       9.372  12.778  17.988  0.00  0.00    +0.000 A 
ATOM     17  C   UNL     1       8.270  12.092  17.468  0.00  0.00    +0.000 A 
ATOM     18  C   UNL     1       8.070  10.741  17.771  0.00  0.00    +0.000 A 
ATOM     19  C   UNL     1       8.967  10.053  18.588  0.00  0.00    +0.000 A 
ATOM     20  C   UNL     1      10.085  10.727  19.083  0.00  0.00    +0.000 A 
ATOM     21  C   UNL     1      10.282  12.081  18.788  0.00  0.00    +0.000 A 
ENDBRANCH  14  19
ENDBRANCH  13  14
ENDBRANCH  12  13
ENDBRANCH   1  12
BRANCH   8  22
ATOM     22  O   UNL     1       2.356   2.614  18.564  0.00  0.00    +0.000 OA
BRANCH  22  23
ATOM     23  C   UNL     1       1.118   3.289  18.686  0.00  0.00    +0.000 C 
ATOM     24  F   UNL     1       0.963   3.948  19.849  0.00  0.00    +0.000 F 
ATOM     25  F   UNL     1       1.018   4.180  17.671  0.00  0.00    +0.000 F 
ATOM     26  F   UNL     1       0.106   2.401  18.551  0.00  0.00    +0.000 F 
ENDBRANCH  22  23
ENDBRANCH   8  22
TORSDOF 6
ENDMDL
MODEL 7
REMARK VINA RESULT:      -8.1      0.847      1.225
REMARK  Name = 
REMARK  7 active torsions:
REMARK  status: ('A' for Active; 'I' for Inactive)
REMARK    1  A    between atoms: C_1  and  C_2
REMARK    2  A    between atoms: C_5  and  O_6
REMARK    3  A    between atoms: O_6  and  C_7
REMARK    4  A    between atoms: C_7  and  C_8
REMARK    5  A    between atoms: C_8  and  N_9
REMARK    6  A    between atoms: C_16  and  O_17
REMARK    7  A    between atoms: O_17  and  C_18
REMARK                            x       y       z     vdW  Elec       q    Type
REMARK                         _______ _______ _______ _____ _____    ______ ____
ROOT
ATOM      1  N   UNL     1       6.606   6.171  17.363  0.00  0.00    +0.000 N 
ATOM      2  C   UNL     1       6.817   5.603  16.093  0.00  0.00    +0.000 C 
ATOM      3  O   UNL     1       7.714   5.793  15.312  0.00  0.00    +0.000 OA
ATOM      4  C   UNL     1       5.647   4.663  15.850  0.00  0.00    +0.000 C 
ATOM      5  O   UNL     1       5.474   3.935  14.893  0.00  0.00    +0.000 OA
ATOM      6  C   UNL     1       4.780   4.810  17.008  0.00  0.00    +0.000 A 
ATOM      7  C   UNL     1       3.559   4.183  17.173  0.00  0.00    +0.000 A 
ATOM      8  C   UNL     1       2.818   4.501  18.304  0.00  0.00    +0.000 A 
ATOM      9  C   UNL     1       3.345   5.446  19.211  0.00  0.00    +0.000 A 
ATOM     10  C   UNL     1       4.624   6.057  19.013  0.00  0.00    +0.000 A 
ATOM     11  C   UNL     1       5.362   5.737  17.885  0.00  0.00    +0.000 A 
ENDROOT
BRANCH   1  12
ATOM     12  C   UNL     1       7.647   7.081  17.799  0.00  0.00    +0.000 C 
BRANCH  12  13
ATOM     13  C   UNL     1       7.509   8.594  17.898  0.00  0.00    +0.000 C 
BRANCH  13  14
ATOM     14  O   UNL     1       8.697   9.267  17.495  0.00  0.00    +0.000 OA
BRANCH  14  19
ATOM     15  C   UNL     1      10.495  13.468  20.879  0.00  0.00    +0.000 C 
ATOM     16  C   UNL     1      10.077  12.326  19.999  0.00  0.00    +0.000 A 
ATOM     17  C   UNL     1      10.175  12.402  18.606  0.00  0.00    +0.000 A 
ATOM     18  C   UNL     1       9.723  11.346  17.806  0.00  0.00    +0.000 A 
ATOM     19  C   UNL     1       9.177  10.198  18.382  0.00  0.00    +0.000 A 
ATOM     20  C   UNL     1       9.109  10.107  19.774  0.00  0.00    +0.000 A 
ATOM     21  C   UNL     1       9.552  11.166  20.575  0.00  0.00    +0.000 A 
ENDBRANCH  14  19
ENDBRANCH  13  14
ENDBRANCH  12  13
ENDBRANCH   1  12
BRANCH   8  22
ATOM     22  O   UNL     1       1.563   3.982  18.294  0.00  0.00    +0.000 OA
BRANCH  22  23
ATOM     23  C   UNL     1       1.182   2.953  19.188  0.00  0.00    +0.000 C 
ATOM     24  F   UNL     1       2.207   2.205  19.633  0.00  0.00    +0.000 F 
ATOM     25  F   UNL     1       0.571   3.523  20.254  0.00  0.00    +0.000 F 
ATOM     26  F   UNL     1       0.281   2.144  18.584  0.00  0.00    +0.000 F 
ENDBRANCH  22  23
ENDBRANCH   8  22
TORSDOF 6
ENDMDL
MODEL 8
REMARK VINA RESULT:      -8.0      3.597      5.780
REMARK  Name = 
REMARK  7 active torsions:
REMARK  status: ('A' for Active; 'I' for Inactive)
REMARK    1  A    between atoms: C_1  and  C_2
REMARK    2  A    between atoms: C_5  and  O_6
REMARK    3  A    between atoms: O_6  and  C_7
REMARK    4  A    between atoms: C_7  and  C_8
REMARK    5  A    between atoms: C_8  and  N_9
REMARK    6  A    between atoms: C_16  and  O_17
REMARK    7  A    between atoms: O_17  and  C_18
REMARK                            x       y       z     vdW  Elec       q    Type
REMARK                         _______ _______ _______ _____ _____    ______ ____
ROOT
ATOM      1  N   UNL     1       3.124   3.984  18.332  0.00  0.00    +0.000 N 
ATOM      2  C   UNL     1       2.534   3.113  19.266  0.00  0.00    +0.000 C 
ATOM      3  O   UNL     1       2.490   1.909  19.264  0.00  0.00    +0.000 OA
ATOM      4  C   UNL     1       1.913   3.998  20.335  0.00  0.00    +0.000 C 
ATOM      5  O   UNL     1       1.351   3.639  21.351  0.00  0.00    +0.000 OA
ATOM      6  C   UNL     1       2.138   5.364  19.893  0.00  0.00    +0.000 A 
ATOM      7  C   UNL     1       1.676   6.496  20.539  0.00  0.00    +0.000 A 
ATOM      8  C   UNL     1       1.909   7.724  19.933  0.00  0.00    +0.000 A 
ATOM      9  C   UNL     1       2.592   7.747  18.698  0.00  0.00    +0.000 A 
ATOM     10  C   UNL     1       3.072   6.552  18.072  0.00  0.00    +0.000 A 
ATOM     11  C   UNL     1       2.840   5.329  18.680  0.00  0.00    +0.000 A 
ENDROOT
BRANCH   1  12
ATOM     12  C   UNL     1       3.810   3.324  17.238  0.00  0.00    +0.000 C 
BRANCH  12  13
ATOM     13  C   UNL     1       4.868   3.964  16.349  0.00  0.00    +0.000 C 
BRANCH  13  14
ATOM     14  O   UNL     1       6.145   3.997  16.978  0.00  0.00    +0.000 OA
BRANCH  14  19
ATOM     15  C   UNL     1       8.522   8.968  18.383  0.00  0.00    +0.000 C 
ATOM     16  C   UNL     1       7.837   7.677  18.041  0.00  0.00    +0.000 A 
ATOM     17  C   UNL     1       8.048   6.515  18.790  0.00  0.00    +0.000 A 
ATOM     18  C   UNL     1       7.443   5.311  18.414  0.00  0.00    +0.000 A 
ATOM     19  C   UNL     1       6.615   5.249  17.293  0.00  0.00    +0.000 A 
ATOM     20  C   UNL     1       6.377   6.415  16.562  0.00  0.00    +0.000 A 
ATOM     21  C   UNL     1       6.989   7.618  16.932  0.00  0.00    +0.000 A 
ENDBRANCH  14  19
ENDBRANCH  13  14
ENDBRANCH  12  13
ENDBRANCH   1  12
BRANCH   8  22
ATOM     22  O   UNL     1       1.269   8.757  20.537  0.00  0.00    +0.000 OA
BRANCH  22  23
ATOM     23  C   UNL     1       0.566   9.732  19.789  0.00  0.00    +0.000 C 
ATOM     24  F   UNL     1       0.287   9.359  18.528  0.00  0.00    +0.000 F 
ATOM     25  F   UNL     1      -0.599   9.997  20.427  0.00  0.00    +0.000 F 
ATOM     26  F   UNL     1       1.284  10.878  19.756  0.00  0.00    +0.000 F 
ENDBRANCH  22  23
ENDBRANCH   8  22
TORSDOF 6
ENDMDL
MODEL 9
REMARK VINA RESULT:      -8.0      3.853      6.163
REMARK  Name = 
REMARK  7 active torsions:
REMARK  status: ('A' for Active; 'I' for Inactive)
REMARK    1  A    between atoms: C_1  and  C_2
REMARK    2  A    between atoms: C_5  and  O_6
REMARK    3  A    between atoms: O_6  and  C_7
REMARK    4  A    between atoms: C_7  and  C_8
REMARK    5  A    between atoms: C_8  and  N_9
REMARK    6  A    between atoms: C_16  and  O_17
REMARK    7  A    between atoms: O_17  and  C_18
REMARK                            x       y       z     vdW  Elec       q    Type
REMARK                         _______ _______ _______ _____ _____    ______ ____
ROOT
ATOM      1  N   UNL     1       2.559   3.942  18.440  0.00  0.00    +0.000 N 
ATOM      2  C   UNL     1       2.232   3.064  19.489  0.00  0.00    +0.000 C 
ATOM      3  O   UNL     1       2.183   1.860  19.489  0.00  0.00    +0.000 OA
ATOM      4  C   UNL     1       1.920   3.939  20.692  0.00  0.00    +0.000 C 
ATOM      5  O   UNL     1       1.644   3.573  21.817  0.00  0.00    +0.000 OA
ATOM      6  C   UNL     1       2.027   5.309  20.218  0.00  0.00    +0.000 A 
ATOM      7  C   UNL     1       1.757   6.436  20.972  0.00  0.00    +0.000 A 
ATOM      8  C   UNL     1       1.828   7.670  20.336  0.00  0.00    +0.000 A 
ATOM      9  C   UNL     1       2.160   7.703  18.965  0.00  0.00    +0.000 A 
ATOM     10  C   UNL     1       2.453   6.512  18.225  0.00  0.00    +0.000 A 
ATOM     11  C   UNL     1       2.383   5.284  18.862  0.00  0.00    +0.000 A 
ENDROOT
BRANCH   1  12
ATOM     12  C   UNL     1       2.929   3.290  17.199  0.00  0.00    +0.000 C 
BRANCH  12  13
ATOM     13  C   UNL     1       4.345   3.183  16.649  0.00  0.00    +0.000 C 
BRANCH  13  14
ATOM     14  O   UNL     1       4.745   4.367  15.966  0.00  0.00    +0.000 OA
BRANCH  14  19
ATOM     15  C   UNL     1       8.421   7.757  18.673  0.00  0.00    +0.000 C 
ATOM     16  C   UNL     1       7.498   6.850  17.913  0.00  0.00    +0.000 A 
ATOM     17  C   UNL     1       6.496   7.357  17.079  0.00  0.00    +0.000 A 
ATOM     18  C   UNL     1       5.612   6.490  16.428  0.00  0.00    +0.000 A 
ATOM     19  C   UNL     1       5.718   5.108  16.591  0.00  0.00    +0.000 A 
ATOM     20  C   UNL     1       6.737   4.598  17.397  0.00  0.00    +0.000 A 
ATOM     21  C   UNL     1       7.617   5.465  18.056  0.00  0.00    +0.000 A 
ENDBRANCH  14  19
ENDBRANCH  13  14
ENDBRANCH  12  13
ENDBRANCH   1  12
BRANCH   8  22
ATOM     22  O   UNL     1       1.375   8.698  21.097  0.00  0.00    +0.000 OA
BRANCH  22  23
ATOM     23  C   UNL     1      -0.005   9.003  21.184  0.00  0.00    +0.000 C 
ATOM     24  F   UNL     1      -0.774   7.965  21.557  0.00  0.00    +0.000 F 
ATOM     25  F   UNL     1      -0.163  10.001  22.086  0.00  0.00    +0.000 F 
ATOM     26  F   UNL     1      -0.440   9.461  19.987  0.00  0.00    +0.000 F 
ENDBRANCH  22  23
ENDBRANCH   8  22
TORSDOF 6
ENDMDL
