MODEL 1
REMARK VINA RESULT:      -8.1      0.000      0.000
REMARK  Name = 
REMARK  9 active torsions:
REMARK  status: ('A' for Active; 'I' for Inactive)
REMARK    1  A    between atoms: C_1  and  C_2
REMARK    2  A    between atoms: C_2  and  C_3
REMARK    3  A    between atoms: C_2  and  C_4
REMARK    4  A    between atoms: C_5  and  O_6
REMARK    5  A    between atoms: O_6  and  C_7
REMARK    6  A    between atoms: C_7  and  C_8
REMARK    7  A    between atoms: C_8  and  C_9
REMARK    8  A    between atoms: C_8  and  O_10
REMARK    9  A    between atoms: N_17  and  C_18
REMARK                            x       y       z     vdW  Elec       q    Type
REMARK                         _______ _______ _______ _____ _____    ______ ____
ROOT
ATOM      1  C   UNL     1       4.514   4.907  18.179  0.00  0.00    +0.000 A 
ATOM      2  C   UNL     1       4.662   3.734  17.345  0.00  0.00    +0.000 A 
ATOM      3  C   UNL     1       3.641   2.874  17.650  0.00  0.00    +0.000 A 
ATOM      4  N   UNL     1       2.804   3.498  18.514  0.00  0.00    +0.000 N 
ATOM      5  N   UNL     1       1.648   2.967  18.931  0.00  0.00    +0.000 NA
ATOM      6  C   UNL     1       0.968   3.739  19.694  0.00  0.00    +0.000 A 
ATOM      7  N   UNL     1       1.309   5.007  20.081  0.00  0.00    +0.000 NA
ATOM      8  C   UNL     1       2.427   5.541  19.688  0.00  0.00    +0.000 A 
ATOM      9  N   UNL     1       2.746   6.821  20.080  0.00  0.00    +0.000 N 
ATOM     10  C   UNL     1       3.279   4.740  18.834  0.00  0.00    +0.000 A 
ATOM     11  H   UNL     1       3.683   7.124  19.878  0.00  0.00    +0.000 HD
ENDROOT
BRANCH   9  12
ATOM     12  C   UNL     1       1.884   7.910  20.323  0.00  0.00    +0.000 A 
ATOM     13  C   UNL     1       1.384   8.774  19.344  0.00  0.00    +0.000 A 
ATOM     14  N   UNL     1       0.514   9.802  19.531  0.00  0.00    +0.000 NA
ATOM     15  C   UNL     1       0.131   9.928  20.811  0.00  0.00    +0.000 A 
ATOM     16  N   UNL     1      -0.768  10.856  21.261  0.00  0.00    +0.000 N 
ATOM     17  C   UNL     1      -0.937  10.717  22.614  0.00  0.00    +0.000 A 
ATOM     18  C   UNL     1      -0.128   9.682  23.039  0.00  0.00    +0.000 A 
ATOM     19  C   UNL     1       0.537   9.165  21.896  0.00  0.00    +0.000 A 
ATOM     20  C   UNL     1       1.441   8.120  21.641  0.00  0.00    +0.000 A 
ATOM     21  H   UNL     1      -1.230  11.519  20.657  0.00  0.00    +0.000 HD
ENDBRANCH   9  12
BRANCH   1  23
ATOM     22  C   UNL     1       6.935   5.610  18.544  0.00  0.00    +0.000 C 
ATOM     23  C   UNL     1       5.503   6.058  18.227  0.00  0.00    +0.000 C 
ATOM     24  C   UNL     1       5.433   6.973  16.993  0.00  0.00    +0.000 C 
ENDBRANCH   1  23
BRANCH   2  25
ATOM     25  O   UNL     1       5.627   3.495  16.408  0.00  0.00    +0.000 OA
BRANCH  25  26
ATOM     26  C   UNL     1       5.304   4.072  15.120  0.00  0.00    +0.000 C 
BRANCH  26  27
ATOM     27  C   UNL     1       6.469   4.034  14.122  0.00  0.00    +0.000 C 
ATOM     28  C   UNL     1       6.046   3.598  12.730  0.00  0.00    +0.000 C 
BRANCH  27  29
ATOM     29  O   UNL     1       7.123   5.298  14.044  0.00  0.00    +0.000 OA
ATOM     30  H   UNL     1       8.053   5.121  13.824  0.00  0.00    +0.000 HD
ENDBRANCH  27  29
ENDBRANCH  26  27
ENDBRANCH  25  26
ENDBRANCH   2  25
TORSDOF 6
ENDMDL
MODEL 2
REMARK VINA RESULT:      -8.0      0.811      1.436
REMARK  Name = 
REMARK  9 active torsions:
REMARK  status: ('A' for Active; 'I' for Inactive)
REMARK    1  A    between atoms: C_1  and  C_2
REMARK    2  A    between atoms: C_2  and  C_3
REMARK    3  A    between atoms: C_2  and  C_4
REMARK    4  A    between atoms: C_5  and  O_6
REMARK    5  A    between atoms: O_6  and  C_7
REMARK    6  A    between atoms: C_7  and  C_8
REMARK    7  A    between atoms: C_8  and  C_9
REMARK    8  A    between atoms: C_8  and  O_10
REMARK    9  A    between atoms: N_17  and  C_18
REMARK                            x       y       z     vdW  Elec       q    Type
REMARK                         _______ _______ _______ _____ _____    ______ ____
ROOT
ATOM      1  C   UNL     1       4.500   4.899  18.225  0.00  0.00    +0.000 A 
ATOM      2  C   UNL     1       4.701   3.707  17.430  0.00  0.00    +0.000 A 
ATOM      3  C   UNL     1       3.728   2.807  17.776  0.00  0.00    +0.000 A 
ATOM      4  N   UNL     1       2.869   3.417  18.626  0.00  0.00    +0.000 N 
ATOM      5  N   UNL     1       1.745   2.842  19.074  0.00  0.00    +0.000 NA
ATOM      6  C   UNL     1       1.033   3.604  19.817  0.00  0.00    +0.000 A 
ATOM      7  N   UNL     1       1.311   4.900  20.156  0.00  0.00    +0.000 NA
ATOM      8  C   UNL     1       2.397   5.477  19.733  0.00  0.00    +0.000 A 
ATOM      9  N   UNL     1       2.653   6.785  20.077  0.00  0.00    +0.000 N 
ATOM     10  C   UNL     1       3.281   4.692  18.899  0.00  0.00    +0.000 A 
ATOM     11  H   UNL     1       3.570   7.129  19.856  0.00  0.00    +0.000 HD
ENDROOT
BRANCH   9  12
ATOM     12  C   UNL     1       1.738   7.835  20.292  0.00  0.00    +0.000 A 
ATOM     13  C   UNL     1       1.111   8.120  21.510  0.00  0.00    +0.000 A 
ATOM     14  N   UNL     1       0.263   9.151  21.770  0.00  0.00    +0.000 NA
ATOM     15  C   UNL     1       0.068   9.940  20.703  0.00  0.00    +0.000 A 
ATOM     16  N   UNL     1      -0.708  11.067  20.706  0.00  0.00    +0.000 N 
ATOM     17  C   UNL     1      -0.696  11.640  19.461  0.00  0.00    +0.000 A 
ATOM     18  C   UNL     1       0.099  10.862  18.643  0.00  0.00    +0.000 A 
ATOM     19  C   UNL     1       0.602   9.793  19.431  0.00  0.00    +0.000 A 
ATOM     20  C   UNL     1       1.468   8.706  19.222  0.00  0.00    +0.000 A 
ATOM     21  H   UNL     1      -1.190  11.407  21.525  0.00  0.00    +0.000 HD
ENDBRANCH   9  12
BRANCH   1  23
ATOM     22  C   UNL     1       6.891   5.732  18.496  0.00  0.00    +0.000 C 
ATOM     23  C   UNL     1       5.429   6.101  18.223  0.00  0.00    +0.000 C 
ATOM     24  C   UNL     1       5.270   6.991  16.979  0.00  0.00    +0.000 C 
ENDBRANCH   1  23
BRANCH   2  25
ATOM     25  O   UNL     1       5.669   3.485  16.492  0.00  0.00    +0.000 OA
BRANCH  25  26
ATOM     26  C   UNL     1       5.320   4.030  15.196  0.00  0.00    +0.000 C 
BRANCH  26  27
ATOM     27  C   UNL     1       6.498   4.077  14.215  0.00  0.00    +0.000 C 
ATOM     28  C   UNL     1       6.125   3.617  12.816  0.00  0.00    +0.000 C 
BRANCH  27  29
ATOM     29  O   UNL     1       7.063   5.384  14.148  0.00  0.00    +0.000 OA
ATOM     30  H   UNL     1       6.479   5.915  13.580  0.00  0.00    +0.000 HD
ENDBRANCH  27  29
ENDBRANCH  26  27
ENDBRANCH  25  26
ENDBRANCH   2  25
TORSDOF 6
ENDMDL
MODEL 3
REMARK VINA RESULT:      -7.8      1.369      1.818
REMARK  Name = 
REMARK  9 active torsions:
REMARK  status: ('A' for Active; 'I' for Inactive)
REMARK    1  A    between atoms: C_1  and  C_2
REMARK    2  A    between atoms: C_2  and  C_3
REMARK    3  A    between atoms: C_2  and  C_4
REMARK    4  A    between atoms: C_5  and  O_6
REMARK    5  A    between atoms: O_6  and  C_7
REMARK    6  A    between atoms: C_7  and  C_8
REMARK    7  A    between atoms: C_8  and  C_9
REMARK    8  A    between atoms: C_8  and  O_10
REMARK    9  A    between atoms: N_17  and  C_18
REMARK                            x       y       z     vdW  Elec       q    Type
REMARK                         _______ _______ _______ _____ _____    ______ ____
ROOT
ATOM      1  C   UNL     1       5.220   5.088  17.563  0.00  0.00    +0.000 A 
ATOM      2  C   UNL     1       5.565   4.176  16.495  0.00  0.00    +0.000 A 
ATOM      3  C   UNL     1       4.522   3.301  16.342  0.00  0.00    +0.000 A 
ATOM      4  N   UNL     1       3.511   3.700  17.150  0.00  0.00    +0.000 N 
ATOM      5  N   UNL     1       2.306   3.117  17.163  0.00  0.00    +0.000 NA
ATOM      6  C   UNL     1       1.465   3.680  17.948  0.00  0.00    +0.000 A 
ATOM      7  N   UNL     1       1.689   4.786  18.721  0.00  0.00    +0.000 NA
ATOM      8  C   UNL     1       2.852   5.367  18.725  0.00  0.00    +0.000 A 
ATOM      9  N   UNL     1       3.054   6.484  19.502  0.00  0.00    +0.000 N 
ATOM     10  C   UNL     1       3.880   4.795  17.882  0.00  0.00    +0.000 A 
ATOM     11  H   UNL     1       4.005   6.799  19.586  0.00  0.00    +0.000 HD
ENDROOT
BRANCH   9  12
ATOM     12  C   UNL     1       2.136   7.498  19.846  0.00  0.00    +0.000 A 
ATOM     13  C   UNL     1       1.468   7.597  21.071  0.00  0.00    +0.000 A 
ATOM     14  N   UNL     1       0.615   8.583  21.458  0.00  0.00    +0.000 NA
ATOM     15  C   UNL     1       0.460   9.529  20.519  0.00  0.00    +0.000 A 
ATOM     16  N   UNL     1      -0.311  10.648  20.670  0.00  0.00    +0.000 N 
ATOM     17  C   UNL     1      -0.254  11.406  19.530  0.00  0.00    +0.000 A 
ATOM     18  C   UNL     1       0.566  10.757  18.629  0.00  0.00    +0.000 A 
ATOM     19  C   UNL     1       1.038   9.574  19.259  0.00  0.00    +0.000 A 
ATOM     20  C   UNL     1       1.907   8.526  18.914  0.00  0.00    +0.000 A 
ATOM     21  H   UNL     1      -0.821  10.861  21.515  0.00  0.00    +0.000 HD
ENDBRANCH   9  12
BRANCH   1  23
ATOM     22  C   UNL     1       7.458   5.574  18.679  0.00  0.00    +0.000 C 
ATOM     23  C   UNL     1       6.151   6.150  18.120  0.00  0.00    +0.000 C 
ATOM     24  C   UNL     1       6.392   7.318  17.150  0.00  0.00    +0.000 C 
ENDBRANCH   1  23
BRANCH   2  25
ATOM     25  O   UNL     1       6.708   4.162  15.747  0.00  0.00    +0.000 OA
BRANCH  25  26
ATOM     26  C   UNL     1       6.550   4.848  14.481  0.00  0.00    +0.000 C 
BRANCH  26  27
ATOM     27  C   UNL     1       6.611   3.911  13.267  0.00  0.00    +0.000 C 
ATOM     28  C   UNL     1       5.239   3.565  12.714  0.00  0.00    +0.000 C 
BRANCH  27  29
ATOM     29  O   UNL     1       7.414   4.466  12.228  0.00  0.00    +0.000 OA
ATOM     30  H   UNL     1       7.888   5.223  12.612  0.00  0.00    +0.000 HD
ENDBRANCH  27  29
ENDBRANCH  26  27
ENDBRANCH  25  26
ENDBRANCH   2  25
TORSDOF 6
ENDMDL
MODEL 4
REMARK VINA RESULT:      -7.5      1.097      1.172
REMARK  Name = 
REMARK  9 active torsions:
REMARK  status: ('A' for Active; 'I' for Inactive)
REMARK    1  A    between atoms: C_1  and  C_2
REMARK    2  A    between atoms: C_2  and  C_3
REMARK    3  A    between atoms: C_2  and  C_4
REMARK    4  A    between atoms: C_5  and  O_6
REMARK    5  A    between atoms: O_6  and  C_7
REMARK    6  A    between atoms: C_7  and  C_8
REMARK    7  A    between atoms: C_8  and  C_9
REMARK    8  A    between atoms: C_8  and  O_10
REMARK    9  A    between atoms: N_17  and  C_18
REMARK                            x       y       z     vdW  Elec       q    Type
REMARK                         _______ _______ _______ _____ _____    ______ ____
ROOT
ATOM      1  C   UNL     1       5.215   5.059  17.716  0.00  0.00    +0.000 A 
ATOM      2  C   UNL     1       5.534   4.118  16.665  0.00  0.00    +0.000 A 
ATOM      3  C   UNL     1       4.446   3.303  16.493  0.00  0.00    +0.000 A 
ATOM      4  N   UNL     1       3.440   3.767  17.270  0.00  0.00    +0.000 N 
ATOM      5  N   UNL     1       2.204   3.254  17.257  0.00  0.00    +0.000 NA
ATOM      6  C   UNL     1       1.377   3.873  18.015  0.00  0.00    +0.000 A 
ATOM      7  N   UNL     1       1.644   4.973  18.784  0.00  0.00    +0.000 NA
ATOM      8  C   UNL     1       2.838   5.487  18.812  0.00  0.00    +0.000 A 
ATOM      9  N   UNL     1       3.084   6.598  19.584  0.00  0.00    +0.000 N 
ATOM     10  C   UNL     1       3.853   4.847  18.002  0.00  0.00    +0.000 A 
ATOM     11  H   UNL     1       4.049   6.859  19.690  0.00  0.00    +0.000 HD
ENDROOT
BRANCH   9  12
ATOM     12  C   UNL     1       2.217   7.666  19.895  0.00  0.00    +0.000 A 
ATOM     13  C   UNL     1       1.745   8.612  18.978  0.00  0.00    +0.000 A 
ATOM     14  N   UNL     1       0.871   9.624  19.227  0.00  0.00    +0.000 NA
ATOM     15  C   UNL     1       0.454   9.643  20.502  0.00  0.00    +0.000 A 
ATOM     16  N   UNL     1      -0.456  10.533  21.003  0.00  0.00    +0.000 N 
ATOM     17  C   UNL     1      -0.663  10.282  22.335  0.00  0.00    +0.000 A 
ATOM     18  C   UNL     1       0.133   9.212  22.693  0.00  0.00    +0.000 A 
ATOM     19  C   UNL     1       0.829   8.790  21.529  0.00  0.00    +0.000 A 
ATOM     20  C   UNL     1       1.738   7.767  21.212  0.00  0.00    +0.000 A 
ATOM     21  H   UNL     1      -0.901  11.247  20.445  0.00  0.00    +0.000 HD
ENDBRANCH   9  12
BRANCH   1  23
ATOM     22  C   UNL     1       7.521   5.447  18.727  0.00  0.00    +0.000 C 
ATOM     23  C   UNL     1       6.191   6.073  18.287  0.00  0.00    +0.000 C 
ATOM     24  C   UNL     1       6.390   7.302  17.386  0.00  0.00    +0.000 C 
ENDBRANCH   1  23
BRANCH   2  25
ATOM     25  O   UNL     1       6.693   4.031  15.948  0.00  0.00    +0.000 OA
BRANCH  25  26
ATOM     26  C   UNL     1       6.786   5.047  14.920  0.00  0.00    +0.000 C 
BRANCH  26  27
ATOM     27  C   UNL     1       6.544   4.508  13.504  0.00  0.00    +0.000 C 
ATOM     28  C   UNL     1       7.658   4.864  12.534  0.00  0.00    +0.000 C 
BRANCH  27  29
ATOM     29  O   UNL     1       6.360   3.094  13.515  0.00  0.00    +0.000 OA
ATOM     30  H   UNL     1       7.207   2.698  13.247  0.00  0.00    +0.000 HD
ENDBRANCH  27  29
ENDBRANCH  26  27
ENDBRANCH  25  26
ENDBRANCH   2  25
TORSDOF 6
ENDMDL
MODEL 5
REMARK VINA RESULT:      -7.4      1.120      1.418
REMARK  Name = 
REMARK  9 active torsions:
REMARK  status: ('A' for Active; 'I' for Inactive)
REMARK    1  A    between atoms: C_1  and  C_2
REMARK    2  A    between atoms: C_2  and  C_3
REMARK    3  A    between atoms: C_2  and  C_4
REMARK    4  A    between atoms: C_5  and  O_6
REMARK    5  A    between atoms: O_6  and  C_7
REMARK    6  A    between atoms: C_7  and  C_8
REMARK    7  A    between atoms: C_8  and  C_9
REMARK    8  A    between atoms: C_8  and  O_10
REMARK    9  A    between atoms: N_17  and  C_18
REMARK                            x       y       z     vdW  Elec       q    Type
REMARK                         _______ _______ _______ _____ _____    ______ ____
ROOT
ATOM      1  C   UNL     1       5.082   4.798  17.177  0.00  0.00    +0.000 A 
ATOM      2  C   UNL     1       5.280   3.750  16.200  0.00  0.00    +0.000 A 
ATOM      3  C   UNL     1       4.205   2.904  16.273  0.00  0.00    +0.000 A 
ATOM      4  N   UNL     1       3.303   3.438  17.131  0.00  0.00    +0.000 N 
ATOM      5  N   UNL     1       2.093   2.908  17.349  0.00  0.00    +0.000 NA
ATOM      6  C   UNL     1       1.362   3.595  18.145  0.00  0.00    +0.000 A 
ATOM      7  N   UNL     1       1.700   4.777  18.744  0.00  0.00    +0.000 NA
ATOM      8  C   UNL     1       2.870   5.309  18.547  0.00  0.00    +0.000 A 
ATOM      9  N   UNL     1       3.187   6.504  19.151  0.00  0.00    +0.000 N 
ATOM     10  C   UNL     1       3.780   4.598  17.675  0.00  0.00    +0.000 A 
ATOM     11  H   UNL     1       4.148   6.789  19.090  0.00  0.00    +0.000 HD
ENDROOT
BRANCH   9  12
ATOM     12  C   UNL     1       2.339   7.586  19.464  0.00  0.00    +0.000 A 
ATOM     13  C   UNL     1       1.923   8.570  18.560  0.00  0.00    +0.000 A 
ATOM     14  N   UNL     1       1.069   9.598  18.809  0.00  0.00    +0.000 NA
ATOM     15  C   UNL     1       0.611   9.594  20.070  0.00  0.00    +0.000 A 
ATOM     16  N   UNL     1      -0.291  10.495  20.567  0.00  0.00    +0.000 N 
ATOM     17  C   UNL     1      -0.548  10.212  21.884  0.00  0.00    +0.000 A 
ATOM     18  C   UNL     1       0.206   9.111  22.237  0.00  0.00    +0.000 A 
ATOM     19  C   UNL     1       0.929   8.703  21.084  0.00  0.00    +0.000 A 
ATOM     20  C   UNL     1       1.819   7.663  20.768  0.00  0.00    +0.000 A 
ATOM     21  H   UNL     1      -0.697  11.236  20.016  0.00  0.00    +0.000 HD
ENDBRANCH   9  12
BRANCH   1  23
ATOM     22  C   UNL     1       5.607   7.290  17.127  0.00  0.00    +0.000 C 
ATOM     23  C   UNL     1       6.097   5.883  17.491  0.00  0.00    +0.000 C 
ATOM     24  C   UNL     1       6.648   5.805  18.924  0.00  0.00    +0.000 C 
ENDBRANCH   1  23
BRANCH   2  25
ATOM     25  O   UNL     1       6.330   3.601  15.339  0.00  0.00    +0.000 OA
BRANCH  25  26
ATOM     26  C   UNL     1       6.174   4.387  14.133  0.00  0.00    +0.000 C 
BRANCH  26  27
ATOM     27  C   UNL     1       6.336   3.570  12.844  0.00  0.00    +0.000 C 
ATOM     28  C   UNL     1       5.018   3.310  12.136  0.00  0.00    +0.000 C 
BRANCH  27  29
ATOM     29  O   UNL     1       7.241   4.203  11.943  0.00  0.00    +0.000 OA
ATOM     30  H   UNL     1       7.014   5.148  11.933  0.00  0.00    +0.000 HD
ENDBRANCH  27  29
ENDBRANCH  26  27
ENDBRANCH  25  26
ENDBRANCH   2  25
TORSDOF 6
ENDMDL
MODEL 6
REMARK VINA RESULT:      -7.2      1.667      2.275
REMARK  Name = 
REMARK  9 active torsions:
REMARK  status: ('A' for Active; 'I' for Inactive)
REMARK    1  A    between atoms: C_1  and  C_2
REMARK    2  A    between atoms: C_2  and  C_3
REMARK    3  A    between atoms: C_2  and  C_4
REMARK    4  A    between atoms: C_5  and  O_6
REMARK    5  A    between atoms: O_6  and  C_7
REMARK    6  A    between atoms: C_7  and  C_8
REMARK    7  A    between atoms: C_8  and  C_9
REMARK    8  A    between atoms: C_8  and  O_10
REMARK    9  A    between atoms: N_17  and  C_18
REMARK                            x       y       z     vdW  Elec       q    Type
REMARK                         _______ _______ _______ _____ _____    ______ ____
ROOT
ATOM      1  C   UNL     1       4.672   5.748  18.067  0.00  0.00    +0.000 A 
ATOM      2  C   UNL     1       5.114   4.403  17.767  0.00  0.00    +0.000 A 
ATOM      3  C   UNL     1       4.488   3.555  18.641  0.00  0.00    +0.000 A 
ATOM      4  N   UNL     1       3.595   4.272  19.363  0.00  0.00    +0.000 N 
ATOM      5  N   UNL     1       2.744   3.721  20.238  0.00  0.00    +0.000 NA
ATOM      6  C   UNL     1       1.935   4.558  20.772  0.00  0.00    +0.000 A 
ATOM      7  N   UNL     1       1.866   5.900  20.516  0.00  0.00    +0.000 NA
ATOM      8  C   UNL     1       2.682   6.456  19.670  0.00  0.00    +0.000 A 
ATOM      9  N   UNL     1       2.590   7.805  19.419  0.00  0.00    +0.000 N 
ATOM     10  C   UNL     1       3.652   5.596  19.025  0.00  0.00    +0.000 A 
ATOM     11  H   UNL     1       3.337   8.207  18.881  0.00  0.00    +0.000 HD
ENDROOT
BRANCH   9  12
ATOM     12  C   UNL     1       1.443   8.625  19.416  0.00  0.00    +0.000 A 
ATOM     13  C   UNL     1       0.922   9.285  20.533  0.00  0.00    +0.000 A 
ATOM     14  N   UNL     1      -0.150  10.122  20.561  0.00  0.00    +0.000 NA
ATOM     15  C   UNL     1      -0.703  10.292  19.350  0.00  0.00    +0.000 A 
ATOM     16  N   UNL     1      -1.767  11.113  19.096  0.00  0.00    +0.000 N 
ATOM     17  C   UNL     1      -2.083  11.059  17.763  0.00  0.00    +0.000 A 
ATOM     18  C   UNL     1      -1.206  10.184  17.154  0.00  0.00    +0.000 A 
ATOM     19  C   UNL     1      -0.316   9.709  18.153  0.00  0.00    +0.000 A 
ATOM     20  C   UNL     1       0.796   8.850  18.188  0.00  0.00    +0.000 A 
ATOM     21  H   UNL     1      -2.218  11.673  19.804  0.00  0.00    +0.000 HD
ENDBRANCH   9  12
BRANCH   1  23
ATOM     22  C   UNL     1       6.736   7.117  17.473  0.00  0.00    +0.000 C 
ATOM     23  C   UNL     1       5.209   6.999  17.394  0.00  0.00    +0.000 C 
ATOM     24  C   UNL     1       4.677   7.198  15.965  0.00  0.00    +0.000 C 
ENDBRANCH   1  23
BRANCH   2  25
ATOM     25  O   UNL     1       5.988   4.011  16.793  0.00  0.00    +0.000 OA
BRANCH  25  26
ATOM     26  C   UNL     1       5.315   3.582  15.584  0.00  0.00    +0.000 C 
BRANCH  26  27
ATOM     27  C   UNL     1       5.920   4.174  14.304  0.00  0.00    +0.000 C 
ATOM     28  C   UNL     1       7.190   4.966  14.558  0.00  0.00    +0.000 C 
BRANCH  27  29
ATOM     29  O   UNL     1       6.181   3.157  13.339  0.00  0.00    +0.000 OA
ATOM     30  H   UNL     1       5.964   2.308  13.760  0.00  0.00    +0.000 HD
ENDBRANCH  27  29
ENDBRANCH  26  27
ENDBRANCH  25  26
ENDBRANCH   2  25
TORSDOF 6
ENDMDL
MODEL 7
REMARK VINA RESULT:      -7.1      1.120      1.766
REMARK  Name = 
REMARK  9 active torsions:
REMARK  status: ('A' for Active; 'I' for Inactive)
REMARK    1  A    between atoms: C_1  and  C_2
REMARK    2  A    between atoms: C_2  and  C_3
REMARK    3  A    between atoms: C_2  and  C_4
REMARK    4  A    between atoms: C_5  and  O_6
REMARK    5  A    between atoms: O_6  and  C_7
REMARK    6  A    between atoms: C_7  and  C_8
REMARK    7  A    between atoms: C_8  and  C_9
REMARK    8  A    between atoms: C_8  and  O_10
REMARK    9  A    between atoms: N_17  and  C_18
REMARK                            x       y       z     vdW  Elec       q    Type
REMARK                         _______ _______ _______ _____ _____    ______ ____
ROOT
ATOM      1  C   UNL     1       4.785   4.671  17.564  0.00  0.00    +0.000 A 
ATOM      2  C   UNL     1       4.955   3.595  16.612  0.00  0.00    +0.000 A 
ATOM      3  C   UNL     1       3.900   2.735  16.765  0.00  0.00    +0.000 A 
ATOM      4  N   UNL     1       3.031   3.281  17.648  0.00  0.00    +0.000 N 
ATOM      5  N   UNL     1       1.843   2.738  17.941  0.00  0.00    +0.000 NA
ATOM      6  C   UNL     1       1.138   3.439  18.749  0.00  0.00    +0.000 A 
ATOM      7  N   UNL     1       1.483   4.646  19.293  0.00  0.00    +0.000 NA
ATOM      8  C   UNL     1       2.632   5.190  19.022  0.00  0.00    +0.000 A 
ATOM      9  N   UNL     1       2.956   6.409  19.572  0.00  0.00    +0.000 N 
ATOM     10  C   UNL     1       3.513   4.466  18.130  0.00  0.00    +0.000 A 
ATOM     11  H   UNL     1       3.908   6.708  19.455  0.00  0.00    +0.000 HD
ENDROOT
BRANCH   9  12
ATOM     12  C   UNL     1       2.104   7.487  19.890  0.00  0.00    +0.000 A 
ATOM     13  C   UNL     1       1.485   7.685  21.129  0.00  0.00    +0.000 A 
ATOM     14  N   UNL     1       0.699   8.734  21.490  0.00  0.00    +0.000 NA
ATOM     15  C   UNL     1       0.562   9.638  20.508  0.00  0.00    +0.000 A 
ATOM     16  N   UNL     1      -0.143  10.804  20.625  0.00  0.00    +0.000 N 
ATOM     17  C   UNL     1      -0.086  11.499  19.444  0.00  0.00    +0.000 A 
ATOM     18  C   UNL     1       0.668  10.761  18.554  0.00  0.00    +0.000 A 
ATOM     19  C   UNL     1       1.098   9.588  19.230  0.00  0.00    +0.000 A 
ATOM     20  C   UNL     1       1.898   8.477  18.914  0.00  0.00    +0.000 A 
ATOM     21  H   UNL     1      -0.611  11.088  21.473  0.00  0.00    +0.000 HD
ENDBRANCH   9  12
BRANCH   1  23
ATOM     22  C   UNL     1       5.282   7.161  17.356  0.00  0.00    +0.000 C 
ATOM     23  C   UNL     1       5.794   5.784  17.793  0.00  0.00    +0.000 C 
ATOM     24  C   UNL     1       6.373   5.796  19.218  0.00  0.00    +0.000 C 
ENDBRANCH   1  23
BRANCH   2  25
ATOM     25  O   UNL     1       5.965   3.436  15.707  0.00  0.00    +0.000 OA
BRANCH  25  26
ATOM     26  C   UNL     1       5.674   4.066  14.435  0.00  0.00    +0.000 C 
BRANCH  26  27
ATOM     27  C   UNL     1       6.893   4.164  13.508  0.00  0.00    +0.000 C 
ATOM     28  C   UNL     1       6.617   3.646  12.107  0.00  0.00    +0.000 C 
BRANCH  27  29
ATOM     29  O   UNL     1       7.375   5.504  13.431  0.00  0.00    +0.000 OA
ATOM     30  H   UNL     1       7.343   5.867  14.332  0.00  0.00    +0.000 HD
ENDBRANCH  27  29
ENDBRANCH  26  27
ENDBRANCH  25  26
ENDBRANCH   2  25
TORSDOF 6
ENDMDL
MODEL 8
REMARK VINA RESULT:      -6.9      1.109      1.279
REMARK  Name = 
REMARK  9 active torsions:
REMARK  status: ('A' for Active; 'I' for Inactive)
REMARK    1  A    between atoms: C_1  and  C_2
REMARK    2  A    between atoms: C_2  and  C_3
REMARK    3  A    between atoms: C_2  and  C_4
REMARK    4  A    between atoms: C_5  and  O_6
REMARK    5  A    between atoms: O_6  and  C_7
REMARK    6  A    between atoms: C_7  and  C_8
REMARK    7  A    between atoms: C_8  and  C_9
REMARK    8  A    between atoms: C_8  and  O_10
REMARK    9  A    between atoms: N_17  and  C_18
REMARK                            x       y       z     vdW  Elec       q    Type
REMARK                         _______ _______ _______ _____ _____    ______ ____
ROOT
ATOM      1  C   UNL     1       4.536   5.488  17.980  0.00  0.00    +0.000 A 
ATOM      2  C   UNL     1       4.801   4.134  17.548  0.00  0.00    +0.000 A 
ATOM      3  C   UNL     1       3.988   3.300  18.271  0.00  0.00    +0.000 A 
ATOM      4  N   UNL     1       3.152   4.063  19.014  0.00  0.00    +0.000 N 
ATOM      5  N   UNL     1       2.161   3.556  19.758  0.00  0.00    +0.000 NA
ATOM      6  C   UNL     1       1.441   4.443  20.336  0.00  0.00    +0.000 A 
ATOM      7  N   UNL     1       1.588   5.800  20.241  0.00  0.00    +0.000 NA
ATOM      8  C   UNL     1       2.544   6.313  19.525  0.00  0.00    +0.000 A 
ATOM      9  N   UNL     1       2.670   7.680  19.434  0.00  0.00    +0.000 N 
ATOM     10  C   UNL     1       3.428   5.391  18.844  0.00  0.00    +0.000 A 
ATOM     11  H   UNL     1       3.510   8.019  18.999  0.00  0.00    +0.000 HD
ENDROOT
BRANCH   9  12
ATOM     12  C   UNL     1       1.658   8.662  19.455  0.00  0.00    +0.000 A 
ATOM     13  C   UNL     1       1.013   9.177  18.326  0.00  0.00    +0.000 A 
ATOM     14  N   UNL     1       0.001  10.086  18.307  0.00  0.00    +0.000 NA
ATOM     15  C   UNL     1      -0.370  10.470  19.538  0.00  0.00    +0.000 A 
ATOM     16  N   UNL     1      -1.389  11.344  19.800  0.00  0.00    +0.000 N 
ATOM     17  C   UNL     1      -1.507  11.522  21.154  0.00  0.00    +0.000 A 
ATOM     18  C   UNL     1      -0.543  10.751  21.770  0.00  0.00    +0.000 A 
ATOM     19  C   UNL     1       0.170  10.065  20.750  0.00  0.00    +0.000 A 
ATOM     20  C   UNL     1       1.215   9.128  20.705  0.00  0.00    +0.000 A 
ATOM     21  H   UNL     1      -1.959  11.764  19.081  0.00  0.00    +0.000 HD
ENDBRANCH   9  12
BRANCH   1  23
ATOM     22  C   UNL     1       6.818   6.585  17.701  0.00  0.00    +0.000 C 
ATOM     23  C   UNL     1       5.303   6.709  17.501  0.00  0.00    +0.000 C 
ATOM     24  C   UNL     1       4.932   7.139  16.072  0.00  0.00    +0.000 C 
ENDBRANCH   1  23
BRANCH   2  25
ATOM     25  O   UNL     1       5.687   3.722  16.593  0.00  0.00    +0.000 OA
BRANCH  25  26
ATOM     26  C   UNL     1       5.077   3.605  15.285  0.00  0.00    +0.000 C 
BRANCH  26  27
ATOM     27  C   UNL     1       5.948   4.160  14.151  0.00  0.00    +0.000 C 
ATOM     28  C   UNL     1       7.243   4.781  14.646  0.00  0.00    +0.000 C 
BRANCH  27  29
ATOM     29  O   UNL     1       6.244   3.152  13.187  0.00  0.00    +0.000 OA
ATOM     30  H   UNL     1       6.515   2.360  13.682  0.00  0.00    +0.000 HD
ENDBRANCH  27  29
ENDBRANCH  26  27
ENDBRANCH  25  26
ENDBRANCH   2  25
TORSDOF 6
ENDMDL
MODEL 9
REMARK VINA RESULT:      -6.8      1.371      2.085
REMARK  Name = 
REMARK  9 active torsions:
REMARK  status: ('A' for Active; 'I' for Inactive)
REMARK    1  A    between atoms: C_1  and  C_2
REMARK    2  A    between atoms: C_2  and  C_3
REMARK    3  A    between atoms: C_2  and  C_4
REMARK    4  A    between atoms: C_5  and  O_6
REMARK    5  A    between atoms: O_6  and  C_7
REMARK    6  A    between atoms: C_7  and  C_8
REMARK    7  A    between atoms: C_8  and  C_9
REMARK    8  A    between atoms: C_8  and  O_10
REMARK    9  A    between atoms: N_17  and  C_18
REMARK                            x       y       z     vdW  Elec       q    Type
REMARK                         _______ _______ _______ _____ _____    ______ ____
ROOT
ATOM      1  C   UNL     1       3.713   5.610  17.809  0.00  0.00    +0.000 A 
ATOM      2  C   UNL     1       3.829   4.345  17.117  0.00  0.00    +0.000 A 
ATOM      3  C   UNL     1       3.283   3.380  17.921  0.00  0.00    +0.000 A 
ATOM      4  N   UNL     1       2.722   3.987  18.994  0.00  0.00    +0.000 N 
ATOM      5  N   UNL     1       2.014   3.333  19.922  0.00  0.00    +0.000 NA
ATOM      6  C   UNL     1       1.511   4.093  20.822  0.00  0.00    +0.000 A 
ATOM      7  N   UNL     1       1.622   5.455  20.892  0.00  0.00    +0.000 NA
ATOM      8  C   UNL     1       2.306   6.110  20.001  0.00  0.00    +0.000 A 
ATOM      9  N   UNL     1       2.398   7.480  20.084  0.00  0.00    +0.000 N 
ATOM     10  C   UNL     1       2.932   5.338  18.949  0.00  0.00    +0.000 A 
ATOM     11  H   UNL     1       3.059   7.917  19.466  0.00  0.00    +0.000 HD
ENDROOT
BRANCH   9  12
ATOM     12  C   UNL     1       1.444   8.400  20.565  0.00  0.00    +0.000 A 
ATOM     13  C   UNL     1       1.096   8.569  21.909  0.00  0.00    +0.000 A 
ATOM     14  N   UNL     1       0.220   9.477  22.417  0.00  0.00    +0.000 NA
ATOM     15  C   UNL     1      -0.314  10.265  21.472  0.00  0.00    +0.000 A 
ATOM     16  N   UNL     1      -1.192  11.284  21.720  0.00  0.00    +0.000 N 
ATOM     17  C   UNL     1      -1.544  11.888  20.541  0.00  0.00    +0.000 A 
ATOM     18  C   UNL     1      -0.880  11.240  19.518  0.00  0.00    +0.000 A 
ATOM     19  C   UNL     1      -0.084  10.222  20.104  0.00  0.00    +0.000 A 
ATOM     20  C   UNL     1       0.828   9.260  19.638  0.00  0.00    +0.000 A 
ATOM     21  H   UNL     1      -1.502  11.536  22.647  0.00  0.00    +0.000 HD
ENDBRANCH   9  12
BRANCH   1  23
ATOM     22  C   UNL     1       3.263   8.058  17.268  0.00  0.00    +0.000 C 
ATOM     23  C   UNL     1       4.292   6.921  17.307  0.00  0.00    +0.000 C 
ATOM     24  C   UNL     1       5.591   7.328  18.023  0.00  0.00    +0.000 C 
ENDBRANCH   1  23
BRANCH   2  25
ATOM     25  O   UNL     1       4.371   4.117  15.884  0.00  0.00    +0.000 OA
BRANCH  25  26
ATOM     26  C   UNL     1       5.722   3.601  15.960  0.00  0.00    +0.000 C 
BRANCH  26  27
ATOM     27  C   UNL     1       6.784   4.693  16.145  0.00  0.00    +0.000 C 
ATOM     28  C   UNL     1       7.635   4.490  17.387  0.00  0.00    +0.000 C 
BRANCH  27  29
ATOM     29  O   UNL     1       7.631   4.787  15.002  0.00  0.00    +0.000 OA
ATOM     30  H   UNL     1       8.206   5.560  15.140  0.00  0.00    +0.000 HD
ENDBRANCH  27  29
ENDBRANCH  26  27
ENDBRANCH  25  26
ENDBRANCH   2  25
TORSDOF 6
ENDMDL
