MODEL 1
REMARK VINA RESULT:      -7.0      0.000      0.000
REMARK  Name = 
REMARK  11 active torsions:
REMARK  status: ('A' for Active; 'I' for Inactive)
REMARK    1  A    between atoms: C_2  and  O_3
REMARK    2  A    between atoms: C_2  and  C_4
REMARK    3  A    between atoms: C_4  and  N_5
REMARK    4  A    between atoms: C_8  and  N_9
REMARK    5  A    between atoms: C_10  and  C_12
REMARK    6  A    between atoms: C_12  and  S_13
REMARK    7  A    between atoms: C_12  and  C_14
REMARK    8  A    between atoms: C_14  and  C_15
REMARK    9  A    between atoms: C_24  and  C_25
REMARK   10  A    between atoms: C_25  and  C_26
REMARK   11  A    between atoms: C_26  and  O_27
REMARK                            x       y       z     vdW  Elec       q    Type
REMARK                         _______ _______ _______ _____ _____    ______ ____
ROOT
ATOM      1  N   UNL     1       4.744   4.668  17.352  0.00  0.00    +0.000 N 
ATOM      2  C   UNL     1       3.996   5.841  17.442  0.00  0.00    +0.000 C 
ATOM      3  O   UNL     1       4.310   6.847  16.795  0.00  0.00    +0.000 OA
ATOM      4  C   UNL     1       2.741   5.859  18.335  0.00  0.00    +0.000 C 
ATOM      5  C   UNL     1       1.647   4.965  17.761  0.00  0.00    +0.000 C 
ATOM      6  C   UNL     1       1.815   3.500  18.154  0.00  0.00    +0.000 C 
ATOM      7  C   UNL     1       3.062   2.825  17.595  0.00  0.00    +0.000 C 
ATOM      8  C   UNL     1       4.425   3.387  18.041  0.00  0.00    +0.000 C 
ENDROOT
BRANCH   4   9
ATOM      9  N   UNL     1       2.272   7.232  18.511  0.00  0.00    +0.000 N 
ATOM     10  C   UNL     1       1.853   7.673  19.749  0.00  0.00    +0.000 C 
ATOM     11  O   UNL     1       1.760   6.907  20.708  0.00  0.00    +0.000 OA
ATOM     12  H   UNL     1       2.351   7.870  17.722  0.00  0.00    +0.000 HD
BRANCH  10  13
ATOM     13  C   UNL     1       1.521   9.163  19.847  0.00  0.00    +0.000 C 
BRANCH  13  14
ATOM     14  S   UNL     1       1.342   9.819  18.142  0.00  0.00    +0.000 S 
ATOM     15  H   UNL     1       1.982  10.977  18.362  0.00  0.00    +0.000 HD
ENDBRANCH  13  14
BRANCH  13  16
ATOM     16  C   UNL     1       0.237   9.336  20.681  0.00  0.00    +0.000 C 
BRANCH  16  17
ATOM     17  C   UNL     1       0.010  10.706  21.274  0.00  0.00    +0.000 A 
ATOM     18  C   UNL     1       0.683  11.816  20.742  0.00  0.00    +0.000 A 
ATOM     19  C   UNL     1       0.470  13.092  21.262  0.00  0.00    +0.000 A 
ATOM     20  C   UNL     1      -0.422  13.275  22.317  0.00  0.00    +0.000 A 
ATOM     21  C   UNL     1      -1.103  12.182  22.848  0.00  0.00    +0.000 A 
ATOM     22  C   UNL     1      -0.893  10.903  22.327  0.00  0.00    +0.000 A 
ENDBRANCH  16  17
ENDBRANCH  13  16
ENDBRANCH  10  13
ENDBRANCH   4   9
BRANCH   1  23
ATOM     23  C   UNL     1       6.072   4.741  16.693  0.00  0.00    +0.000 C 
BRANCH  23  25
ATOM     24  O   UNL     1       7.899   4.425  18.270  0.00  0.00    +0.000 OA
ATOM     25  C   UNL     1       7.218   5.191  17.606  0.00  0.00    +0.000 C 
BRANCH  25  26
ATOM     26  O   UNL     1       7.355   6.535  17.677  0.00  0.00    +0.000 OA
ATOM     27  H   UNL     1       8.199   6.769  18.111  0.00  0.00    +0.000 HD
ENDBRANCH  25  26
ENDBRANCH  23  25
ENDBRANCH   1  23
BRANCH   8  28
ATOM     28  C   UNL     1       4.674   3.431  19.563  0.00  0.00    +0.000 C 
BRANCH  28  29
ATOM     29  C   UNL     1       4.319   2.135  20.284  0.00  0.00    +0.000 C 
BRANCH  29  30
ATOM     30  O   UNL     1       5.331   1.165  20.038  0.00  0.00    +0.000 OA
ATOM     31  H   UNL     1       4.967   0.286  20.238  0.00  0.00    +0.000 HD
ENDBRANCH  29  30
ENDBRANCH  28  29
ENDBRANCH   8  28
TORSDOF 11
ENDMDL
MODEL 2
REMARK VINA RESULT:      -7.0      0.894      1.135
REMARK  Name = 
REMARK  11 active torsions:
REMARK  status: ('A' for Active; 'I' for Inactive)
REMARK    1  A    between atoms: C_2  and  O_3
REMARK    2  A    between atoms: C_2  and  C_4
REMARK    3  A    between atoms: C_4  and  N_5
REMARK    4  A    between atoms: C_8  and  N_9
REMARK    5  A    between atoms: C_10  and  C_12
REMARK    6  A    between atoms: C_12  and  S_13
REMARK    7  A    between atoms: C_12  and  C_14
REMARK    8  A    between atoms: C_14  and  C_15
REMARK    9  A    between atoms: C_24  and  C_25
REMARK   10  A    between atoms: C_25  and  C_26
REMARK   11  A    between atoms: C_26  and  O_27
REMARK                            x       y       z     vdW  Elec       q    Type
REMARK                         _______ _______ _______ _____ _____    ______ ____
ROOT
ATOM      1  N   UNL     1       4.764   4.605  17.409  0.00  0.00    +0.000 N 
ATOM      2  C   UNL     1       4.042   5.797  17.452  0.00  0.00    +0.000 C 
ATOM      3  O   UNL     1       4.411   6.788  16.811  0.00  0.00    +0.000 OA
ATOM      4  C   UNL     1       2.746   5.855  18.283  0.00  0.00    +0.000 C 
ATOM      5  C   UNL     1       1.659   4.981  17.663  0.00  0.00    +0.000 C 
ATOM      6  C   UNL     1       1.771   3.516  18.078  0.00  0.00    +0.000 C 
ATOM      7  C   UNL     1       3.027   2.806  17.585  0.00  0.00    +0.000 C 
ATOM      8  C   UNL     1       4.380   3.339  18.093  0.00  0.00    +0.000 C 
ENDROOT
BRANCH   4   9
ATOM      9  N   UNL     1       2.303   7.240  18.424  0.00  0.00    +0.000 N 
ATOM     10  C   UNL     1       1.881   7.717  19.648  0.00  0.00    +0.000 C 
ATOM     11  O   UNL     1       1.764   6.974  20.622  0.00  0.00    +0.000 OA
ATOM     12  H   UNL     1       2.402   7.859  17.622  0.00  0.00    +0.000 HD
BRANCH  10  13
ATOM     13  C   UNL     1       1.578   9.215  19.708  0.00  0.00    +0.000 C 
BRANCH  13  14
ATOM     14  S   UNL     1       1.661   9.882  18.001  0.00  0.00    +0.000 S 
ATOM     15  H   UNL     1       0.444  10.446  18.003  0.00  0.00    +0.000 HD
ENDBRANCH  13  14
BRANCH  13  16
ATOM     16  C   UNL     1       0.194   9.419  20.354  0.00  0.00    +0.000 C 
BRANCH  16  17
ATOM     17  C   UNL     1      -0.320  10.839  20.388  0.00  0.00    +0.000 A 
ATOM     18  C   UNL     1       0.324  11.794  21.188  0.00  0.00    +0.000 A 
ATOM     19  C   UNL     1      -0.123  13.115  21.216  0.00  0.00    +0.000 A 
ATOM     20  C   UNL     1      -1.215  13.498  20.440  0.00  0.00    +0.000 A 
ATOM     21  C   UNL     1      -1.857  12.560  19.634  0.00  0.00    +0.000 A 
ATOM     22  C   UNL     1      -1.409  11.237  19.602  0.00  0.00    +0.000 A 
ENDBRANCH  16  17
ENDBRANCH  13  16
ENDBRANCH  10  13
ENDBRANCH   4   9
BRANCH   1  23
ATOM     23  C   UNL     1       6.123   4.639  16.814  0.00  0.00    +0.000 C 
BRANCH  23  25
ATOM     24  O   UNL     1       7.263   5.734  18.666  0.00  0.00    +0.000 OA
ATOM     25  C   UNL     1       7.259   4.852  17.821  0.00  0.00    +0.000 C 
BRANCH  25  26
ATOM     26  O   UNL     1       8.308   4.018  17.635  0.00  0.00    +0.000 OA
ATOM     27  H   UNL     1       8.593   4.031  16.701  0.00  0.00    +0.000 HD
ENDBRANCH  25  26
ENDBRANCH  23  25
ENDBRANCH   1  23
BRANCH   8  28
ATOM     28  C   UNL     1       4.556   3.393  19.624  0.00  0.00    +0.000 C 
BRANCH  28  29
ATOM     29  C   UNL     1       4.242   2.076  20.327  0.00  0.00    +0.000 C 
BRANCH  29  30
ATOM     30  O   UNL     1       5.348   1.191  20.189  0.00  0.00    +0.000 OA
ATOM     31  H   UNL     1       5.875   1.229  21.005  0.00  0.00    +0.000 HD
ENDBRANCH  29  30
ENDBRANCH  28  29
ENDBRANCH   8  28
TORSDOF 11
ENDMDL
MODEL 3
REMARK VINA RESULT:      -6.9      1.618      2.052
REMARK  Name = 
REMARK  11 active torsions:
REMARK  status: ('A' for Active; 'I' for Inactive)
REMARK    1  A    between atoms: C_2  and  O_3
REMARK    2  A    between atoms: C_2  and  C_4
REMARK    3  A    between atoms: C_4  and  N_5
REMARK    4  A    between atoms: C_8  and  N_9
REMARK    5  A    between atoms: C_10  and  C_12
REMARK    6  A    between atoms: C_12  and  S_13
REMARK    7  A    between atoms: C_12  and  C_14
REMARK    8  A    between atoms: C_14  and  C_15
REMARK    9  A    between atoms: C_24  and  C_25
REMARK   10  A    between atoms: C_25  and  C_26
REMARK   11  A    between atoms: C_26  and  O_27
REMARK                            x       y       z     vdW  Elec       q    Type
REMARK                         _______ _______ _______ _____ _____    ______ ____
ROOT
ATOM      1  N   UNL     1       4.762   4.585  17.365  0.00  0.00    +0.000 N 
ATOM      2  C   UNL     1       4.073   5.796  17.415  0.00  0.00    +0.000 C 
ATOM      3  O   UNL     1       4.445   6.767  16.745  0.00  0.00    +0.000 OA
ATOM      4  C   UNL     1       2.812   5.902  18.293  0.00  0.00    +0.000 C 
ATOM      5  C   UNL     1       1.680   5.049  17.729  0.00  0.00    +0.000 C 
ATOM      6  C   UNL     1       1.768   3.588  18.162  0.00  0.00    +0.000 C 
ATOM      7  C   UNL     1       2.985   2.836  17.635  0.00  0.00    +0.000 C 
ATOM      8  C   UNL     1       4.370   3.340  18.083  0.00  0.00    +0.000 C 
ENDROOT
BRANCH   4   9
ATOM      9  N   UNL     1       2.411   7.301  18.427  0.00  0.00    +0.000 N 
ATOM     10  C   UNL     1       1.912   7.772  19.624  0.00  0.00    +0.000 C 
ATOM     11  O   UNL     1       1.691   7.017  20.571  0.00  0.00    +0.000 OA
ATOM     12  H   UNL     1       2.596   7.929  17.648  0.00  0.00    +0.000 HD
BRANCH  10  13
ATOM     13  C   UNL     1       1.662   9.279  19.692  0.00  0.00    +0.000 C 
BRANCH  13  14
ATOM     14  S   UNL     1       1.966   9.983  18.025  0.00  0.00    +0.000 S 
ATOM     15  H   UNL     1       0.677  10.091  17.673  0.00  0.00    +0.000 HD
ENDBRANCH  13  14
BRANCH  13  16
ATOM     16  C   UNL     1       0.221   9.525  20.181  0.00  0.00    +0.000 C 
BRANCH  16  17
ATOM     17  C   UNL     1      -0.698  10.230  19.212  0.00  0.00    +0.000 A 
ATOM     18  C   UNL     1      -1.058  11.566  19.441  0.00  0.00    +0.000 A 
ATOM     19  C   UNL     1      -1.890  12.240  18.546  0.00  0.00    +0.000 A 
ATOM     20  C   UNL     1      -2.365  11.588  17.410  0.00  0.00    +0.000 A 
ATOM     21  C   UNL     1      -2.006  10.264  17.168  0.00  0.00    +0.000 A 
ATOM     22  C   UNL     1      -1.172   9.588  18.061  0.00  0.00    +0.000 A 
ENDBRANCH  16  17
ENDBRANCH  13  16
ENDBRANCH  10  13
ENDBRANCH   4   9
BRANCH   1  23
ATOM     23  C   UNL     1       6.098   4.573  16.720  0.00  0.00    +0.000 C 
BRANCH  23  25
ATOM     24  O   UNL     1       8.276   4.162  17.726  0.00  0.00    +0.000 OA
ATOM     25  C   UNL     1       7.270   4.852  17.667  0.00  0.00    +0.000 C 
BRANCH  25  26
ATOM     26  O   UNL     1       7.054   5.894  18.501  0.00  0.00    +0.000 OA
ATOM     27  H   UNL     1       7.819   6.501  18.495  0.00  0.00    +0.000 HD
ENDBRANCH  25  26
ENDBRANCH  23  25
ENDBRANCH   1  23
BRANCH   8  28
ATOM     28  C   UNL     1       4.605   3.413  19.606  0.00  0.00    +0.000 C 
BRANCH  28  29
ATOM     29  C   UNL     1       4.308   2.108  20.338  0.00  0.00    +0.000 C 
BRANCH  29  30
ATOM     30  O   UNL     1       5.245   1.116  19.936  0.00  0.00    +0.000 OA
ATOM     31  H   UNL     1       5.503   1.294  19.016  0.00  0.00    +0.000 HD
ENDBRANCH  29  30
ENDBRANCH  28  29
ENDBRANCH   8  28
TORSDOF 11
ENDMDL
MODEL 4
REMARK VINA RESULT:      -6.9      0.992      1.418
REMARK  Name = 
REMARK  11 active torsions:
REMARK  status: ('A' for Active; 'I' for Inactive)
REMARK    1  A    between atoms: C_2  and  O_3
REMARK    2  A    between atoms: C_2  and  C_4
REMARK    3  A    between atoms: C_4  and  N_5
REMARK    4  A    between atoms: C_8  and  N_9
REMARK    5  A    between atoms: C_10  and  C_12
REMARK    6  A    between atoms: C_12  and  S_13
REMARK    7  A    between atoms: C_12  and  C_14
REMARK    8  A    between atoms: C_14  and  C_15
REMARK    9  A    between atoms: C_24  and  C_25
REMARK   10  A    between atoms: C_25  and  C_26
REMARK   11  A    between atoms: C_26  and  O_27
REMARK                            x       y       z     vdW  Elec       q    Type
REMARK                         _______ _______ _______ _____ _____    ______ ____
ROOT
ATOM      1  N   UNL     1       4.918   4.866  17.528  0.00  0.00    +0.000 N 
ATOM      2  C   UNL     1       4.131   6.015  17.607  0.00  0.00    +0.000 C 
ATOM      3  O   UNL     1       4.486   7.068  17.064  0.00  0.00    +0.000 OA
ATOM      4  C   UNL     1       2.784   5.947  18.351  0.00  0.00    +0.000 C 
ATOM      5  C   UNL     1       1.787   5.070  17.601  0.00  0.00    +0.000 C 
ATOM      6  C   UNL     1       1.951   3.586  17.918  0.00  0.00    +0.000 C 
ATOM      7  C   UNL     1       3.272   2.976  17.461  0.00  0.00    +0.000 C 
ATOM      8  C   UNL     1       4.560   3.536  18.094  0.00  0.00    +0.000 C 
ENDROOT
BRANCH   4   9
ATOM      9  N   UNL     1       2.259   7.296  18.560  0.00  0.00    +0.000 N 
ATOM     10  C   UNL     1       1.785   7.676  19.798  0.00  0.00    +0.000 C 
ATOM     11  O   UNL     1       1.691   6.873  20.726  0.00  0.00    +0.000 OA
ATOM     12  H   UNL     1       2.339   7.964  17.797  0.00  0.00    +0.000 HD
BRANCH  10  13
ATOM     13  C   UNL     1       1.395   9.148  19.937  0.00  0.00    +0.000 C 
BRANCH  13  14
ATOM     14  S   UNL     1       1.015   9.796  18.262  0.00  0.00    +0.000 S 
ATOM     15  H   UNL     1      -0.148  10.378  18.590  0.00  0.00    +0.000 HD
ENDBRANCH  13  14
BRANCH  13  16
ATOM     16  C   UNL     1       0.196   9.260  20.898  0.00  0.00    +0.000 C 
BRANCH  16  17
ATOM     17  C   UNL     1      -0.100  10.641  21.433  0.00  0.00    +0.000 A 
ATOM     18  C   UNL     1      -0.984  10.796  22.511  0.00  0.00    +0.000 A 
ATOM     19  C   UNL     1      -1.254  12.061  23.032  0.00  0.00    +0.000 A 
ATOM     20  C   UNL     1      -0.637  13.185  22.487  0.00  0.00    +0.000 A 
ATOM     21  C   UNL     1       0.251  13.043  21.423  0.00  0.00    +0.000 A 
ATOM     22  C   UNL     1       0.524  11.777  20.901  0.00  0.00    +0.000 A 
ENDBRANCH  16  17
ENDBRANCH  13  16
ENDBRANCH  10  13
ENDBRANCH   4   9
BRANCH   1  23
ATOM     23  C   UNL     1       6.308   5.011  17.029  0.00  0.00    +0.000 C 
BRANCH  23  25
ATOM     24  O   UNL     1       5.847   3.863  14.933  0.00  0.00    +0.000 OA
ATOM     25  C   UNL     1       6.489   4.707  15.538  0.00  0.00    +0.000 C 
BRANCH  25  26
ATOM     26  O   UNL     1       7.493   5.407  14.962  0.00  0.00    +0.000 OA
ATOM     27  H   UNL     1       8.321   5.295  15.469  0.00  0.00    +0.000 HD
ENDBRANCH  25  26
ENDBRANCH  23  25
ENDBRANCH   1  23
BRANCH   8  28
ATOM     28  C   UNL     1       4.636   3.485  19.633  0.00  0.00    +0.000 C 
BRANCH  28  29
ATOM     29  C   UNL     1       4.247   2.134  20.226  0.00  0.00    +0.000 C 
BRANCH  29  30
ATOM     30  O   UNL     1       5.416   1.346  20.413  0.00  0.00    +0.000 OA
ATOM     31  H   UNL     1       5.145   0.421  20.539  0.00  0.00    +0.000 HD
ENDBRANCH  29  30
ENDBRANCH  28  29
ENDBRANCH   8  28
TORSDOF 11
ENDMDL
MODEL 5
REMARK VINA RESULT:      -6.8      2.233      2.859
REMARK  Name = 
REMARK  11 active torsions:
REMARK  status: ('A' for Active; 'I' for Inactive)
REMARK    1  A    between atoms: C_2  and  O_3
REMARK    2  A    between atoms: C_2  and  C_4
REMARK    3  A    between atoms: C_4  and  N_5
REMARK    4  A    between atoms: C_8  and  N_9
REMARK    5  A    between atoms: C_10  and  C_12
REMARK    6  A    between atoms: C_12  and  S_13
REMARK    7  A    between atoms: C_12  and  C_14
REMARK    8  A    between atoms: C_14  and  C_15
REMARK    9  A    between atoms: C_24  and  C_25
REMARK   10  A    between atoms: C_25  and  C_26
REMARK   11  A    between atoms: C_26  and  O_27
REMARK                            x       y       z     vdW  Elec       q    Type
REMARK                         _______ _______ _______ _____ _____    ______ ____
ROOT
ATOM      1  N   UNL     1       4.877   5.893  17.278  0.00  0.00    +0.000 N 
ATOM      2  C   UNL     1       3.811   6.715  17.640  0.00  0.00    +0.000 C 
ATOM      3  O   UNL     1       3.509   7.702  16.959  0.00  0.00    +0.000 OA
ATOM      4  C   UNL     1       2.981   6.356  18.887  0.00  0.00    +0.000 C 
ATOM      5  C   UNL     1       2.183   5.075  18.663  0.00  0.00    +0.000 C 
ATOM      6  C   UNL     1       2.999   3.815  18.935  0.00  0.00    +0.000 C 
ATOM      7  C   UNL     1       4.170   3.593  17.985  0.00  0.00    +0.000 C 
ATOM      8  C   UNL     1       5.289   4.652  17.991  0.00  0.00    +0.000 C 
ENDROOT
BRANCH   4   9
ATOM      9  N   UNL     1       2.110   7.473  19.248  0.00  0.00    +0.000 N 
ATOM     10  C   UNL     1       1.454   7.482  20.461  0.00  0.00    +0.000 C 
ATOM     11  O   UNL     1       1.494   6.515  21.222  0.00  0.00    +0.000 OA
ATOM     12  H   UNL     1       2.077   8.276  18.624  0.00  0.00    +0.000 HD
BRANCH  10  13
ATOM     13  C   UNL     1       0.687   8.763  20.792  0.00  0.00    +0.000 C 
BRANCH  13  14
ATOM     14  S   UNL     1       1.286   9.384  22.411  0.00  0.00    +0.000 S 
ATOM     15  H   UNL     1       2.228  10.201  21.917  0.00  0.00    +0.000 HD
ENDBRANCH  13  14
BRANCH  13  16
ATOM     16  C   UNL     1       0.899   9.781  19.655  0.00  0.00    +0.000 C 
BRANCH  16  17
ATOM     17  C   UNL     1      -0.352  10.365  19.043  0.00  0.00    +0.000 A 
ATOM     18  C   UNL     1      -0.801   9.899  17.799  0.00  0.00    +0.000 A 
ATOM     19  C   UNL     1      -1.966  10.412  17.227  0.00  0.00    +0.000 A 
ATOM     20  C   UNL     1      -2.698  11.390  17.897  0.00  0.00    +0.000 A 
ATOM     21  C   UNL     1      -2.267  11.854  19.138  0.00  0.00    +0.000 A 
ATOM     22  C   UNL     1      -1.102  11.340  19.712  0.00  0.00    +0.000 A 
ENDBRANCH  16  17
ENDBRANCH  13  16
ENDBRANCH  10  13
ENDBRANCH   4   9
BRANCH   1  23
ATOM     23  C   UNL     1       5.807   6.384  16.232  0.00  0.00    +0.000 C 
BRANCH  23  25
ATOM     24  O   UNL     1       7.643   4.985  15.457  0.00  0.00    +0.000 OA
ATOM     25  C   UNL     1       6.461   5.285  15.386  0.00  0.00    +0.000 C 
BRANCH  25  26
ATOM     26  O   UNL     1       5.622   4.728  14.484  0.00  0.00    +0.000 OA
ATOM     27  H   UNL     1       5.192   3.936  14.861  0.00  0.00    +0.000 HD
ENDBRANCH  25  26
ENDBRANCH  23  25
ENDBRANCH   1  23
BRANCH   8  28
ATOM     28  C   UNL     1       5.958   4.923  19.354  0.00  0.00    +0.000 C 
BRANCH  28  29
ATOM     29  C   UNL     1       7.328   5.587  19.247  0.00  0.00    +0.000 C 
BRANCH  29  30
ATOM     30  O   UNL     1       7.993   5.503  20.503  0.00  0.00    +0.000 OA
ATOM     31  H   UNL     1       8.762   6.097  20.482  0.00  0.00    +0.000 HD
ENDBRANCH  29  30
ENDBRANCH  28  29
ENDBRANCH   8  28
TORSDOF 11
ENDMDL
MODEL 6
REMARK VINA RESULT:      -6.8      1.974      2.392
REMARK  Name = 
REMARK  11 active torsions:
REMARK  status: ('A' for Active; 'I' for Inactive)
REMARK    1  A    between atoms: C_2  and  O_3
REMARK    2  A    between atoms: C_2  and  C_4
REMARK    3  A    between atoms: C_4  and  N_5
REMARK    4  A    between atoms: C_8  and  N_9
REMARK    5  A    between atoms: C_10  and  C_12
REMARK    6  A    between atoms: C_12  and  S_13
REMARK    7  A    between atoms: C_12  and  C_14
REMARK    8  A    between atoms: C_14  and  C_15
REMARK    9  A    between atoms: C_24  and  C_25
REMARK   10  A    between atoms: C_25  and  C_26
REMARK   11  A    between atoms: C_26  and  O_27
REMARK                            x       y       z     vdW  Elec       q    Type
REMARK                         _______ _______ _______ _____ _____    ______ ____
ROOT
ATOM      1  N   UNL     1       4.848   5.414  17.679  0.00  0.00    +0.000 N 
ATOM      2  C   UNL     1       3.895   6.398  17.942  0.00  0.00    +0.000 C 
ATOM      3  O   UNL     1       4.088   7.574  17.615  0.00  0.00    +0.000 OA
ATOM      4  C   UNL     1       2.571   5.992  18.618  0.00  0.00    +0.000 C 
ATOM      5  C   UNL     1       1.722   5.132  17.687  0.00  0.00    +0.000 C 
ATOM      6  C   UNL     1       2.109   3.656  17.731  0.00  0.00    +0.000 C 
ATOM      7  C   UNL     1       3.509   3.346  17.212  0.00  0.00    +0.000 C 
ATOM      8  C   UNL     1       4.694   3.964  17.979  0.00  0.00    +0.000 C 
ENDROOT
BRANCH   4   9
ATOM      9  N   UNL     1       1.846   7.185  19.054  0.00  0.00    +0.000 N 
ATOM     10  C   UNL     1       1.389   7.288  20.352  0.00  0.00    +0.000 C 
ATOM     11  O   UNL     1       1.481   6.349  21.143  0.00  0.00    +0.000 OA
ATOM     12  H   UNL     1       1.772   7.964  18.405  0.00  0.00    +0.000 HD
BRANCH  10  13
ATOM     13  C   UNL     1       0.773   8.634  20.734  0.00  0.00    +0.000 C 
BRANCH  13  14
ATOM     14  S   UNL     1       1.565   9.202  22.288  0.00  0.00    +0.000 S 
ATOM     15  H   UNL     1       1.246  10.498  22.152  0.00  0.00    +0.000 HD
ENDBRANCH  13  14
BRANCH  13  16
ATOM     16  C   UNL     1       0.977   9.626  19.572  0.00  0.00    +0.000 C 
BRANCH  16  17
ATOM     17  C   UNL     1      -0.274  10.261  19.014  0.00  0.00    +0.000 A 
ATOM     18  C   UNL     1      -0.898  11.304  19.714  0.00  0.00    +0.000 A 
ATOM     19  C   UNL     1      -2.043  11.917  19.205  0.00  0.00    +0.000 A 
ATOM     20  C   UNL     1      -2.572  11.499  17.986  0.00  0.00    +0.000 A 
ATOM     21  C   UNL     1      -1.956  10.471  17.276  0.00  0.00    +0.000 A 
ATOM     22  C   UNL     1      -0.809   9.857  17.783  0.00  0.00    +0.000 A 
ENDBRANCH  16  17
ENDBRANCH  13  16
ENDBRANCH  10  13
ENDBRANCH   4   9
BRANCH   1  23
ATOM     23  C   UNL     1       6.201   5.855  17.261  0.00  0.00    +0.000 C 
BRANCH  23  25
ATOM     24  O   UNL     1       7.632   4.758  15.626  0.00  0.00    +0.000 OA
ATOM     25  C   UNL     1       6.619   5.399  15.858  0.00  0.00    +0.000 C 
BRANCH  25  26
ATOM     26  O   UNL     1       5.802   5.847  14.879  0.00  0.00    +0.000 OA
ATOM     27  H   UNL     1       6.047   6.757  14.619  0.00  0.00    +0.000 HD
ENDBRANCH  25  26
ENDBRANCH  23  25
ENDBRANCH   1  23
BRANCH   8  28
ATOM     28  C   UNL     1       4.771   3.638  19.484  0.00  0.00    +0.000 C 
BRANCH  28  29
ATOM     29  C   UNL     1       4.283   2.236  19.838  0.00  0.00    +0.000 C 
BRANCH  29  30
ATOM     30  O   UNL     1       5.352   1.495  20.414  0.00  0.00    +0.000 OA
ATOM     31  H   UNL     1       4.996   0.965  21.147  0.00  0.00    +0.000 HD
ENDBRANCH  29  30
ENDBRANCH  28  29
ENDBRANCH   8  28
TORSDOF 11
ENDMDL
MODEL 7
REMARK VINA RESULT:      -6.8      0.959      1.266
REMARK  Name = 
REMARK  11 active torsions:
REMARK  status: ('A' for Active; 'I' for Inactive)
REMARK    1  A    between atoms: C_2  and  O_3
REMARK    2  A    between atoms: C_2  and  C_4
REMARK    3  A    between atoms: C_4  and  N_5
REMARK    4  A    between atoms: C_8  and  N_9
REMARK    5  A    between atoms: C_10  and  C_12
REMARK    6  A    between atoms: C_12  and  S_13
REMARK    7  A    between atoms: C_12  and  C_14
REMARK    8  A    between atoms: C_14  and  C_15
REMARK    9  A    between atoms: C_24  and  C_25
REMARK   10  A    between atoms: C_25  and  C_26
REMARK   11  A    between atoms: C_26  and  O_27
REMARK                            x       y       z     vdW  Elec       q    Type
REMARK                         _______ _______ _______ _____ _____    ______ ____
ROOT
ATOM      1  N   UNL     1       4.617   4.404  17.400  0.00  0.00    +0.000 N 
ATOM      2  C   UNL     1       3.917   5.609  17.372  0.00  0.00    +0.000 C 
ATOM      3  O   UNL     1       4.298   6.551  16.666  0.00  0.00    +0.000 OA
ATOM      4  C   UNL     1       2.632   5.745  18.211  0.00  0.00    +0.000 C 
ATOM      5  C   UNL     1       1.522   4.855  17.660  0.00  0.00    +0.000 C 
ATOM      6  C   UNL     1       1.612   3.418  18.166  0.00  0.00    +0.000 C 
ATOM      7  C   UNL     1       2.848   2.653  17.708  0.00  0.00    +0.000 C 
ATOM      8  C   UNL     1       4.217   3.192  18.167  0.00  0.00    +0.000 C 
ENDROOT
BRANCH   4   9
ATOM      9  N   UNL     1       2.216   7.145  18.266  0.00  0.00    +0.000 N 
ATOM     10  C   UNL     1       1.857   7.719  19.469  0.00  0.00    +0.000 C 
ATOM     11  O   UNL     1       1.774   7.053  20.500  0.00  0.00    +0.000 OA
ATOM     12  H   UNL     1       2.287   7.700  17.417  0.00  0.00    +0.000 HD
BRANCH  10  13
ATOM     13  C   UNL     1       1.579   9.223  19.430  0.00  0.00    +0.000 C 
BRANCH  13  14
ATOM     14  S   UNL     1       2.277   9.891  17.870  0.00  0.00    +0.000 S 
ATOM     15  H   UNL     1       1.112  10.316  17.358  0.00  0.00    +0.000 HD
ENDBRANCH  13  14
BRANCH  13  16
ATOM     16  C   UNL     1       0.060   9.454  19.543  0.00  0.00    +0.000 C 
BRANCH  16  17
ATOM     17  C   UNL     1      -0.417  10.137  20.802  0.00  0.00    +0.000 A 
ATOM     18  C   UNL     1      -0.267   9.497  22.041  0.00  0.00    +0.000 A 
ATOM     19  C   UNL     1      -0.682  10.121  23.218  0.00  0.00    +0.000 A 
ATOM     20  C   UNL     1      -1.245  11.394  23.169  0.00  0.00    +0.000 A 
ATOM     21  C   UNL     1      -1.391  12.044  21.945  0.00  0.00    +0.000 A 
ATOM     22  C   UNL     1      -0.974  11.422  20.767  0.00  0.00    +0.000 A 
ENDBRANCH  16  17
ENDBRANCH  13  16
ENDBRANCH  10  13
ENDBRANCH   4   9
BRANCH   1  23
ATOM     23  C   UNL     1       5.970   4.374  16.791  0.00  0.00    +0.000 C 
BRANCH  23  25
ATOM     24  O   UNL     1       8.179   4.146  17.788  0.00  0.00    +0.000 OA
ATOM     25  C   UNL     1       7.112   4.738  17.746  0.00  0.00    +0.000 C 
BRANCH  25  26
ATOM     26  O   UNL     1       6.798   5.732  18.608  0.00  0.00    +0.000 OA
ATOM     27  H   UNL     1       6.740   5.387  19.520  0.00  0.00    +0.000 HD
ENDBRANCH  25  26
ENDBRANCH  23  25
ENDBRANCH   1  23
BRANCH   8  28
ATOM     28  C   UNL     1       4.411   3.340  19.690  0.00  0.00    +0.000 C 
BRANCH  28  29
ATOM     29  C   UNL     1       4.481   2.011  20.435  0.00  0.00    +0.000 C 
BRANCH  29  30
ATOM     30  O   UNL     1       3.750   2.112  21.652  0.00  0.00    +0.000 OA
ATOM     31  H   UNL     1       4.376   2.308  22.369  0.00  0.00    +0.000 HD
ENDBRANCH  29  30
ENDBRANCH  28  29
ENDBRANCH   8  28
TORSDOF 11
ENDMDL
MODEL 8
REMARK VINA RESULT:      -6.8      0.540      1.234
REMARK  Name = 
REMARK  11 active torsions:
REMARK  status: ('A' for Active; 'I' for Inactive)
REMARK    1  A    between atoms: C_2  and  O_3
REMARK    2  A    between atoms: C_2  and  C_4
REMARK    3  A    between atoms: C_4  and  N_5
REMARK    4  A    between atoms: C_8  and  N_9
REMARK    5  A    between atoms: C_10  and  C_12
REMARK    6  A    between atoms: C_12  and  S_13
REMARK    7  A    between atoms: C_12  and  C_14
REMARK    8  A    between atoms: C_14  and  C_15
REMARK    9  A    between atoms: C_24  and  C_25
REMARK   10  A    between atoms: C_25  and  C_26
REMARK   11  A    between atoms: C_26  and  O_27
REMARK                            x       y       z     vdW  Elec       q    Type
REMARK                         _______ _______ _______ _____ _____    ______ ____
ROOT
ATOM      1  N   UNL     1       4.694   4.461  17.260  0.00  0.00    +0.000 N 
ATOM      2  C   UNL     1       3.980   5.656  17.346  0.00  0.00    +0.000 C 
ATOM      3  O   UNL     1       4.282   6.630  16.647  0.00  0.00    +0.000 OA
ATOM      4  C   UNL     1       2.776   5.738  18.304  0.00  0.00    +0.000 C 
ATOM      5  C   UNL     1       1.631   4.852  17.822  0.00  0.00    +0.000 C 
ATOM      6  C   UNL     1       1.785   3.398  18.259  0.00  0.00    +0.000 C 
ATOM      7  C   UNL     1       2.983   2.672  17.659  0.00  0.00    +0.000 C 
ATOM      8  C   UNL     1       4.382   3.214  18.011  0.00  0.00    +0.000 C 
ENDROOT
BRANCH   4   9
ATOM      9  N   UNL     1       2.350   7.128  18.454  0.00  0.00    +0.000 N 
ATOM     10  C   UNL     1       1.896   7.591  19.672  0.00  0.00    +0.000 C 
ATOM     11  O   UNL     1       1.735   6.833  20.629  0.00  0.00    +0.000 OA
ATOM     12  H   UNL     1       2.485   7.758  17.667  0.00  0.00    +0.000 HD
BRANCH  10  13
ATOM     13  C   UNL     1       1.614   9.092  19.749  0.00  0.00    +0.000 C 
BRANCH  13  14
ATOM     14  S   UNL     1       1.487   9.736  18.036  0.00  0.00    +0.000 S 
ATOM     15  H   UNL     1       2.586  10.503  18.085  0.00  0.00    +0.000 HD
ENDBRANCH  13  14
BRANCH  13  16
ATOM     16  C   UNL     1       0.324   9.318  20.561  0.00  0.00    +0.000 C 
BRANCH  16  17
ATOM     17  C   UNL     1       0.113  10.713  21.098  0.00  0.00    +0.000 A 
ATOM     18  C   UNL     1      -0.800  10.927  22.141  0.00  0.00    +0.000 A 
ATOM     19  C   UNL     1      -0.993  12.206  22.665  0.00  0.00    +0.000 A 
ATOM     20  C   UNL     1      -0.271  13.283  22.157  0.00  0.00    +0.000 A 
ATOM     21  C   UNL     1       0.646  13.081  21.127  0.00  0.00    +0.000 A 
ATOM     22  C   UNL     1       0.842  11.802  20.603  0.00  0.00    +0.000 A 
ENDBRANCH  16  17
ENDBRANCH  13  16
ENDBRANCH  10  13
ENDBRANCH   4   9
BRANCH   1  23
ATOM     23  C   UNL     1       5.985   4.477  16.528  0.00  0.00    +0.000 C 
BRANCH  23  25
ATOM     24  O   UNL     1       7.553   6.223  17.174  0.00  0.00    +0.000 OA
ATOM     25  C   UNL     1       7.159   5.075  17.311  0.00  0.00    +0.000 C 
BRANCH  25  26
ATOM     26  O   UNL     1       7.781   4.184  18.116  0.00  0.00    +0.000 OA
ATOM     27  H   UNL     1       8.286   3.538  17.584  0.00  0.00    +0.000 HD
ENDBRANCH  25  26
ENDBRANCH  23  25
ENDBRANCH   1  23
BRANCH   8  28
ATOM     28  C   UNL     1       4.714   3.305  19.514  0.00  0.00    +0.000 C 
BRANCH  28  29
ATOM     29  C   UNL     1       4.400   2.032  20.294  0.00  0.00    +0.000 C 
BRANCH  29  30
ATOM     30  O   UNL     1       3.503   2.337  21.356  0.00  0.00    +0.000 OA
ATOM     31  H   UNL     1       3.877   1.989  22.182  0.00  0.00    +0.000 HD
ENDBRANCH  29  30
ENDBRANCH  28  29
ENDBRANCH   8  28
TORSDOF 11
ENDMDL
MODEL 9
REMARK VINA RESULT:      -6.7      2.193      2.904
REMARK  Name = 
REMARK  11 active torsions:
REMARK  status: ('A' for Active; 'I' for Inactive)
REMARK    1  A    between atoms: C_2  and  O_3
REMARK    2  A    between atoms: C_2  and  C_4
REMARK    3  A    between atoms: C_4  and  N_5
REMARK    4  A    between atoms: C_8  and  N_9
REMARK    5  A    between atoms: C_10  and  C_12
REMARK    6  A    between atoms: C_12  and  S_13
REMARK    7  A    between atoms: C_12  and  C_14
REMARK    8  A    between atoms: C_14  and  C_15
REMARK    9  A    between atoms: C_24  and  C_25
REMARK   10  A    between atoms: C_25  and  C_26
REMARK   11  A    between atoms: C_26  and  O_27
REMARK                            x       y       z     vdW  Elec       q    Type
REMARK                         _______ _______ _______ _____ _____    ______ ____
ROOT
ATOM      1  N   UNL     1       4.663   5.974  17.112  0.00  0.00    +0.000 N 
ATOM      2  C   UNL     1       3.618   6.800  17.525  0.00  0.00    +0.000 C 
ATOM      3  O   UNL     1       3.338   7.830  16.901  0.00  0.00    +0.000 OA
ATOM      4  C   UNL     1       2.786   6.393  18.755  0.00  0.00    +0.000 C 
ATOM      5  C   UNL     1       1.956   5.146  18.466  0.00  0.00    +0.000 C 
ATOM      6  C   UNL     1       2.743   3.853  18.664  0.00  0.00    +0.000 C 
ATOM      7  C   UNL     1       3.904   3.656  17.696  0.00  0.00    +0.000 C 
ATOM      8  C   UNL     1       5.048   4.686  17.754  0.00  0.00    +0.000 C 
ENDROOT
BRANCH   4   9
ATOM      9  N   UNL     1       1.944   7.509  19.182  0.00  0.00    +0.000 N 
ATOM     10  C   UNL     1       1.424   7.542  20.460  0.00  0.00    +0.000 C 
ATOM     11  O   UNL     1       1.562   6.596  21.235  0.00  0.00    +0.000 OA
ATOM     12  H   UNL     1       1.831   8.294  18.545  0.00  0.00    +0.000 HD
BRANCH  10  13
ATOM     13  C   UNL     1       0.680   8.822  20.840  0.00  0.00    +0.000 C 
BRANCH  13  14
ATOM     14  S   UNL     1       1.314   9.387  22.467  0.00  0.00    +0.000 S 
ATOM     15  H   UNL     1       0.820  10.632  22.394  0.00  0.00    +0.000 HD
ENDBRANCH  13  14
BRANCH  13  16
ATOM     16  C   UNL     1       0.887   9.871  19.731  0.00  0.00    +0.000 C 
BRANCH  16  17
ATOM     17  C   UNL     1      -0.364  10.372  19.048  0.00  0.00    +0.000 A 
ATOM     18  C   UNL     1      -1.112  11.403  19.634  0.00  0.00    +0.000 A 
ATOM     19  C   UNL     1      -2.258  11.893  19.008  0.00  0.00    +0.000 A 
ATOM     20  C   UNL     1      -2.666  11.362  17.786  0.00  0.00    +0.000 A 
ATOM     21  C   UNL     1      -1.926  10.343  17.190  0.00  0.00    +0.000 A 
ATOM     22  C   UNL     1      -0.776   9.853  17.814  0.00  0.00    +0.000 A 
ENDBRANCH  16  17
ENDBRANCH  13  16
ENDBRANCH  10  13
ENDBRANCH   4   9
BRANCH   1  23
ATOM     23  C   UNL     1       5.601   6.500  16.090  0.00  0.00    +0.000 C 
BRANCH  23  25
ATOM     24  O   UNL     1       5.584   4.685  14.468  0.00  0.00    +0.000 OA
ATOM     25  C   UNL     1       6.229   5.433  15.186  0.00  0.00    +0.000 C 
BRANCH  25  26
ATOM     26  O   UNL     1       7.571   5.336  15.318  0.00  0.00    +0.000 OA
ATOM     27  H   UNL     1       7.819   5.298  16.262  0.00  0.00    +0.000 HD
ENDBRANCH  25  26
ENDBRANCH  23  25
ENDBRANCH   1  23
BRANCH   8  28
ATOM     28  C   UNL     1       5.730   4.866  19.126  0.00  0.00    +0.000 C 
BRANCH  28  29
ATOM     29  C   UNL     1       7.157   5.397  19.041  0.00  0.00    +0.000 C 
BRANCH  29  30
ATOM     30  O   UNL     1       7.943   4.516  18.245  0.00  0.00    +0.000 OA
ATOM     31  H   UNL     1       8.061   3.685  18.735  0.00  0.00    +0.000 HD
ENDBRANCH  29  30
ENDBRANCH  28  29
ENDBRANCH   8  28
TORSDOF 11
ENDMDL
