MODEL 1
REMARK VINA RESULT:      -7.5      0.000      0.000
REMARK  Name = 
REMARK  5 active torsions:
REMARK  status: ('A' for Active; 'I' for Inactive)
REMARK    1  A    between atoms: O_1  and  C_2
REMARK    2  A    between atoms: C_2  and  C_3
REMARK    3  A    between atoms: C_2  and  C_15
REMARK    4  A    between atoms: C_3  and  N_4
REMARK    5  A    between atoms: C_15  and  O_16
REMARK                            x       y       z     vdW  Elec       q    Type
REMARK                         _______ _______ _______ _____ _____    ______ ____
ROOT
ATOM      1  N   UNL     1       5.346   4.892  18.468  0.00  0.00    +0.000 N 
ATOM      2  C   UNL     1       6.482   5.352  19.081  0.00  0.00    +0.000 A 
ATOM      3  N   UNL     1       7.471   5.500  18.232  0.00  0.00    +0.000 NA
ATOM      4  C   UNL     1       6.954   5.162  17.009  0.00  0.00    +0.000 A 
ATOM      5  C   UNL     1       7.578   5.176  15.753  0.00  0.00    +0.000 A 
ATOM      6  C   UNL     1       6.830   4.797  14.642  0.00  0.00    +0.000 A 
ATOM      7  F   UNL     1       7.406   4.814  13.430  0.00  0.00    +0.000 F 
ATOM      8  C   UNL     1       5.500   4.404  14.768  0.00  0.00    +0.000 A 
ATOM      9  F   UNL     1       4.806   4.046  13.679  0.00  0.00    +0.000 F 
ATOM     10  C   UNL     1       4.858   4.375  16.011  0.00  0.00    +0.000 A 
ATOM     11  C   UNL     1       5.617   4.769  17.123  0.00  0.00    +0.000 A 
ENDROOT
BRANCH   1  12
ATOM     12  C   UNL     1       4.085   4.628  19.151  0.00  0.00    +0.000 C 
BRANCH  12  13
ATOM     13  C   UNL     1       3.989   3.191  19.699  0.00  0.00    +0.000 C 
BRANCH  13  14
ATOM     14  C   UNL     1       2.778   2.453  19.086  0.00  0.00    +0.000 C 
ATOM     15  C   UNL     1       1.865   3.332  18.165  0.00  0.00    +0.000 C 
ATOM     16  C   UNL     1       0.651   2.598  18.763  0.00  0.00    +0.000 C 
ATOM     17  C   UNL     1       1.518   2.277  19.994  0.00  0.00    +0.000 C 
BRANCH  14  18
ATOM     18  O   UNL     1       3.232   1.219  18.468  0.00  0.00    +0.000 OA
ATOM     19  H   UNL     1       3.737   1.490  17.680  0.00  0.00    +0.000 HD
ENDBRANCH  14  18
ENDBRANCH  13  14
BRANCH  13  20
ATOM     20  O   UNL     1       5.191   2.467  19.406  0.00  0.00    +0.000 OA
ATOM     21  H   UNL     1       5.104   1.564  19.762  0.00  0.00    +0.000 HD
ENDBRANCH  13  20
ENDBRANCH  12  13
ENDBRANCH   1  12
TORSDOF 5
ENDMDL
MODEL 2
REMARK VINA RESULT:      -7.4      3.687      6.303
REMARK  Name = 
REMARK  5 active torsions:
REMARK  status: ('A' for Active; 'I' for Inactive)
REMARK    1  A    between atoms: O_1  and  C_2
REMARK    2  A    between atoms: C_2  and  C_3
REMARK    3  A    between atoms: C_2  and  C_15
REMARK    4  A    between atoms: C_3  and  N_4
REMARK    5  A    between atoms: C_15  and  O_16
REMARK                            x       y       z     vdW  Elec       q    Type
REMARK                         _______ _______ _______ _____ _____    ______ ____
ROOT
ATOM      1  N   UNL     1       3.567   5.616  17.963  0.00  0.00    +0.000 N 
ATOM      2  C   UNL     1       3.293   6.839  18.517  0.00  0.00    +0.000 A 
ATOM      3  N   UNL     1       2.470   6.743  19.534  0.00  0.00    +0.000 NA
ATOM      4  C   UNL     1       2.225   5.402  19.677  0.00  0.00    +0.000 A 
ATOM      5  C   UNL     1       1.436   4.746  20.634  0.00  0.00    +0.000 A 
ATOM      6  C   UNL     1       1.352   3.358  20.580  0.00  0.00    +0.000 A 
ATOM      7  F   UNL     1       0.611   2.711  21.492  0.00  0.00    +0.000 F 
ATOM      8  C   UNL     1       2.024   2.633  19.598  0.00  0.00    +0.000 A 
ATOM      9  F   UNL     1       1.924   1.297  19.573  0.00  0.00    +0.000 F 
ATOM     10  C   UNL     1       2.811   3.266  18.629  0.00  0.00    +0.000 A 
ATOM     11  C   UNL     1       2.897   4.664  18.699  0.00  0.00    +0.000 A 
ENDROOT
BRANCH   1  12
ATOM     12  C   UNL     1       4.446   5.404  16.819  0.00  0.00    +0.000 C 
BRANCH  12  13
ATOM     13  C   UNL     1       5.308   6.638  16.488  0.00  0.00    +0.000 C 
BRANCH  13  14
ATOM     14  C   UNL     1       6.766   6.424  16.953  0.00  0.00    +0.000 C 
ATOM     15  C   UNL     1       6.921   5.734  18.350  0.00  0.00    +0.000 C 
ATOM     16  C   UNL     1       8.099   6.684  18.628  0.00  0.00    +0.000 C 
ATOM     17  C   UNL     1       7.495   7.650  17.592  0.00  0.00    +0.000 C 
BRANCH  14  18
ATOM     18  O   UNL     1       7.521   5.786  15.888  0.00  0.00    +0.000 OA
ATOM     19  H   UNL     1       7.406   4.828  16.023  0.00  0.00    +0.000 HD
ENDBRANCH  14  18
ENDBRANCH  13  14
BRANCH  13  20
ATOM     20  O   UNL     1       5.287   6.893  15.078  0.00  0.00    +0.000 OA
ATOM     21  H   UNL     1       4.569   7.523  14.887  0.00  0.00    +0.000 HD
ENDBRANCH  13  20
ENDBRANCH  12  13
ENDBRANCH   1  12
TORSDOF 5
ENDMDL
MODEL 3
REMARK VINA RESULT:      -7.4      3.265      5.348
REMARK  Name = 
REMARK  5 active torsions:
REMARK  status: ('A' for Active; 'I' for Inactive)
REMARK    1  A    between atoms: O_1  and  C_2
REMARK    2  A    between atoms: C_2  and  C_3
REMARK    3  A    between atoms: C_2  and  C_15
REMARK    4  A    between atoms: C_3  and  N_4
REMARK    5  A    between atoms: C_15  and  O_16
REMARK                            x       y       z     vdW  Elec       q    Type
REMARK                         _______ _______ _______ _____ _____    ______ ____
ROOT
ATOM      1  N   UNL     1       5.172   5.077  18.358  0.00  0.00    +0.000 N 
ATOM      2  C   UNL     1       5.883   4.265  19.203  0.00  0.00    +0.000 A 
ATOM      3  N   UNL     1       5.141   3.299  19.693  0.00  0.00    +0.000 NA
ATOM      4  C   UNL     1       3.908   3.460  19.117  0.00  0.00    +0.000 A 
ATOM      5  C   UNL     1       2.754   2.678  19.271  0.00  0.00    +0.000 A 
ATOM      6  C   UNL     1       1.612   3.042  18.562  0.00  0.00    +0.000 A 
ATOM      7  F   UNL     1       0.501   2.300  18.686  0.00  0.00    +0.000 F 
ATOM      8  C   UNL     1       1.607   4.157  17.727  0.00  0.00    +0.000 A 
ATOM      9  F   UNL     1       0.494   4.480  17.056  0.00  0.00    +0.000 F 
ATOM     10  C   UNL     1       2.744   4.956  17.563  0.00  0.00    +0.000 A 
ATOM     11  C   UNL     1       3.892   4.575  18.274  0.00  0.00    +0.000 A 
ENDROOT
BRANCH   1  12
ATOM     12  C   UNL     1       5.724   6.234  17.664  0.00  0.00    +0.000 C 
BRANCH  12  13
ATOM     13  C   UNL     1       7.053   5.927  16.947  0.00  0.00    +0.000 C 
BRANCH  13  14
ATOM     14  C   UNL     1       6.790   5.321  15.550  0.00  0.00    +0.000 C 
ATOM     15  C   UNL     1       5.374   5.622  14.953  0.00  0.00    +0.000 C 
ATOM     16  C   UNL     1       5.361   4.186  14.401  0.00  0.00    +0.000 C 
ATOM     17  C   UNL     1       6.380   3.813  15.494  0.00  0.00    +0.000 C 
BRANCH  14  18
ATOM     18  O   UNL     1       7.892   5.660  14.665  0.00  0.00    +0.000 OA
ATOM     19  H   UNL     1       7.911   6.634  14.632  0.00  0.00    +0.000 HD
ENDBRANCH  14  18
ENDBRANCH  13  14
BRANCH  13  20
ATOM     20  O   UNL     1       7.831   7.122  16.812  0.00  0.00    +0.000 OA
ATOM     21  H   UNL     1       7.225   7.877  16.697  0.00  0.00    +0.000 HD
ENDBRANCH  13  20
ENDBRANCH  12  13
ENDBRANCH   1  12
TORSDOF 5
ENDMDL
MODEL 4
REMARK VINA RESULT:      -7.4      1.011      1.154
REMARK  Name = 
REMARK  5 active torsions:
REMARK  status: ('A' for Active; 'I' for Inactive)
REMARK    1  A    between atoms: O_1  and  C_2
REMARK    2  A    between atoms: C_2  and  C_3
REMARK    3  A    between atoms: C_2  and  C_15
REMARK    4  A    between atoms: C_3  and  N_4
REMARK    5  A    between atoms: C_15  and  O_16
REMARK                            x       y       z     vdW  Elec       q    Type
REMARK                         _______ _______ _______ _____ _____    ______ ____
ROOT
ATOM      1  N   UNL     1       5.358   4.866  18.385  0.00  0.00    +0.000 N 
ATOM      2  C   UNL     1       6.491   5.329  19.002  0.00  0.00    +0.000 A 
ATOM      3  N   UNL     1       7.481   5.484  18.155  0.00  0.00    +0.000 NA
ATOM      4  C   UNL     1       6.967   5.149  16.930  0.00  0.00    +0.000 A 
ATOM      5  C   UNL     1       7.594   5.170  15.674  0.00  0.00    +0.000 A 
ATOM      6  C   UNL     1       6.850   4.792  14.561  0.00  0.00    +0.000 A 
ATOM      7  F   UNL     1       7.427   4.816  13.350  0.00  0.00    +0.000 F 
ATOM      8  C   UNL     1       5.521   4.392  14.684  0.00  0.00    +0.000 A 
ATOM      9  F   UNL     1       4.831   4.035  13.592  0.00  0.00    +0.000 F 
ATOM     10  C   UNL     1       4.877   4.356  15.926  0.00  0.00    +0.000 A 
ATOM     11  C   UNL     1       5.632   4.749  17.040  0.00  0.00    +0.000 A 
ENDROOT
BRANCH   1  12
ATOM     12  C   UNL     1       4.098   4.594  19.065  0.00  0.00    +0.000 C 
BRANCH  12  13
ATOM     13  C   UNL     1       4.197   3.430  20.070  0.00  0.00    +0.000 C 
BRANCH  13  14
ATOM     14  C   UNL     1       2.797   3.040  20.593  0.00  0.00    +0.000 C 
ATOM     15  C   UNL     1       1.912   2.236  19.580  0.00  0.00    +0.000 C 
ATOM     16  C   UNL     1       0.701   3.041  20.082  0.00  0.00    +0.000 C 
ATOM     17  C   UNL     1       1.685   4.137  20.534  0.00  0.00    +0.000 C 
BRANCH  14  18
ATOM     18  O   UNL     1       2.929   2.410  21.896  0.00  0.00    +0.000 OA
ATOM     19  H   UNL     1       3.886   2.290  22.033  0.00  0.00    +0.000 HD
ENDBRANCH  14  18
ENDBRANCH  13  14
BRANCH  13  20
ATOM     20  O   UNL     1       4.812   2.293  19.452  0.00  0.00    +0.000 OA
ATOM     21  H   UNL     1       5.201   2.573  18.604  0.00  0.00    +0.000 HD
ENDBRANCH  13  20
ENDBRANCH  12  13
ENDBRANCH   1  12
TORSDOF 5
ENDMDL
MODEL 5
REMARK VINA RESULT:      -7.3      1.740      2.032
REMARK  Name = 
REMARK  5 active torsions:
REMARK  status: ('A' for Active; 'I' for Inactive)
REMARK    1  A    between atoms: O_1  and  C_2
REMARK    2  A    between atoms: C_2  and  C_3
REMARK    3  A    between atoms: C_2  and  C_15
REMARK    4  A    between atoms: C_3  and  N_4
REMARK    5  A    between atoms: C_15  and  O_16
REMARK                            x       y       z     vdW  Elec       q    Type
REMARK                         _______ _______ _______ _____ _____    ______ ____
ROOT
ATOM      1  N   UNL     1       4.149   4.987  18.489  0.00  0.00    +0.000 N 
ATOM      2  C   UNL     1       5.042   5.077  19.524  0.00  0.00    +0.000 A 
ATOM      3  N   UNL     1       6.282   4.954  19.113  0.00  0.00    +0.000 NA
ATOM      4  C   UNL     1       6.202   4.818  17.751  0.00  0.00    +0.000 A 
ATOM      5  C   UNL     1       7.238   4.684  16.815  0.00  0.00    +0.000 A 
ATOM      6  C   UNL     1       6.900   4.571  15.470  0.00  0.00    +0.000 A 
ATOM      7  F   UNL     1       7.876   4.454  14.557  0.00  0.00    +0.000 F 
ATOM      8  C   UNL     1       5.569   4.581  15.058  0.00  0.00    +0.000 A 
ATOM      9  F   UNL     1       5.276   4.472  13.755  0.00  0.00    +0.000 F 
ATOM     10  C   UNL     1       4.518   4.705  15.974  0.00  0.00    +0.000 A 
ATOM     11  C   UNL     1       4.870   4.829  17.326  0.00  0.00    +0.000 A 
ENDROOT
BRANCH   1  12
ATOM     12  C   UNL     1       2.702   5.084  18.634  0.00  0.00    +0.000 C 
BRANCH  12  13
ATOM     13  C   UNL     1       1.971   3.785  18.241  0.00  0.00    +0.000 C 
BRANCH  13  14
ATOM     14  C   UNL     1       1.323   3.128  19.481  0.00  0.00    +0.000 C 
ATOM     15  C   UNL     1       1.177   4.066  20.727  0.00  0.00    +0.000 C 
ATOM     16  C   UNL     1       1.548   2.861  21.609  0.00  0.00    +0.000 C 
ATOM     17  C   UNL     1       2.247   2.245  20.382  0.00  0.00    +0.000 C 
BRANCH  14  18
ATOM     18  O   UNL     1       0.090   2.469  19.085  0.00  0.00    +0.000 OA
ATOM     19  H   UNL     1      -0.303   2.132  19.910  0.00  0.00    +0.000 HD
ENDBRANCH  14  18
ENDBRANCH  13  14
BRANCH  13  20
ATOM     20  O   UNL     1       0.961   4.061  17.262  0.00  0.00    +0.000 OA
ATOM     21  H   UNL     1       1.390   4.153  16.392  0.00  0.00    +0.000 HD
ENDBRANCH  13  20
ENDBRANCH  12  13
ENDBRANCH   1  12
TORSDOF 5
ENDMDL
MODEL 6
REMARK VINA RESULT:      -7.3      2.703      3.455
REMARK  Name = 
REMARK  5 active torsions:
REMARK  status: ('A' for Active; 'I' for Inactive)
REMARK    1  A    between atoms: O_1  and  C_2
REMARK    2  A    between atoms: C_2  and  C_3
REMARK    3  A    between atoms: C_2  and  C_15
REMARK    4  A    between atoms: C_3  and  N_4
REMARK    5  A    between atoms: C_15  and  O_16
REMARK                            x       y       z     vdW  Elec       q    Type
REMARK                         _______ _______ _______ _____ _____    ______ ____
ROOT
ATOM      1  N   UNL     1       4.958   4.402  16.780  0.00  0.00    +0.000 N 
ATOM      2  C   UNL     1       4.921   5.013  15.554  0.00  0.00    +0.000 A 
ATOM      3  N   UNL     1       5.742   6.035  15.491  0.00  0.00    +0.000 NA
ATOM      4  C   UNL     1       6.370   6.072  16.709  0.00  0.00    +0.000 A 
ATOM      5  C   UNL     1       7.366   6.950  17.161  0.00  0.00    +0.000 A 
ATOM      6  C   UNL     1       7.861   6.777  18.450  0.00  0.00    +0.000 A 
ATOM      7  F   UNL     1       8.823   7.599  18.898  0.00  0.00    +0.000 F 
ATOM      8  C   UNL     1       7.378   5.766  19.278  0.00  0.00    +0.000 A 
ATOM      9  F   UNL     1       7.876   5.623  20.513  0.00  0.00    +0.000 F 
ATOM     10  C   UNL     1       6.380   4.883  18.851  0.00  0.00    +0.000 A 
ATOM     11  C   UNL     1       5.895   5.060  17.547  0.00  0.00    +0.000 A 
ENDROOT
BRANCH   1  12
ATOM     12  C   UNL     1       4.157   3.242  17.151  0.00  0.00    +0.000 C 
BRANCH  12  13
ATOM     13  C   UNL     1       2.735   3.618  17.613  0.00  0.00    +0.000 C 
BRANCH  13  14
ATOM     14  C   UNL     1       2.298   2.737  18.804  0.00  0.00    +0.000 C 
ATOM     15  C   UNL     1       0.840   2.991  19.316  0.00  0.00    +0.000 C 
ATOM     16  C   UNL     1       1.367   2.800  20.748  0.00  0.00    +0.000 C 
ATOM     17  C   UNL     1       2.765   3.182  20.228  0.00  0.00    +0.000 C 
BRANCH  14  18
ATOM     18  O   UNL     1       2.588   1.345  18.503  0.00  0.00    +0.000 OA
ATOM     19  H   UNL     1       3.468   1.172  18.883  0.00  0.00    +0.000 HD
ENDBRANCH  14  18
ENDBRANCH  13  14
BRANCH  13  20
ATOM     20  O   UNL     1       2.687   4.998  17.995  0.00  0.00    +0.000 OA
ATOM     21  H   UNL     1       3.007   5.538  17.249  0.00  0.00    +0.000 HD
ENDBRANCH  13  20
ENDBRANCH  12  13
ENDBRANCH   1  12
TORSDOF 5
ENDMDL
MODEL 7
REMARK VINA RESULT:      -7.3      2.643      3.307
REMARK  Name = 
REMARK  5 active torsions:
REMARK  status: ('A' for Active; 'I' for Inactive)
REMARK    1  A    between atoms: O_1  and  C_2
REMARK    2  A    between atoms: C_2  and  C_3
REMARK    3  A    between atoms: C_2  and  C_15
REMARK    4  A    between atoms: C_3  and  N_4
REMARK    5  A    between atoms: C_15  and  O_16
REMARK                            x       y       z     vdW  Elec       q    Type
REMARK                         _______ _______ _______ _____ _____    ______ ____
ROOT
ATOM      1  N   UNL     1       5.050   4.385  16.955  0.00  0.00    +0.000 N 
ATOM      2  C   UNL     1       4.869   5.031  15.760  0.00  0.00    +0.000 A 
ATOM      3  N   UNL     1       5.610   6.110  15.670  0.00  0.00    +0.000 NA
ATOM      4  C   UNL     1       6.334   6.152  16.833  0.00  0.00    +0.000 A 
ATOM      5  C   UNL     1       7.303   7.083  17.236  0.00  0.00    +0.000 A 
ATOM      6  C   UNL     1       7.916   6.903  18.473  0.00  0.00    +0.000 A 
ATOM      7  F   UNL     1       8.853   7.776  18.872  0.00  0.00    +0.000 F 
ATOM      8  C   UNL     1       7.573   5.834  19.297  0.00  0.00    +0.000 A 
ATOM      9  F   UNL     1       8.182   5.686  20.482  0.00  0.00    +0.000 F 
ATOM     10  C   UNL     1       6.604   4.897  18.920  0.00  0.00    +0.000 A 
ATOM     11  C   UNL     1       6.001   5.082  17.667  0.00  0.00    +0.000 A 
ENDROOT
BRANCH   1  12
ATOM     12  C   UNL     1       4.363   3.160  17.345  0.00  0.00    +0.000 C 
BRANCH  12  13
ATOM     13  C   UNL     1       4.081   3.086  18.859  0.00  0.00    +0.000 C 
BRANCH  13  14
ATOM     14  C   UNL     1       2.576   2.853  19.121  0.00  0.00    +0.000 C 
ATOM     15  C   UNL     1       1.662   4.105  18.893  0.00  0.00    +0.000 C 
ATOM     16  C   UNL     1       0.852   3.671  20.127  0.00  0.00    +0.000 C 
ATOM     17  C   UNL     1       2.098   2.904  20.609  0.00  0.00    +0.000 C 
BRANCH  14  18
ATOM     18  O   UNL     1       2.143   1.664  18.408  0.00  0.00    +0.000 OA
ATOM     19  H   UNL     1       1.302   1.906  17.981  0.00  0.00    +0.000 HD
ENDBRANCH  14  18
ENDBRANCH  13  14
BRANCH  13  20
ATOM     20  O   UNL     1       4.841   2.028  19.454  0.00  0.00    +0.000 OA
ATOM     21  H   UNL     1       4.420   1.779  20.297  0.00  0.00    +0.000 HD
ENDBRANCH  13  20
ENDBRANCH  12  13
ENDBRANCH   1  12
TORSDOF 5
ENDMDL
MODEL 8
REMARK VINA RESULT:      -7.2      1.670      2.248
REMARK  Name = 
REMARK  5 active torsions:
REMARK  status: ('A' for Active; 'I' for Inactive)
REMARK    1  A    between atoms: O_1  and  C_2
REMARK    2  A    between atoms: C_2  and  C_3
REMARK    3  A    between atoms: C_2  and  C_15
REMARK    4  A    between atoms: C_3  and  N_4
REMARK    5  A    between atoms: C_15  and  O_16
REMARK                            x       y       z     vdW  Elec       q    Type
REMARK                         _______ _______ _______ _____ _____    ______ ____
ROOT
ATOM      1  N   UNL     1       5.577   4.520  16.536  0.00  0.00    +0.000 N 
ATOM      2  C   UNL     1       6.490   5.412  17.035  0.00  0.00    +0.000 A 
ATOM      3  N   UNL     1       7.372   5.767  16.130  0.00  0.00    +0.000 NA
ATOM      4  C   UNL     1       7.001   5.114  14.984  0.00  0.00    +0.000 A 
ATOM      5  C   UNL     1       7.586   5.166  13.710  0.00  0.00    +0.000 A 
ATOM      6  C   UNL     1       7.012   4.411  12.691  0.00  0.00    +0.000 A 
ATOM      7  F   UNL     1       7.549   4.456  11.462  0.00  0.00    +0.000 F 
ATOM      8  C   UNL     1       5.893   3.616  12.925  0.00  0.00    +0.000 A 
ATOM      9  F   UNL     1       5.362   2.903  11.923  0.00  0.00    +0.000 F 
ATOM     10  C   UNL     1       5.296   3.542  14.189  0.00  0.00    +0.000 A 
ATOM     11  C   UNL     1       5.876   4.314  15.207  0.00  0.00    +0.000 A 
ENDROOT
BRANCH   1  12
ATOM     12  C   UNL     1       4.479   3.944  17.302  0.00  0.00    +0.000 C 
BRANCH  12  13
ATOM     13  C   UNL     1       4.657   4.110  18.824  0.00  0.00    +0.000 C 
BRANCH  13  14
ATOM     14  C   UNL     1       3.319   4.499  19.490  0.00  0.00    +0.000 C 
ATOM     15  C   UNL     1       2.707   3.409  20.434  0.00  0.00    +0.000 C 
ATOM     16  C   UNL     1       1.320   3.795  19.891  0.00  0.00    +0.000 C 
ATOM     17  C   UNL     1       2.023   4.337  18.631  0.00  0.00    +0.000 C 
BRANCH  14  18
ATOM     18  O   UNL     1       3.452   5.810  20.105  0.00  0.00    +0.000 OA
ATOM     19  H   UNL     1       3.278   6.452  19.393  0.00  0.00    +0.000 HD
ENDBRANCH  14  18
ENDBRANCH  13  14
BRANCH  13  20
ATOM     20  O   UNL     1       5.143   2.891  19.401  0.00  0.00    +0.000 OA
ATOM     21  H   UNL     1       4.962   2.908  20.359  0.00  0.00    +0.000 HD
ENDBRANCH  13  20
ENDBRANCH  12  13
ENDBRANCH   1  12
TORSDOF 5
ENDMDL
MODEL 9
REMARK VINA RESULT:      -7.2      3.356      5.810
REMARK  Name = 
REMARK  5 active torsions:
REMARK  status: ('A' for Active; 'I' for Inactive)
REMARK    1  A    between atoms: O_1  and  C_2
REMARK    2  A    between atoms: C_2  and  C_3
REMARK    3  A    between atoms: C_2  and  C_15
REMARK    4  A    between atoms: C_3  and  N_4
REMARK    5  A    between atoms: C_15  and  O_16
REMARK                            x       y       z     vdW  Elec       q    Type
REMARK                         _______ _______ _______ _____ _____    ______ ____
ROOT
ATOM      1  N   UNL     1       3.614   6.200  17.806  0.00  0.00    +0.000 N 
ATOM      2  C   UNL     1       3.206   7.339  18.449  0.00  0.00    +0.000 A 
ATOM      3  N   UNL     1       2.398   7.075  19.449  0.00  0.00    +0.000 NA
ATOM      4  C   UNL     1       2.305   5.708  19.488  0.00  0.00    +0.000 A 
ATOM      5  C   UNL     1       1.593   4.898  20.386  0.00  0.00    +0.000 A 
ATOM      6  C   UNL     1       1.664   3.517  20.226  0.00  0.00    +0.000 A 
ATOM      7  F   UNL     1       1.000   2.725  21.081  0.00  0.00    +0.000 F 
ATOM      8  C   UNL     1       2.413   2.948  19.198  0.00  0.00    +0.000 A 
ATOM      9  F   UNL     1       2.463   1.616  19.071  0.00  0.00    +0.000 F 
ATOM     10  C   UNL     1       3.125   3.736  18.286  0.00  0.00    +0.000 A 
ATOM     11  C   UNL     1       3.055   5.126  18.463  0.00  0.00    +0.000 A 
ENDROOT
BRANCH   1  12
ATOM     12  C   UNL     1       4.511   6.174  16.657  0.00  0.00    +0.000 C 
BRANCH  12  13
ATOM     13  C   UNL     1       5.982   5.931  17.049  0.00  0.00    +0.000 C 
BRANCH  13  14
ATOM     14  C   UNL     1       6.619   4.859  16.137  0.00  0.00    +0.000 C 
ATOM     15  C   UNL     1       6.719   5.252  14.624  0.00  0.00    +0.000 C 
ATOM     16  C   UNL     1       6.357   3.797  14.278  0.00  0.00    +0.000 C 
ATOM     17  C   UNL     1       5.698   3.687  15.666  0.00  0.00    +0.000 C 
BRANCH  14  18
ATOM     18  O   UNL     1       7.875   4.417  16.720  0.00  0.00    +0.000 OA
ATOM     19  H   UNL     1       8.194   5.168  17.253  0.00  0.00    +0.000 HD
ENDBRANCH  14  18
ENDBRANCH  13  14
BRANCH  13  20
ATOM     20  O   UNL     1       6.729   7.150  16.951  0.00  0.00    +0.000 OA
ATOM     21  H   UNL     1       7.058   7.384  17.838  0.00  0.00    +0.000 HD
ENDBRANCH  13  20
ENDBRANCH  12  13
ENDBRANCH   1  12
TORSDOF 5
ENDMDL
