MODEL 1
REMARK VINA RESULT:      -8.1      0.000      0.000
REMARK  Name = 
REMARK  1 active torsions:
REMARK  status: ('A' for Active; 'I' for Inactive)
REMARK    1  A    between atoms: N_23  and  C_24
REMARK                            x       y       z     vdW  Elec       q    Type
REMARK                         _______ _______ _______ _____ _____    ______ ____
ROOT
ATOM      1  O   UNL     1       2.050  12.750  19.083  0.00  0.00    +0.000 OA
ATOM      2  C   UNL     1       0.854  12.535  19.254  0.00  0.00    +0.000 C 
ATOM      3  C   UNL     1      -0.170  13.701  19.623  0.00  0.00    +0.000 C 
ATOM      4  C   UNL     1      -0.318  14.939  20.713  0.00  0.00    +0.000 C 
ATOM      5  C   UNL     1      -0.252  15.387  22.259  0.00  0.00    +0.000 C 
ATOM      6  C   UNL     1      -1.570  16.127  22.643  0.00  0.00    +0.000 C 
ATOM      7  C   UNL     1      -2.359  16.105  21.377  0.00  0.00    +0.000 C 
ATOM      8  N   UNL     1      -1.780  15.063  20.542  0.00  0.00    +0.000 NA
ATOM      9  C   UNL     1      -2.336  13.650  20.611  0.00  0.00    +0.000 C 
ATOM     10  C   UNL     1      -3.897  13.828  20.721  0.00  0.00    +0.000 C 
ATOM     11  O   UNL     1      -4.658  14.457  20.008  0.00  0.00    +0.000 OA
ATOM     12  C   UNL     1      -4.292  13.339  22.069  0.00  0.00    +0.000 A 
ATOM     13  C   UNL     1      -5.402  13.585  22.858  0.00  0.00    +0.000 A 
ATOM     14  C   UNL     1      -5.456  13.012  24.149  0.00  0.00    +0.000 A 
ATOM     15  C   UNL     1      -4.392  12.218  24.644  0.00  0.00    +0.000 A 
ATOM     16  C   UNL     1      -3.249  12.084  23.868  0.00  0.00    +0.000 A 
ATOM     17  C   UNL     1      -3.225  12.657  22.643  0.00  0.00    +0.000 A 
ATOM     18  C   UNL     1      -2.025  12.851  21.816  0.00  0.00    +0.000 C 
ATOM     19  O   UNL     1      -0.928  12.406  22.159  0.00  0.00    +0.000 OA
ATOM     20  C   UNL     1      -1.546  13.029  19.430  0.00  0.00    +0.000 C 
ATOM     21  C   UNL     1      -1.151  11.530  19.351  0.00  0.00    +0.000 C 
ATOM     22  O   UNL     1      -1.984  10.640  19.582  0.00  0.00    +0.000 OA
ATOM     23  N   UNL     1       0.208  11.306  18.959  0.00  0.00    +0.000 N 
ENDROOT
BRANCH  23  24
ATOM     24  C   UNL     1       0.917   9.969  19.418  0.00  0.00    +0.000 A 
ATOM     25  C   UNL     1       0.603   9.865  20.763  0.00  0.00    +0.000 A 
ATOM     26  C   UNL     1       1.488   9.149  21.493  0.00  0.00    +0.000 A 
ATOM     27  C   UNL     1       1.377   7.864  21.072  0.00  0.00    +0.000 A 
ATOM     28  C   UNL     1       1.837   7.631  19.800  0.00  0.00    +0.000 A 
ATOM     29  C   UNL     1       2.328   6.291  19.707  0.00  0.00    +0.000 A 
ATOM     30  C   UNL     1       3.216   5.909  18.735  0.00  0.00    +0.000 A 
ATOM     31  C   UNL     1       3.537   6.867  17.806  0.00  0.00    +0.000 A 
ATOM     32  C   UNL     1       2.859   8.189  17.809  0.00  0.00    +0.000 A 
ATOM     33  C   UNL     1       1.886   8.732  18.860  0.00  0.00    +0.000 A 
ENDBRANCH  23  24
TORSDOF 1
ENDMDL
MODEL 2
REMARK VINA RESULT:      -7.9      6.318      7.769
REMARK  Name = 
REMARK  1 active torsions:
REMARK  status: ('A' for Active; 'I' for Inactive)
REMARK    1  A    between atoms: N_23  and  C_24
REMARK                            x       y       z     vdW  Elec       q    Type
REMARK                         _______ _______ _______ _____ _____    ______ ____
ROOT
ATOM      1  O   UNL     1       8.119  17.432  20.567  0.00  0.00    +0.000 OA
ATOM      2  C   UNL     1       7.233  16.939  19.876  0.00  0.00    +0.000 C 
ATOM      3  C   UNL     1       5.742  17.506  19.883  0.00  0.00    +0.000 C 
ATOM      4  C   UNL     1       4.561  17.909  20.972  0.00  0.00    +0.000 C 
ATOM      5  C   UNL     1       3.707  17.456  22.261  0.00  0.00    +0.000 C 
ATOM      6  C   UNL     1       2.185  17.610  21.957  0.00  0.00    +0.000 C 
ATOM      7  C   UNL     1       2.163  18.126  20.557  0.00  0.00    +0.000 C 
ATOM      8  N   UNL     1       3.467  17.828  19.982  0.00  0.00    +0.000 NA
ATOM      9  C   UNL     1       3.674  16.527  19.226  0.00  0.00    +0.000 C 
ATOM     10  C   UNL     1       2.353  16.320  18.394  0.00  0.00    +0.000 C 
ATOM     11  O   UNL     1       1.799  17.079  17.617  0.00  0.00    +0.000 OA
ATOM     12  C   UNL     1       1.676  15.119  18.950  0.00  0.00    +0.000 A 
ATOM     13  C   UNL     1       0.362  14.688  18.904  0.00  0.00    +0.000 A 
ATOM     14  C   UNL     1       0.009  13.512  19.604  0.00  0.00    +0.000 A 
ATOM     15  C   UNL     1       0.969  12.792  20.359  0.00  0.00    +0.000 A 
ATOM     16  C   UNL     1       2.250  13.315  20.472  0.00  0.00    +0.000 A 
ATOM     17  C   UNL     1       2.550  14.449  19.800  0.00  0.00    +0.000 A 
ATOM     18  C   UNL     1       3.744  15.280  20.018  0.00  0.00    +0.000 C 
ATOM     19  O   UNL     1       4.633  14.934  20.800  0.00  0.00    +0.000 OA
ATOM     20  C   UNL     1       5.096  16.800  18.673  0.00  0.00    +0.000 C 
ATOM     21  C   UNL     1       6.134  15.685  18.374  0.00  0.00    +0.000 C 
ATOM     22  O   UNL     1       5.813  14.673  17.731  0.00  0.00    +0.000 OA
ATOM     23  N   UNL     1       7.449  15.967  18.864  0.00  0.00    +0.000 N 
ENDROOT
BRANCH  23  24
ATOM     24  C   UNL     1       8.409  14.755  19.197  0.00  0.00    +0.000 A 
ATOM     25  C   UNL     1       7.992  14.327  20.446  0.00  0.00    +0.000 A 
ATOM     26  C   UNL     1       8.943  13.695  21.170  0.00  0.00    +0.000 A 
ATOM     27  C   UNL     1       9.189  12.523  20.533  0.00  0.00    +0.000 A 
ATOM     28  C   UNL     1       9.821  12.646  19.321  0.00  0.00    +0.000 A 
ATOM     29  C   UNL     1      10.628  11.490  19.082  0.00  0.00    +0.000 A 
ATOM     30  C   UNL     1      11.678  11.506  18.201  0.00  0.00    +0.000 A 
ATOM     31  C   UNL     1      11.852  12.672  17.498  0.00  0.00    +0.000 A 
ATOM     32  C   UNL     1      10.878  13.788  17.618  0.00  0.00    +0.000 A 
ATOM     33  C   UNL     1       9.700  13.892  18.591  0.00  0.00    +0.000 A 
ENDBRANCH  23  24
TORSDOF 1
ENDMDL
MODEL 3
REMARK VINA RESULT:      -7.8      2.679      7.619
REMARK  Name = 
REMARK  1 active torsions:
REMARK  status: ('A' for Active; 'I' for Inactive)
REMARK    1  A    between atoms: N_23  and  C_24
REMARK                            x       y       z     vdW  Elec       q    Type
REMARK                         _______ _______ _______ _____ _____    ______ ____
ROOT
ATOM      1  O   UNL     1      -0.551  15.858  23.528  0.00  0.00    +0.000 OA
ATOM      2  C   UNL     1      -0.765  14.718  23.129  0.00  0.00    +0.000 C 
ATOM      3  C   UNL     1       0.214  13.982  22.108  0.00  0.00    +0.000 C 
ATOM      4  C   UNL     1       0.950  14.268  20.653  0.00  0.00    +0.000 C 
ATOM      5  C   UNL     1       0.774  14.757  19.127  0.00  0.00    +0.000 C 
ATOM      6  C   UNL     1       1.366  13.682  18.165  0.00  0.00    +0.000 C 
ATOM      7  C   UNL     1       1.860  12.623  19.093  0.00  0.00    +0.000 C 
ATOM      8  N   UNL     1       1.190  12.839  20.367  0.00  0.00    +0.000 NA
ATOM      9  C   UNL     1      -0.119  12.123  20.658  0.00  0.00    +0.000 C 
ATOM     10  C   UNL     1       0.068  10.673  20.074  0.00  0.00    +0.000 C 
ATOM     11  O   UNL     1       0.952   9.860  20.283  0.00  0.00    +0.000 OA
ATOM     12  C   UNL     1      -0.880  10.540  18.936  0.00  0.00    +0.000 A 
ATOM     13  C   UNL     1      -0.906   9.692  17.842  0.00  0.00    +0.000 A 
ATOM     14  C   UNL     1      -1.924   9.863  16.877  0.00  0.00    +0.000 A 
ATOM     15  C   UNL     1      -2.890  10.892  17.004  0.00  0.00    +0.000 A 
ATOM     16  C   UNL     1      -2.765  11.791  18.054  0.00  0.00    +0.000 A 
ATOM     17  C   UNL     1      -1.772  11.607  18.952  0.00  0.00    +0.000 A 
ATOM     18  C   UNL     1      -1.327  12.594  19.947  0.00  0.00    +0.000 C 
ATOM     19  O   UNL     1      -1.915  13.668  20.094  0.00  0.00    +0.000 OA
ATOM     20  C   UNL     1      -0.277  12.520  22.148  0.00  0.00    +0.000 C 
ATOM     21  C   UNL     1      -1.649  12.672  22.859  0.00  0.00    +0.000 C 
ATOM     22  O   UNL     1      -2.525  11.801  22.744  0.00  0.00    +0.000 OA
ATOM     23  N   UNL     1      -1.762  13.856  23.656  0.00  0.00    +0.000 N 
ENDROOT
BRANCH  23  24
ATOM     24  C   UNL     1      -3.202  14.460  23.913  0.00  0.00    +0.000 A 
ATOM     25  C   UNL     1      -2.958  15.781  24.249  0.00  0.00    +0.000 A 
ATOM     26  C   UNL     1      -3.916  16.352  25.015  0.00  0.00    +0.000 A 
ATOM     27  C   UNL     1      -5.017  16.455  24.229  0.00  0.00    +0.000 A 
ATOM     28  C   UNL     1      -5.614  15.261  23.911  0.00  0.00    +0.000 A 
ATOM     29  C   UNL     1      -7.019  15.458  23.735  0.00  0.00    +0.000 A 
ATOM     30  C   UNL     1      -7.917  14.427  23.839  0.00  0.00    +0.000 A 
ATOM     31  C   UNL     1      -7.377  13.181  24.034  0.00  0.00    +0.000 A 
ATOM     32  C   UNL     1      -5.905  12.974  24.011  0.00  0.00    +0.000 A 
ATOM     33  C   UNL     1      -4.817  14.050  23.941  0.00  0.00    +0.000 A 
ENDBRANCH  23  24
TORSDOF 1
ENDMDL
MODEL 4
REMARK VINA RESULT:      -7.7      2.736      4.718
REMARK  Name = 
REMARK  1 active torsions:
REMARK  status: ('A' for Active; 'I' for Inactive)
REMARK    1  A    between atoms: N_23  and  C_24
REMARK                            x       y       z     vdW  Elec       q    Type
REMARK                         _______ _______ _______ _____ _____    ______ ____
ROOT
ATOM      1  O   UNL     1      -1.340   9.968  18.382  0.00  0.00    +0.000 OA
ATOM      2  C   UNL     1      -0.729  10.481  19.315  0.00  0.00    +0.000 C 
ATOM      3  C   UNL     1      -0.946  12.005  19.730  0.00  0.00    +0.000 C 
ATOM      4  C   UNL     1      -0.970  13.503  19.026  0.00  0.00    +0.000 C 
ATOM      5  C   UNL     1      -0.218  14.547  18.055  0.00  0.00    +0.000 C 
ATOM      6  C   UNL     1      -0.057  15.914  18.788  0.00  0.00    +0.000 C 
ATOM      7  C   UNL     1      -0.686  15.670  20.119  0.00  0.00    +0.000 C 
ATOM      8  N   UNL     1      -0.742  14.225  20.294  0.00  0.00    +0.000 NA
ATOM      9  C   UNL     1       0.403  13.509  20.991  0.00  0.00    +0.000 C 
ATOM     10  C   UNL     1       0.818  14.455  22.178  0.00  0.00    +0.000 C 
ATOM     11  O   UNL     1       0.132  14.937  23.063  0.00  0.00    +0.000 OA
ATOM     12  C   UNL     1       2.188  14.950  21.877  0.00  0.00    +0.000 A 
ATOM     13  C   UNL     1       2.894  16.055  22.318  0.00  0.00    +0.000 A 
ATOM     14  C   UNL     1       4.180  16.294  21.784  0.00  0.00    +0.000 A 
ATOM     15  C   UNL     1       4.736  15.439  20.800  0.00  0.00    +0.000 A 
ATOM     16  C   UNL     1       3.954  14.406  20.303  0.00  0.00    +0.000 A 
ATOM     17  C   UNL     1       2.723  14.213  20.826  0.00  0.00    +0.000 A 
ATOM     18  C   UNL     1       1.672  13.364  20.246  0.00  0.00    +0.000 C 
ATOM     19  O   UNL     1       1.883  12.672  19.248  0.00  0.00    +0.000 OA
ATOM     20  C   UNL     1      -0.233  12.098  21.095  0.00  0.00    +0.000 C 
ATOM     21  C   UNL     1       0.589  10.781  21.106  0.00  0.00    +0.000 C 
ATOM     22  O   UNL     1       1.581  10.657  21.842  0.00  0.00    +0.000 OA
ATOM     23  N   UNL     1       0.069   9.764  20.245  0.00  0.00    +0.000 N 
ENDROOT
BRANCH  23  24
ATOM     24  C   UNL     1       1.063   8.671  19.678  0.00  0.00    +0.000 A 
ATOM     25  C   UNL     1       1.556   9.236  18.514  0.00  0.00    +0.000 A 
ATOM     26  C   UNL     1       1.980   8.343  17.591  0.00  0.00    +0.000 A 
ATOM     27  C   UNL     1       3.085   7.753  18.114  0.00  0.00    +0.000 A 
ATOM     28  C   UNL     1       2.847   6.930  19.186  0.00  0.00    +0.000 A 
ATOM     29  C   UNL     1       3.820   5.883  19.211  0.00  0.00    +0.000 A 
ATOM     30  C   UNL     1       3.601   4.702  19.874  0.00  0.00    +0.000 A 
ATOM     31  C   UNL     1       2.429   4.622  20.583  0.00  0.00    +0.000 A 
ATOM     32  C   UNL     1       1.529   5.799  20.705  0.00  0.00    +0.000 A 
ATOM     33  C   UNL     1       1.655   7.144  19.983  0.00  0.00    +0.000 A 
ENDBRANCH  23  24
TORSDOF 1
ENDMDL
MODEL 5
REMARK VINA RESULT:      -7.6      7.250     10.800
REMARK  Name = 
REMARK  1 active torsions:
REMARK  status: ('A' for Active; 'I' for Inactive)
REMARK    1  A    between atoms: N_23  and  C_24
REMARK                            x       y       z     vdW  Elec       q    Type
REMARK                         _______ _______ _______ _____ _____    ______ ____
ROOT
ATOM      1  O   UNL     1       4.980  17.777  19.321  0.00  0.00    +0.000 OA
ATOM      2  C   UNL     1       5.675  16.909  19.838  0.00  0.00    +0.000 C 
ATOM      3  C   UNL     1       7.266  17.014  19.882  0.00  0.00    +0.000 C 
ATOM      4  C   UNL     1       8.530  17.301  18.851  0.00  0.00    +0.000 C 
ATOM      5  C   UNL     1       9.237  16.930  17.451  0.00  0.00    +0.000 C 
ATOM      6  C   UNL     1      10.733  16.571  17.703  0.00  0.00    +0.000 C 
ATOM      7  C   UNL     1      10.881  16.727  19.180  0.00  0.00    +0.000 C 
ATOM      8  N   UNL     1       9.538  16.690  19.740  0.00  0.00    +0.000 NA
ATOM      9  C   UNL     1       8.953  15.364  20.198  0.00  0.00    +0.000 C 
ATOM     10  C   UNL     1      10.145  14.607  20.895  0.00  0.00    +0.000 C 
ATOM     11  O   UNL     1      10.882  14.979  21.791  0.00  0.00    +0.000 OA
ATOM     12  C   UNL     1      10.454  13.422  20.052  0.00  0.00    +0.000 A 
ATOM     13  C   UNL     1      11.588  12.636  19.934  0.00  0.00    +0.000 A 
ATOM     14  C   UNL     1      11.597  11.600  18.974  0.00  0.00    +0.000 A 
ATOM     15  C   UNL     1      10.482  11.375  18.127  0.00  0.00    +0.000 A 
ATOM     16  C   UNL     1       9.409  12.251  18.199  0.00  0.00    +0.000 A 
ATOM     17  C   UNL     1       9.438  13.240  19.120  0.00  0.00    +0.000 A 
ATOM     18  C   UNL     1       8.539  14.403  19.153  0.00  0.00    +0.000 C 
ATOM     19  O   UNL     1       7.600  14.512  18.361  0.00  0.00    +0.000 OA
ATOM     20  C   UNL     1       7.662  15.898  20.870  0.00  0.00    +0.000 C 
ATOM     21  C   UNL     1       6.342  15.087  20.967  0.00  0.00    +0.000 C 
ATOM     22  O   UNL     1       6.347  13.907  21.352  0.00  0.00    +0.000 OA
ATOM     23  N   UNL     1       5.172  15.835  20.619  0.00  0.00    +0.000 N 
ENDROOT
BRANCH  23  24
ATOM     24  C   UNL     1       3.908  15.054  20.075  0.00  0.00    +0.000 A 
ATOM     25  C   UNL     1       4.176  14.876  18.729  0.00  0.00    +0.000 A 
ATOM     26  C   UNL     1       3.078  14.735  17.951  0.00  0.00    +0.000 A 
ATOM     27  C   UNL     1       2.522  13.545  18.293  0.00  0.00    +0.000 A 
ATOM     28  C   UNL     1       1.962  13.509  19.545  0.00  0.00    +0.000 A 
ATOM     29  C   UNL     1       0.868  12.589  19.554  0.00  0.00    +0.000 A 
ATOM     30  C   UNL     1      -0.127  12.651  20.496  0.00  0.00    +0.000 A 
ATOM     31  C   UNL     1       0.039  13.593  21.480  0.00  0.00    +0.000 A 
ATOM     32  C   UNL     1       1.284  14.400  21.563  0.00  0.00    +0.000 A 
ATOM     33  C   UNL     1       2.434  14.439  20.552  0.00  0.00    +0.000 A 
ENDBRANCH  23  24
TORSDOF 1
ENDMDL
MODEL 6
REMARK VINA RESULT:      -7.4      3.689      7.011
REMARK  Name = 
REMARK  1 active torsions:
REMARK  status: ('A' for Active; 'I' for Inactive)
REMARK    1  A    between atoms: N_23  and  C_24
REMARK                            x       y       z     vdW  Elec       q    Type
REMARK                         _______ _______ _______ _____ _____    ______ ____
ROOT
ATOM      1  O   UNL     1      -1.839  11.925  22.083  0.00  0.00    +0.000 OA
ATOM      2  C   UNL     1      -1.276  12.335  21.073  0.00  0.00    +0.000 C 
ATOM      3  C   UNL     1       0.040  13.234  21.144  0.00  0.00    +0.000 C 
ATOM      4  C   UNL     1       0.582  14.601  21.906  0.00  0.00    +0.000 C 
ATOM      5  C   UNL     1       0.289  16.141  22.279  0.00  0.00    +0.000 C 
ATOM      6  C   UNL     1       1.500  17.021  21.844  0.00  0.00    +0.000 C 
ATOM      7  C   UNL     1       2.447  16.034  21.246  0.00  0.00    +0.000 C 
ATOM      8  N   UNL     1       1.668  14.844  20.935  0.00  0.00    +0.000 NA
ATOM      9  C   UNL     1       1.047  14.694  19.556  0.00  0.00    +0.000 C 
ATOM     10  C   UNL     1       2.132  15.240  18.554  0.00  0.00    +0.000 C 
ATOM     11  O   UNL     1       3.303  14.926  18.434  0.00  0.00    +0.000 OA
ATOM     12  C   UNL     1       1.573  16.475  17.944  0.00  0.00    +0.000 A 
ATOM     13  C   UNL     1       2.172  17.557  17.321  0.00  0.00    +0.000 A 
ATOM     14  C   UNL     1       1.357  18.631  16.898  0.00  0.00    +0.000 A 
ATOM     15  C   UNL     1      -0.042  18.622  17.121  0.00  0.00    +0.000 A 
ATOM     16  C   UNL     1      -0.591  17.573  17.846  0.00  0.00    +0.000 A 
ATOM     17  C   UNL     1       0.219  16.568  18.247  0.00  0.00    +0.000 A 
ATOM     18  C   UNL     1      -0.125  15.539  19.240  0.00  0.00    +0.000 C 
ATOM     19  O   UNL     1      -1.256  15.468  19.726  0.00  0.00    +0.000 OA
ATOM     20  C   UNL     1       0.540  13.234  19.685  0.00  0.00    +0.000 C 
ATOM     21  C   UNL     1      -0.700  12.683  18.931  0.00  0.00    +0.000 C 
ATOM     22  O   UNL     1      -0.847  12.886  17.716  0.00  0.00    +0.000 OA
ATOM     23  N   UNL     1      -1.585  11.914  19.753  0.00  0.00    +0.000 N 
ENDROOT
BRANCH  23  24
ATOM     24  C   UNL     1      -3.111  11.825  19.343  0.00  0.00    +0.000 A 
ATOM     25  C   UNL     1      -3.114  10.997  18.233  0.00  0.00    +0.000 A 
ATOM     26  C   UNL     1      -4.158  11.185  17.395  0.00  0.00    +0.000 A 
ATOM     27  C   UNL     1      -5.262  10.769  18.066  0.00  0.00    +0.000 A 
ATOM     28  C   UNL     1      -5.629  11.563  19.124  0.00  0.00    +0.000 A 
ATOM     29  C   UNL     1      -7.046  11.504  19.298  0.00  0.00    +0.000 A 
ATOM     30  C   UNL     1      -7.738  12.485  19.962  0.00  0.00    +0.000 A 
ATOM     31  C   UNL     1      -6.977  13.479  20.524  0.00  0.00    +0.000 A 
ATOM     32  C   UNL     1      -5.493  13.409  20.501  0.00  0.00    +0.000 A 
ATOM     33  C   UNL     1      -4.622  12.388  19.762  0.00  0.00    +0.000 A 
ENDBRANCH  23  24
TORSDOF 1
ENDMDL
MODEL 7
REMARK VINA RESULT:      -7.3      2.571      8.051
REMARK  Name = 
REMARK  1 active torsions:
REMARK  status: ('A' for Active; 'I' for Inactive)
REMARK    1  A    between atoms: N_23  and  C_24
REMARK                            x       y       z     vdW  Elec       q    Type
REMARK                         _______ _______ _______ _____ _____    ______ ____
ROOT
ATOM      1  O   UNL     1      -2.049  16.366  23.854  0.00  0.00    +0.000 OA
ATOM      2  C   UNL     1      -2.029  15.187  23.515  0.00  0.00    +0.000 C 
ATOM      3  C   UNL     1      -0.718  14.501  22.920  0.00  0.00    +0.000 C 
ATOM      4  C   UNL     1       0.416  14.776  21.745  0.00  0.00    +0.000 C 
ATOM      5  C   UNL     1       0.693  15.149  20.202  0.00  0.00    +0.000 C 
ATOM      6  C   UNL     1       1.648  14.088  19.575  0.00  0.00    +0.000 C 
ATOM      7  C   UNL     1       1.908  13.147  20.703  0.00  0.00    +0.000 C 
ATOM      8  N   UNL     1       0.852  13.367  21.681  0.00  0.00    +0.000 NA
ATOM      9  C   UNL     1      -0.415  12.532  21.616  0.00  0.00    +0.000 C 
ATOM     10  C   UNL     1       0.068  11.077  21.256  0.00  0.00    +0.000 C 
ATOM     11  O   UNL     1       0.904  10.380  21.803  0.00  0.00    +0.000 OA
ATOM     12  C   UNL     1      -0.455  10.773  19.898  0.00  0.00    +0.000 A 
ATOM     13  C   UNL     1      -0.061   9.862  18.933  0.00  0.00    +0.000 A 
ATOM     14  C   UNL     1      -0.730   9.862  17.688  0.00  0.00    +0.000 A 
ATOM     15  C   UNL     1      -1.768  10.786  17.413  0.00  0.00    +0.000 A 
ATOM     16  C   UNL     1      -2.060  11.756  18.363  0.00  0.00    +0.000 A 
ATOM     17  C   UNL     1      -1.392  11.736  19.538  0.00  0.00    +0.000 A 
ATOM     18  C   UNL     1      -1.371  12.824  20.526  0.00  0.00    +0.000 C 
ATOM     19  O   UNL     1      -2.063  13.835  20.384  0.00  0.00    +0.000 OA
ATOM     20  C   UNL     1      -1.072  12.999  22.941  0.00  0.00    +0.000 C 
ATOM     21  C   UNL     1      -2.606  13.045  23.174  0.00  0.00    +0.000 C 
ATOM     22  O   UNL     1      -3.324  12.078  22.874  0.00  0.00    +0.000 OA
ATOM     23  N   UNL     1      -3.066  14.255  23.783  0.00  0.00    +0.000 N 
ENDROOT
BRANCH  23  24
ATOM     24  C   UNL     1      -4.558  14.714  23.524  0.00  0.00    +0.000 A 
ATOM     25  C   UNL     1      -5.322  13.742  24.148  0.00  0.00    +0.000 A 
ATOM     26  C   UNL     1      -6.567  13.594  23.639  0.00  0.00    +0.000 A 
ATOM     27  C   UNL     1      -7.241  14.731  23.948  0.00  0.00    +0.000 A 
ATOM     28  C   UNL     1      -6.817  15.852  23.281  0.00  0.00    +0.000 A 
ATOM     29  C   UNL     1      -7.916  16.749  23.106  0.00  0.00    +0.000 A 
ATOM     30  C   UNL     1      -7.916  17.718  22.135  0.00  0.00    +0.000 A 
ATOM     31  C   UNL     1      -6.762  17.831  21.401  0.00  0.00    +0.000 A 
ATOM     32  C   UNL     1      -5.562  17.021  21.737  0.00  0.00    +0.000 A 
ATOM     33  C   UNL     1      -5.462  15.893  22.768  0.00  0.00    +0.000 A 
ENDBRANCH  23  24
TORSDOF 1
ENDMDL
MODEL 8
REMARK VINA RESULT:      -7.3      3.798      6.125
REMARK  Name = 
REMARK  1 active torsions:
REMARK  status: ('A' for Active; 'I' for Inactive)
REMARK    1  A    between atoms: N_23  and  C_24
REMARK                            x       y       z     vdW  Elec       q    Type
REMARK                         _______ _______ _______ _____ _____    ______ ____
ROOT
ATOM      1  O   UNL     1      -1.286  12.388  18.197  0.00  0.00    +0.000 OA
ATOM      2  C   UNL     1      -1.655  12.750  19.310  0.00  0.00    +0.000 C 
ATOM      3  C   UNL     1      -3.056  12.297  19.924  0.00  0.00    +0.000 C 
ATOM      4  C   UNL     1      -4.655  12.250  19.496  0.00  0.00    +0.000 C 
ATOM      5  C   UNL     1      -5.912  13.059  18.895  0.00  0.00    +0.000 C 
ATOM      6  C   UNL     1      -7.125  12.931  19.867  0.00  0.00    +0.000 C 
ATOM      7  C   UNL     1      -6.591  12.088  20.976  0.00  0.00    +0.000 C 
ATOM      8  N   UNL     1      -5.139  12.152  20.888  0.00  0.00    +0.000 NA
ATOM      9  C   UNL     1      -4.386  13.211  21.675  0.00  0.00    +0.000 C 
ATOM     10  C   UNL     1      -5.119  13.288  23.066  0.00  0.00    +0.000 C 
ATOM     11  O   UNL     1      -5.376  12.398  23.857  0.00  0.00    +0.000 OA
ATOM     12  C   UNL     1      -5.755  14.630  23.145  0.00  0.00    +0.000 A 
ATOM     13  C   UNL     1      -6.804  15.118  23.905  0.00  0.00    +0.000 A 
ATOM     14  C   UNL     1      -7.228  16.450  23.698  0.00  0.00    +0.000 A 
ATOM     15  C   UNL     1      -6.614  17.272  22.720  0.00  0.00    +0.000 A 
ATOM     16  C   UNL     1      -5.641  16.714  21.903  0.00  0.00    +0.000 A 
ATOM     17  C   UNL     1      -5.268  15.433  22.119  0.00  0.00    +0.000 A 
ATOM     18  C   UNL     1      -4.472  14.608  21.197  0.00  0.00    +0.000 C 
ATOM     19  O   UNL     1      -3.997  15.079  20.161  0.00  0.00    +0.000 OA
ATOM     20  C   UNL     1      -2.940  12.721  21.403  0.00  0.00    +0.000 C 
ATOM     21  C   UNL     1      -1.705  13.661  21.361  0.00  0.00    +0.000 C 
ATOM     22  O   UNL     1      -1.514  14.501  22.254  0.00  0.00    +0.000 OA
ATOM     23  N   UNL     1      -0.834  13.426  20.250  0.00  0.00    +0.000 N 
ENDROOT
BRANCH  23  24
ATOM     24  C   UNL     1       0.061  14.621  19.724  0.00  0.00    +0.000 A 
ATOM     25  C   UNL     1       1.307  14.377  20.276  0.00  0.00    +0.000 A 
ATOM     26  C   UNL     1       2.077  15.477  20.435  0.00  0.00    +0.000 A 
ATOM     27  C   UNL     1       2.395  15.901  19.185  0.00  0.00    +0.000 A 
ATOM     28  C   UNL     1       1.346  16.416  18.466  0.00  0.00    +0.000 A 
ATOM     29  C   UNL     1       1.829  17.411  17.560  0.00  0.00    +0.000 A 
ATOM     30  C   UNL     1       1.009  18.378  17.038  0.00  0.00    +0.000 A 
ATOM     31  C   UNL     1      -0.319  18.279  17.368  0.00  0.00    +0.000 A 
ATOM     32  C   UNL     1      -0.828  17.120  18.146  0.00  0.00    +0.000 A 
ATOM     33  C   UNL     1      -0.004  16.010  18.806  0.00  0.00    +0.000 A 
ENDBRANCH  23  24
TORSDOF 1
ENDMDL
MODEL 9
REMARK VINA RESULT:      -7.3      1.809      2.007
REMARK  Name = 
REMARK  1 active torsions:
REMARK  status: ('A' for Active; 'I' for Inactive)
REMARK    1  A    between atoms: N_23  and  C_24
REMARK                            x       y       z     vdW  Elec       q    Type
REMARK                         _______ _______ _______ _____ _____    ______ ____
ROOT
ATOM      1  O   UNL     1       2.360  12.532  18.265  0.00  0.00    +0.000 OA
ATOM      2  C   UNL     1       1.257  12.713  18.771  0.00  0.00    +0.000 C 
ATOM      3  C   UNL     1       0.673  14.175  19.023  0.00  0.00    +0.000 C 
ATOM      4  C   UNL     1       1.136  15.607  19.714  0.00  0.00    +0.000 C 
ATOM      5  C   UNL     1       1.768  16.338  21.004  0.00  0.00    +0.000 C 
ATOM      6  C   UNL     1       0.822  17.490  21.462  0.00  0.00    +0.000 C 
ATOM      7  C   UNL     1      -0.301  17.426  20.483  0.00  0.00    +0.000 C 
ATOM      8  N   UNL     1      -0.245  16.107  19.869  0.00  0.00    +0.000 NA
ATOM      9  C   UNL     1      -1.045  14.964  20.471  0.00  0.00    +0.000 C 
ATOM     10  C   UNL     1      -2.419  15.604  20.896  0.00  0.00    +0.000 C 
ATOM     11  O   UNL     1      -3.208  16.258  20.235  0.00  0.00    +0.000 OA
ATOM     12  C   UNL     1      -2.480  15.550  22.381  0.00  0.00    +0.000 A 
ATOM     13  C   UNL     1      -3.215  16.270  23.308  0.00  0.00    +0.000 A 
ATOM     14  C   UNL     1      -2.994  16.027  24.682  0.00  0.00    +0.000 A 
ATOM     15  C   UNL     1      -2.028  15.085  25.115  0.00  0.00    +0.000 A 
ATOM     16  C   UNL     1      -1.234  14.465  24.160  0.00  0.00    +0.000 A 
ATOM     17  C   UNL     1      -1.462  14.729  22.854  0.00  0.00    +0.000 A 
ATOM     18  C   UNL     1      -0.561  14.388  21.744  0.00  0.00    +0.000 C 
ATOM     19  O   UNL     1       0.465  13.729  21.929  0.00  0.00    +0.000 OA
ATOM     20  C   UNL     1      -0.807  13.903  19.366  0.00  0.00    +0.000 C 
ATOM     21  C   UNL     1      -0.789  12.374  19.629  0.00  0.00    +0.000 C 
ATOM     22  O   UNL     1      -1.684  11.833  20.297  0.00  0.00    +0.000 OA
ATOM     23  N   UNL     1       0.302  11.689  19.004  0.00  0.00    +0.000 N 
ENDROOT
BRANCH  23  24
ATOM     24  C   UNL     1       0.811  10.335  19.644  0.00  0.00    +0.000 A 
ATOM     25  C   UNL     1       0.539  10.477  20.995  0.00  0.00    +0.000 A 
ATOM     26  C   UNL     1       1.330   9.741  21.808  0.00  0.00    +0.000 A 
ATOM     27  C   UNL     1       1.001   8.443  21.584  0.00  0.00    +0.000 A 
ATOM     28  C   UNL     1       1.367   7.959  20.353  0.00  0.00    +0.000 A 
ATOM     29  C   UNL     1       1.638   6.558  20.451  0.00  0.00    +0.000 A 
ATOM     30  C   UNL     1       2.415   5.902  19.532  0.00  0.00    +0.000 A 
ATOM     31  C   UNL     1       2.845   6.653  18.466  0.00  0.00    +0.000 A 
ATOM     32  C   UNL     1       2.383   8.054  18.284  0.00  0.00    +0.000 A 
ATOM     33  C   UNL     1       1.551   8.892  19.259  0.00  0.00    +0.000 A 
ENDBRANCH  23  24
TORSDOF 1
ENDMDL
