MODEL 1
REMARK VINA RESULT:      -6.7      0.000      0.000
REMARK  Name = 
REMARK  7 active torsions:
REMARK  status: ('A' for Active; 'I' for Inactive)
REMARK    1  A    between atoms: C_1  and  C_2
REMARK    2  A    between atoms: C_2  and  O_3
REMARK    3  A    between atoms: O_3  and  C_4
REMARK    4  A    between atoms: N_9  and  S_10
REMARK    5  A    between atoms: S_10  and  C_13
REMARK    6  A    between atoms: C_16  and  N_17
REMARK    7  A    between atoms: C_18  and  C_19
REMARK                            x       y       z     vdW  Elec       q    Type
REMARK                         _______ _______ _______ _____ _____    ______ ____
ROOT
ATOM      1  S   UNL     1       4.316   5.062  18.796  0.00  0.00    +0.000 S 
ATOM      2  O   UNL     1       4.010   3.682  19.103  0.00  0.00    +0.000 OA
ATOM      3  O   UNL     1       5.605   5.626  19.133  0.00  0.00    +0.000 OA
ENDROOT
BRANCH   1   9
ATOM      4  C   UNL     1       7.099   4.690  14.313  0.00  0.00    +0.000 C 
ATOM      5  O   UNL     1       7.813   5.611  13.932  0.00  0.00    +0.000 OA
ATOM      6  N   UNL     1       6.291   4.761  15.424  0.00  0.00    +0.000 N 
ATOM      7  C   UNL     1       6.236   6.014  16.171  0.00  0.00    +0.000 C 
ATOM      8  C   UNL     1       4.788   6.418  16.477  0.00  0.00    +0.000 C 
ATOM      9  N   UNL     1       4.025   5.312  17.134  0.00  0.00    +0.000 NA
ATOM     10  C   UNL     1       4.059   4.077  16.284  0.00  0.00    +0.000 C 
ATOM     11  C   UNL     1       5.497   3.645  15.956  0.00  0.00    +0.000 C 
BRANCH   4  12
ATOM     12  O   UNL     1       6.923   3.535  13.619  0.00  0.00    +0.000 OA
BRANCH  12  14
ATOM     13  C   UNL     1       5.068   3.453  12.115  0.00  0.00    +0.000 C 
ATOM     14  C   UNL     1       6.558   3.726  12.246  0.00  0.00    +0.000 C 
ENDBRANCH  12  14
ENDBRANCH   4  12
ENDBRANCH   1   9
BRANCH   1  15
ATOM     15  C   UNL     1       3.060   6.068  19.551  0.00  0.00    +0.000 A 
ATOM     16  C   UNL     1       2.270   5.502  20.551  0.00  0.00    +0.000 A 
ATOM     17  C   UNL     1       1.295   6.274  21.183  0.00  0.00    +0.000 A 
ATOM     18  C   UNL     1       1.103   7.616  20.840  0.00  0.00    +0.000 A 
ATOM     19  C   UNL     1       1.895   8.168  19.821  0.00  0.00    +0.000 A 
ATOM     20  C   UNL     1       2.879   7.402  19.179  0.00  0.00    +0.000 A 
BRANCH  18  21
ATOM     21  N   UNL     1       0.167   8.452  21.486  0.00  0.00    +0.000 N 
ATOM     22  C   UNL     1       0.430   9.359  22.502  0.00  0.00    +0.000 C 
ATOM     23  C   UNL     1      -0.775  10.156  22.928  0.00  0.00    +0.000 C 
ATOM     24  O   UNL     1       1.507   9.541  23.064  0.00  0.00    +0.000 OA
ATOM     25  H   UNL     1      -0.788   8.392  21.154  0.00  0.00    +0.000 HD
ENDBRANCH  18  21
ENDBRANCH   1  15
TORSDOF 5
ENDMDL
MODEL 2
REMARK VINA RESULT:      -6.6      1.700      2.377
REMARK  Name = 
REMARK  7 active torsions:
REMARK  status: ('A' for Active; 'I' for Inactive)
REMARK    1  A    between atoms: C_1  and  C_2
REMARK    2  A    between atoms: C_2  and  O_3
REMARK    3  A    between atoms: O_3  and  C_4
REMARK    4  A    between atoms: N_9  and  S_10
REMARK    5  A    between atoms: S_10  and  C_13
REMARK    6  A    between atoms: C_16  and  N_17
REMARK    7  A    between atoms: C_18  and  C_19
REMARK                            x       y       z     vdW  Elec       q    Type
REMARK                         _______ _______ _______ _____ _____    ______ ____
ROOT
ATOM      1  S   UNL     1       2.872   5.814  19.055  0.00  0.00    +0.000 S 
ATOM      2  O   UNL     1       2.309   5.521  17.755  0.00  0.00    +0.000 OA
ATOM      3  O   UNL     1       2.972   4.784  20.066  0.00  0.00    +0.000 OA
ENDROOT
BRANCH   1   9
ATOM      4  C   UNL     1       7.119   4.803  16.068  0.00  0.00    +0.000 C 
ATOM      5  O   UNL     1       7.963   3.988  16.422  0.00  0.00    +0.000 OA
ATOM      6  N   UNL     1       6.039   5.166  16.838  0.00  0.00    +0.000 N 
ATOM      7  C   UNL     1       5.907   4.592  18.174  0.00  0.00    +0.000 C 
ATOM      8  C   UNL     1       5.590   5.671  19.217  0.00  0.00    +0.000 C 
ATOM      9  N   UNL     1       4.413   6.505  18.820  0.00  0.00    +0.000 NA
ATOM     10  C   UNL     1       4.642   7.124  17.474  0.00  0.00    +0.000 C 
ATOM     11  C   UNL     1       4.964   6.068  16.404  0.00  0.00    +0.000 C 
BRANCH   4  12
ATOM     12  O   UNL     1       7.210   5.537  14.928  0.00  0.00    +0.000 OA
BRANCH  12  14
ATOM     13  C   UNL     1       6.045   3.929  13.598  0.00  0.00    +0.000 C 
ATOM     14  C   UNL     1       7.316   4.753  13.733  0.00  0.00    +0.000 C 
ENDBRANCH  12  14
ENDBRANCH   4  12
ENDBRANCH   1   9
BRANCH   1  15
ATOM     15  C   UNL     1       1.952   7.172  19.740  0.00  0.00    +0.000 A 
ATOM     16  C   UNL     1       1.796   8.322  18.969  0.00  0.00    +0.000 A 
ATOM     17  C   UNL     1       1.055   9.395  19.468  0.00  0.00    +0.000 A 
ATOM     18  C   UNL     1       0.453   9.331  20.728  0.00  0.00    +0.000 A 
ATOM     19  C   UNL     1       0.632   8.172  21.499  0.00  0.00    +0.000 A 
ATOM     20  C   UNL     1       1.374   7.088  21.009  0.00  0.00    +0.000 A 
BRANCH  18  21
ATOM     21  N   UNL     1      -0.349  10.366  21.254  0.00  0.00    +0.000 N 
ATOM     22  C   UNL     1      -0.504  10.694  22.593  0.00  0.00    +0.000 C 
ATOM     23  C   UNL     1      -1.374  11.902  22.823  0.00  0.00    +0.000 C 
ATOM     24  O   UNL     1      -0.028  10.099  23.555  0.00  0.00    +0.000 OA
ATOM     25  H   UNL     1      -0.844  10.935  20.577  0.00  0.00    +0.000 HD
ENDBRANCH  18  21
ENDBRANCH   1  15
TORSDOF 5
ENDMDL
MODEL 3
REMARK VINA RESULT:      -6.5      3.933      6.798
REMARK  Name = 
REMARK  7 active torsions:
REMARK  status: ('A' for Active; 'I' for Inactive)
REMARK    1  A    between atoms: C_1  and  C_2
REMARK    2  A    between atoms: C_2  and  O_3
REMARK    3  A    between atoms: O_3  and  C_4
REMARK    4  A    between atoms: N_9  and  S_10
REMARK    5  A    between atoms: S_10  and  C_13
REMARK    6  A    between atoms: C_16  and  N_17
REMARK    7  A    between atoms: C_18  and  C_19
REMARK                            x       y       z     vdW  Elec       q    Type
REMARK                         _______ _______ _______ _____ _____    ______ ____
ROOT
ATOM      1  S   UNL     1       6.870   5.184  17.625  0.00  0.00    +0.000 S 
ATOM      2  O   UNL     1       6.801   4.505  18.900  0.00  0.00    +0.000 OA
ATOM      3  O   UNL     1       7.617   4.614  16.524  0.00  0.00    +0.000 OA
ENDROOT
BRANCH   1   9
ATOM      4  C   UNL     1       2.072   3.143  18.517  0.00  0.00    +0.000 C 
ATOM      5  O   UNL     1       1.674   2.164  17.896  0.00  0.00    +0.000 OA
ATOM      6  N   UNL     1       3.274   3.765  18.272  0.00  0.00    +0.000 N 
ATOM      7  C   UNL     1       4.108   3.272  17.180  0.00  0.00    +0.000 C 
ATOM      8  C   UNL     1       4.612   4.423  16.299  0.00  0.00    +0.000 C 
ATOM      9  N   UNL     1       5.276   5.494  17.104  0.00  0.00    +0.000 NA
ATOM     10  C   UNL     1       4.344   6.008  18.160  0.00  0.00    +0.000 C 
ATOM     11  C   UNL     1       3.818   4.879  19.060  0.00  0.00    +0.000 C 
BRANCH   4  12
ATOM     12  O   UNL     1       1.326   3.805  19.439  0.00  0.00    +0.000 OA
BRANCH  12  14
ATOM     13  C   UNL     1       1.971   3.111  21.633  0.00  0.00    +0.000 C 
ATOM     14  C   UNL     1       0.911   2.997  20.548  0.00  0.00    +0.000 C 
ENDBRANCH  12  14
ENDBRANCH   4  12
ENDBRANCH   1   9
BRANCH   1  15
ATOM     15  C   UNL     1       7.493   6.821  17.924  0.00  0.00    +0.000 A 
ATOM     16  C   UNL     1       8.382   7.009  18.980  0.00  0.00    +0.000 A 
ATOM     17  C   UNL     1       8.911   8.277  19.223  0.00  0.00    +0.000 A 
ATOM     18  C   UNL     1       8.573   9.366  18.415  0.00  0.00    +0.000 A 
ATOM     19  C   UNL     1       7.664   9.165  17.365  0.00  0.00    +0.000 A 
ATOM     20  C   UNL     1       7.126   7.895  17.110  0.00  0.00    +0.000 A 
BRANCH  18  21
ATOM     21  N   UNL     1       9.121  10.656  18.587  0.00  0.00    +0.000 N 
ATOM     22  C   UNL     1       9.445  11.263  19.790  0.00  0.00    +0.000 C 
ATOM     23  C   UNL     1      10.083  12.619  19.630  0.00  0.00    +0.000 C 
ATOM     24  O   UNL     1       9.249  10.815  20.916  0.00  0.00    +0.000 OA
ATOM     25  H   UNL     1       9.310  11.176  17.738  0.00  0.00    +0.000 HD
ENDBRANCH  18  21
ENDBRANCH   1  15
TORSDOF 5
ENDMDL
MODEL 4
REMARK VINA RESULT:      -6.5      0.811      1.331
REMARK  Name = 
REMARK  7 active torsions:
REMARK  status: ('A' for Active; 'I' for Inactive)
REMARK    1  A    between atoms: C_1  and  C_2
REMARK    2  A    between atoms: C_2  and  O_3
REMARK    3  A    between atoms: O_3  and  C_4
REMARK    4  A    between atoms: N_9  and  S_10
REMARK    5  A    between atoms: S_10  and  C_13
REMARK    6  A    between atoms: C_16  and  N_17
REMARK    7  A    between atoms: C_18  and  C_19
REMARK                            x       y       z     vdW  Elec       q    Type
REMARK                         _______ _______ _______ _____ _____    ______ ____
ROOT
ATOM      1  S   UNL     1       3.627   5.238  19.210  0.00  0.00    +0.000 S 
ATOM      2  O   UNL     1       3.022   3.947  19.451  0.00  0.00    +0.000 OA
ATOM      3  O   UNL     1       4.964   5.527  19.681  0.00  0.00    +0.000 OA
ENDROOT
BRANCH   1   9
ATOM      4  C   UNL     1       6.847   4.662  15.053  0.00  0.00    +0.000 C 
ATOM      5  O   UNL     1       7.693   5.508  14.785  0.00  0.00    +0.000 OA
ATOM      6  N   UNL     1       5.931   4.796  16.070  0.00  0.00    +0.000 N 
ATOM      7  C   UNL     1       5.923   6.032  16.848  0.00  0.00    +0.000 C 
ATOM      8  C   UNL     1       4.500   6.583  17.005  0.00  0.00    +0.000 C 
ATOM      9  N   UNL     1       3.555   5.553  17.536  0.00  0.00    +0.000 NA
ATOM     10  C   UNL     1       3.556   4.340  16.654  0.00  0.00    +0.000 C 
ATOM     11  C   UNL     1       4.968   3.762  16.474  0.00  0.00    +0.000 C 
BRANCH   4  12
ATOM     12  O   UNL     1       6.632   3.548  14.307  0.00  0.00    +0.000 OA
BRANCH  12  14
ATOM     13  C   UNL     1       6.918   3.546  11.934  0.00  0.00    +0.000 C 
ATOM     14  C   UNL     1       5.943   3.793  13.074  0.00  0.00    +0.000 C 
ENDBRANCH  12  14
ENDBRANCH   4  12
ENDBRANCH   1   9
BRANCH   1  15
ATOM     15  C   UNL     1       2.532   6.472  19.871  0.00  0.00    +0.000 A 
ATOM     16  C   UNL     1       2.481   7.717  19.246  0.00  0.00    +0.000 A 
ATOM     17  C   UNL     1       1.610   8.697  19.724  0.00  0.00    +0.000 A 
ATOM     18  C   UNL     1       0.773   8.447  20.816  0.00  0.00    +0.000 A 
ATOM     19  C   UNL     1       0.846   7.195  21.444  0.00  0.00    +0.000 A 
ATOM     20  C   UNL     1       1.717   6.202  20.973  0.00  0.00    +0.000 A 
BRANCH  18  21
ATOM     21  N   UNL     1      -0.161   9.386  21.303  0.00  0.00    +0.000 N 
ATOM     22  C   UNL     1      -0.150   9.995  22.549  0.00  0.00    +0.000 C 
ATOM     23  C   UNL     1      -1.248  11.009  22.736  0.00  0.00    +0.000 C 
ATOM     24  O   UNL     1       0.633   9.773  23.469  0.00  0.00    +0.000 OA
ATOM     25  H   UNL     1      -0.902   9.650  20.664  0.00  0.00    +0.000 HD
ENDBRANCH  18  21
ENDBRANCH   1  15
TORSDOF 5
ENDMDL
MODEL 5
REMARK VINA RESULT:      -6.4      1.694      2.133
REMARK  Name = 
REMARK  7 active torsions:
REMARK  status: ('A' for Active; 'I' for Inactive)
REMARK    1  A    between atoms: C_1  and  C_2
REMARK    2  A    between atoms: C_2  and  O_3
REMARK    3  A    between atoms: O_3  and  C_4
REMARK    4  A    between atoms: N_9  and  S_10
REMARK    5  A    between atoms: S_10  and  C_13
REMARK    6  A    between atoms: C_16  and  N_17
REMARK    7  A    between atoms: C_18  and  C_19
REMARK                            x       y       z     vdW  Elec       q    Type
REMARK                         _______ _______ _______ _____ _____    ______ ____
ROOT
ATOM      1  S   UNL     1       2.904   5.830  19.138  0.00  0.00    +0.000 S 
ATOM      2  O   UNL     1       2.289   5.372  17.911  0.00  0.00    +0.000 OA
ATOM      3  O   UNL     1       3.101   4.925  20.249  0.00  0.00    +0.000 OA
ENDROOT
BRANCH   1   9
ATOM      4  C   UNL     1       6.949   4.754  15.903  0.00  0.00    +0.000 C 
ATOM      5  O   UNL     1       7.844   3.988  16.242  0.00  0.00    +0.000 OA
ATOM      6  N   UNL     1       5.917   5.134  16.730  0.00  0.00    +0.000 N 
ATOM      7  C   UNL     1       5.905   4.643  18.105  0.00  0.00    +0.000 C 
ATOM      8  C   UNL     1       5.630   5.778  19.101  0.00  0.00    +0.000 C 
ATOM      9  N   UNL     1       4.399   6.549  18.744  0.00  0.00    +0.000 NA
ATOM     10  C   UNL     1       4.506   7.087  17.348  0.00  0.00    +0.000 C 
ATOM     11  C   UNL     1       4.783   5.975  16.325  0.00  0.00    +0.000 C 
BRANCH   4  12
ATOM     12  O   UNL     1       6.931   5.416  14.717  0.00  0.00    +0.000 OA
BRANCH  12  14
ATOM     13  C   UNL     1       6.118   3.776  13.180  0.00  0.00    +0.000 C 
ATOM     14  C   UNL     1       7.317   4.614  13.593  0.00  0.00    +0.000 C 
ENDBRANCH  12  14
ENDBRANCH   4  12
ENDBRANCH   1   9
BRANCH   1  15
ATOM     15  C   UNL     1       1.961   7.220  19.720  0.00  0.00    +0.000 A 
ATOM     16  C   UNL     1       1.397   7.152  20.993  0.00  0.00    +0.000 A 
ATOM     17  C   UNL     1       0.675   8.238  21.489  0.00  0.00    +0.000 A 
ATOM     18  C   UNL     1       0.518   9.405  20.735  0.00  0.00    +0.000 A 
ATOM     19  C   UNL     1       1.078   9.453  19.449  0.00  0.00    +0.000 A 
ATOM     20  C   UNL     1       1.806   8.368  18.940  0.00  0.00    +0.000 A 
BRANCH  18  21
ATOM     21  N   UNL     1      -0.157  10.548  21.213  0.00  0.00    +0.000 N 
ATOM     22  C   UNL     1      -0.415  10.864  22.539  0.00  0.00    +0.000 C 
ATOM     23  C   UNL     1      -1.092  12.197  22.722  0.00  0.00    +0.000 C 
ATOM     24  O   UNL     1      -0.163  10.172  23.521  0.00  0.00    +0.000 OA
ATOM     25  H   UNL     1      -0.465  11.210  20.510  0.00  0.00    +0.000 HD
ENDBRANCH  18  21
ENDBRANCH   1  15
TORSDOF 5
ENDMDL
MODEL 6
REMARK VINA RESULT:      -6.4      2.014      7.853
REMARK  Name = 
REMARK  7 active torsions:
REMARK  status: ('A' for Active; 'I' for Inactive)
REMARK    1  A    between atoms: C_1  and  C_2
REMARK    2  A    between atoms: C_2  and  O_3
REMARK    3  A    between atoms: O_3  and  C_4
REMARK    4  A    between atoms: N_9  and  S_10
REMARK    5  A    between atoms: S_10  and  C_13
REMARK    6  A    between atoms: C_16  and  N_17
REMARK    7  A    between atoms: C_18  and  C_19
REMARK                            x       y       z     vdW  Elec       q    Type
REMARK                         _______ _______ _______ _____ _____    ______ ____
ROOT
ATOM      1  S   UNL     1       3.435   2.930  19.070  0.00  0.00    +0.000 S 
ATOM      2  O   UNL     1       3.962   3.244  20.380  0.00  0.00    +0.000 OA
ATOM      3  O   UNL     1       3.191   1.557  18.681  0.00  0.00    +0.000 OA
ENDROOT
BRANCH   1   9
ATOM      4  C   UNL     1       1.668   7.738  20.388  0.00  0.00    +0.000 C 
ATOM      5  O   UNL     1       1.174   7.952  21.489  0.00  0.00    +0.000 OA
ATOM      6  N   UNL     1       2.069   6.494  19.960  0.00  0.00    +0.000 N 
ATOM      7  C   UNL     1       1.853   5.348  20.839  0.00  0.00    +0.000 C 
ATOM      8  C   UNL     1       1.227   4.172  20.079  0.00  0.00    +0.000 C 
ATOM      9  N   UNL     1       2.001   3.826  18.847  0.00  0.00    +0.000 NA
ATOM     10  C   UNL     1       2.125   5.025  17.954  0.00  0.00    +0.000 C 
ATOM     11  C   UNL     1       2.748   6.224  18.686  0.00  0.00    +0.000 C 
BRANCH   4  12
ATOM     12  O   UNL     1       1.768   8.677  19.412  0.00  0.00    +0.000 OA
BRANCH  12  14
ATOM     13  C   UNL     1       0.211  10.030  18.205  0.00  0.00    +0.000 C 
ATOM     14  C   UNL     1       0.857   9.774  19.558  0.00  0.00    +0.000 C 
ENDBRANCH  12  14
ENDBRANCH   4  12
ENDBRANCH   1   9
BRANCH   1  15
ATOM     15  C   UNL     1       4.523   3.658  17.868  0.00  0.00    +0.000 A 
ATOM     16  C   UNL     1       5.692   4.269  18.317  0.00  0.00    +0.000 A 
ATOM     17  C   UNL     1       6.581   4.824  17.395  0.00  0.00    +0.000 A 
ATOM     18  C   UNL     1       6.326   4.767  16.022  0.00  0.00    +0.000 A 
ATOM     19  C   UNL     1       5.137   4.162  15.586  0.00  0.00    +0.000 A 
ATOM     20  C   UNL     1       4.236   3.601  16.502  0.00  0.00    +0.000 A 
BRANCH  18  21
ATOM     21  N   UNL     1       7.218   5.267  15.049  0.00  0.00    +0.000 N 
ATOM     22  C   UNL     1       7.287   4.886  13.717  0.00  0.00    +0.000 C 
ATOM     23  C   UNL     1       8.301   5.663  12.919  0.00  0.00    +0.000 C 
ATOM     24  O   UNL     1       6.634   4.002  13.171  0.00  0.00    +0.000 OA
ATOM     25  H   UNL     1       7.856   5.990  15.359  0.00  0.00    +0.000 HD
ENDBRANCH  18  21
ENDBRANCH   1  15
TORSDOF 5
ENDMDL
MODEL 7
REMARK VINA RESULT:      -6.4      4.241      7.076
REMARK  Name = 
REMARK  7 active torsions:
REMARK  status: ('A' for Active; 'I' for Inactive)
REMARK    1  A    between atoms: C_1  and  C_2
REMARK    2  A    between atoms: C_2  and  O_3
REMARK    3  A    between atoms: O_3  and  C_4
REMARK    4  A    between atoms: N_9  and  S_10
REMARK    5  A    between atoms: S_10  and  C_13
REMARK    6  A    between atoms: C_16  and  N_17
REMARK    7  A    between atoms: C_18  and  C_19
REMARK                            x       y       z     vdW  Elec       q    Type
REMARK                         _______ _______ _______ _____ _____    ______ ____
ROOT
ATOM      1  S   UNL     1       7.093   5.693  17.417  0.00  0.00    +0.000 S 
ATOM      2  O   UNL     1       7.669   4.705  18.302  0.00  0.00    +0.000 OA
ATOM      3  O   UNL     1       7.222   5.563  15.981  0.00  0.00    +0.000 OA
ENDROOT
BRANCH   1   9
ATOM      4  C   UNL     1       3.037   2.434  18.371  0.00  0.00    +0.000 C 
ATOM      5  O   UNL     1       2.378   1.958  17.454  0.00  0.00    +0.000 OA
ATOM      6  N   UNL     1       4.048   3.349  18.189  0.00  0.00    +0.000 N 
ATOM      7  C   UNL     1       4.327   3.822  16.836  0.00  0.00    +0.000 C 
ATOM      8  C   UNL     1       4.460   5.350  16.796  0.00  0.00    +0.000 C 
ATOM      9  N   UNL     1       5.441   5.854  17.807  0.00  0.00    +0.000 NA
ATOM     10  C   UNL     1       5.057   5.394  19.182  0.00  0.00    +0.000 C 
ATOM     11  C   UNL     1       4.914   3.866  19.256  0.00  0.00    +0.000 C 
BRANCH   4  12
ATOM     12  O   UNL     1       2.771   2.213  19.685  0.00  0.00    +0.000 OA
BRANCH  12  14
ATOM     13  C   UNL     1       1.454   2.676  21.625  0.00  0.00    +0.000 C 
ATOM     14  C   UNL     1       1.475   2.661  20.105  0.00  0.00    +0.000 C 
ENDBRANCH  12  14
ENDBRANCH   4  12
ENDBRANCH   1   9
BRANCH   1  15
ATOM     15  C   UNL     1       7.746   7.277  17.888  0.00  0.00    +0.000 A 
ATOM     16  C   UNL     1       7.407   8.389  17.119  0.00  0.00    +0.000 A 
ATOM     17  C   UNL     1       7.881   9.651  17.480  0.00  0.00    +0.000 A 
ATOM     18  C   UNL     1       8.683   9.823  18.612  0.00  0.00    +0.000 A 
ATOM     19  C   UNL     1       9.029   8.692  19.367  0.00  0.00    +0.000 A 
ATOM     20  C   UNL     1       8.559   7.419  19.015  0.00  0.00    +0.000 A 
BRANCH  18  21
ATOM     21  N   UNL     1       9.143  11.085  19.048  0.00  0.00    +0.000 N 
ATOM     22  C   UNL     1      10.153  11.841  18.473  0.00  0.00    +0.000 C 
ATOM     23  C   UNL     1      10.356  13.180  19.133  0.00  0.00    +0.000 C 
ATOM     24  O   UNL     1      10.869  11.516  17.530  0.00  0.00    +0.000 OA
ATOM     25  H   UNL     1       8.669  11.478  19.852  0.00  0.00    +0.000 HD
ENDBRANCH  18  21
ENDBRANCH   1  15
TORSDOF 5
ENDMDL
MODEL 8
REMARK VINA RESULT:      -6.4      1.907      8.023
REMARK  Name = 
REMARK  7 active torsions:
REMARK  status: ('A' for Active; 'I' for Inactive)
REMARK    1  A    between atoms: C_1  and  C_2
REMARK    2  A    between atoms: C_2  and  O_3
REMARK    3  A    between atoms: O_3  and  C_4
REMARK    4  A    between atoms: N_9  and  S_10
REMARK    5  A    between atoms: S_10  and  C_13
REMARK    6  A    between atoms: C_16  and  N_17
REMARK    7  A    between atoms: C_18  and  C_19
REMARK                            x       y       z     vdW  Elec       q    Type
REMARK                         _______ _______ _______ _____ _____    ______ ____
ROOT
ATOM      1  S   UNL     1       3.820   3.340  18.965  0.00  0.00    +0.000 S 
ATOM      2  O   UNL     1       4.319   3.825  20.233  0.00  0.00    +0.000 OA
ATOM      3  O   UNL     1       3.597   1.927  18.751  0.00  0.00    +0.000 OA
ENDROOT
BRANCH   1   9
ATOM      4  C   UNL     1       1.563   7.890  20.446  0.00  0.00    +0.000 C 
ATOM      5  O   UNL     1       0.894   7.961  21.470  0.00  0.00    +0.000 OA
ATOM      6  N   UNL     1       2.105   6.719  19.969  0.00  0.00    +0.000 N 
ATOM      7  C   UNL     1       1.832   5.477  20.687  0.00  0.00    +0.000 C 
ATOM      8  C   UNL     1       1.408   4.359  19.726  0.00  0.00    +0.000 C 
ATOM      9  N   UNL     1       2.382   4.184  18.605  0.00  0.00    +0.000 NA
ATOM     10  C   UNL     1       2.562   5.475  17.864  0.00  0.00    +0.000 C 
ATOM     11  C   UNL     1       2.987   6.619  18.798  0.00  0.00    +0.000 C 
BRANCH   4  12
ATOM     12  O   UNL     1       1.750   8.931  19.594  0.00  0.00    +0.000 OA
BRANCH  12  14
ATOM     13  C   UNL     1      -0.081  10.036  18.527  0.00  0.00    +0.000 C 
ATOM     14  C   UNL     1       0.810  10.000  19.759  0.00  0.00    +0.000 C 
ENDBRANCH  12  14
ENDBRANCH   4  12
ENDBRANCH   1   9
BRANCH   1  15
ATOM     15  C   UNL     1       4.923   3.922  17.699  0.00  0.00    +0.000 A 
ATOM     16  C   UNL     1       4.576   3.705  16.366  0.00  0.00    +0.000 A 
ATOM     17  C   UNL     1       5.407   4.176  15.349  0.00  0.00    +0.000 A 
ATOM     18  C   UNL     1       6.581   4.875  15.643  0.00  0.00    +0.000 A 
ATOM     19  C   UNL     1       6.926   5.073  16.989  0.00  0.00    +0.000 A 
ATOM     20  C   UNL     1       6.098   4.605  18.020  0.00  0.00    +0.000 A 
BRANCH  18  21
ATOM     21  N   UNL     1       7.427   5.416  14.650  0.00  0.00    +0.000 N 
ATOM     22  C   UNL     1       7.497   5.028  13.321  0.00  0.00    +0.000 C 
ATOM     23  C   UNL     1       8.452   5.854  12.499  0.00  0.00    +0.000 C 
ATOM     24  O   UNL     1       6.889   4.102  12.793  0.00  0.00    +0.000 OA
ATOM     25  H   UNL     1       8.027   6.178  14.943  0.00  0.00    +0.000 HD
ENDBRANCH  18  21
ENDBRANCH   1  15
TORSDOF 5
ENDMDL
MODEL 9
REMARK VINA RESULT:      -6.3      4.275      7.038
REMARK  Name = 
REMARK  7 active torsions:
REMARK  status: ('A' for Active; 'I' for Inactive)
REMARK    1  A    between atoms: C_1  and  C_2
REMARK    2  A    between atoms: C_2  and  O_3
REMARK    3  A    between atoms: O_3  and  C_4
REMARK    4  A    between atoms: N_9  and  S_10
REMARK    5  A    between atoms: S_10  and  C_13
REMARK    6  A    between atoms: C_16  and  N_17
REMARK    7  A    between atoms: C_18  and  C_19
REMARK                            x       y       z     vdW  Elec       q    Type
REMARK                         _______ _______ _______ _____ _____    ______ ____
ROOT
ATOM      1  S   UNL     1       7.161   5.872  17.529  0.00  0.00    +0.000 S 
ATOM      2  O   UNL     1       7.744   4.984  18.510  0.00  0.00    +0.000 OA
ATOM      3  O   UNL     1       7.368   5.649  16.114  0.00  0.00    +0.000 OA
ENDROOT
BRANCH   1   9
ATOM      4  C   UNL     1       3.199   2.454  18.303  0.00  0.00    +0.000 C 
ATOM      5  O   UNL     1       2.610   1.942  17.358  0.00  0.00    +0.000 OA
ATOM      6  N   UNL     1       4.180   3.408  18.164  0.00  0.00    +0.000 N 
ATOM      7  C   UNL     1       4.511   3.882  16.823  0.00  0.00    +0.000 C 
ATOM      8  C   UNL     1       4.581   5.414  16.775  0.00  0.00    +0.000 C 
ATOM      9  N   UNL     1       5.486   5.967  17.830  0.00  0.00    +0.000 NA
ATOM     10  C   UNL     1       5.049   5.502  19.187  0.00  0.00    +0.000 C 
ATOM     11  C   UNL     1       4.966   3.970  19.270  0.00  0.00    +0.000 C 
BRANCH   4  12
ATOM     12  O   UNL     1       2.874   2.232  19.603  0.00  0.00    +0.000 OA
BRANCH  12  14
ATOM     13  C   UNL     1       1.292   3.553  20.813  0.00  0.00    +0.000 C 
ATOM     14  C   UNL     1       1.475   2.361  19.888  0.00  0.00    +0.000 C 
ENDBRANCH  12  14
ENDBRANCH   4  12
ENDBRANCH   1   9
BRANCH   1  15
ATOM     15  C   UNL     1       7.705   7.520  17.911  0.00  0.00    +0.000 A 
ATOM     16  C   UNL     1       8.603   7.694  18.963  0.00  0.00    +0.000 A 
ATOM     17  C   UNL     1       9.071   8.973  19.269  0.00  0.00    +0.000 A 
ATOM     18  C   UNL     1       8.663  10.087  18.529  0.00  0.00    +0.000 A 
ATOM     19  C   UNL     1       7.747   9.898  17.483  0.00  0.00    +0.000 A 
ATOM     20  C   UNL     1       7.270   8.618  17.165  0.00  0.00    +0.000 A 
BRANCH  18  21
ATOM     21  N   UNL     1       9.148  11.391  18.766  0.00  0.00    +0.000 N 
ATOM     22  C   UNL     1      10.284  11.965  18.215  0.00  0.00    +0.000 C 
ATOM     23  C   UNL     1      10.487  13.404  18.611  0.00  0.00    +0.000 C 
ATOM     24  O   UNL     1      11.102  11.417  17.482  0.00  0.00    +0.000 OA
ATOM     25  H   UNL     1       8.593  11.967  19.388  0.00  0.00    +0.000 HD
ENDBRANCH  18  21
ENDBRANCH   1  15
TORSDOF 5
ENDMDL
