MODEL 1
REMARK VINA RESULT:      -9.5      0.000      0.000
REMARK  Name = 
REMARK  6 active torsions:
REMARK  status: ('A' for Active; 'I' for Inactive)
REMARK    1  A    between atoms: C_1  and  N_2
REMARK    2  A    between atoms: N_2  and  C_3
REMARK    3  A    between atoms: N_2  and  S_25
REMARK    4  A    between atoms: C_8  and  C_9
REMARK    5  A    between atoms: C_12  and  C_13
REMARK    6  A    between atoms: S_25  and  C_26
REMARK                            x       y       z     vdW  Elec       q    Type
REMARK                         _______ _______ _______ _____ _____    ______ ____
ROOT
ATOM      1  C   UNL     1       3.043   6.837  18.307  0.00  0.00    +0.000 A 
ATOM      2  C   UNL     1       2.766   6.449  19.629  0.00  0.00    +0.000 A 
ATOM      3  C   UNL     1       2.027   7.268  20.497  0.00  0.00    +0.000 A 
ATOM      4  C   UNL     1       1.493   8.495  20.070  0.00  0.00    +0.000 A 
ATOM      5  C   UNL     1       1.768   8.870  18.755  0.00  0.00    +0.000 A 
ATOM      6  F   UNL     1       1.323  10.039  18.268  0.00  0.00    +0.000 F 
ATOM      7  C   UNL     1       2.544   8.081  17.910  0.00  0.00    +0.000 A 
ENDROOT
BRANCH   4   8
ATOM      8  C   UNL     1       0.724   9.357  20.979  0.00  0.00    +0.000 A 
ATOM      9  C   UNL     1       0.802   9.249  22.375  0.00  0.00    +0.000 A 
ATOM     10  N   UNL     1       0.090   9.996  23.262  0.00  0.00    +0.000 NA
ATOM     11  C   UNL     1      -0.709  10.861  22.611  0.00  0.00    +0.000 A 
ATOM     12  N   UNL     1      -1.565  11.752  23.193  0.00  0.00    +0.000 N 
ATOM     13  C   UNL     1      -2.217  12.470  22.219  0.00  0.00    +0.000 A 
ATOM     14  C   UNL     1      -1.765  12.028  20.990  0.00  0.00    +0.000 A 
ATOM     15  C   UNL     1      -0.813  11.013  21.233  0.00  0.00    +0.000 A 
ATOM     16  N   UNL     1      -0.087  10.263  20.368  0.00  0.00    +0.000 NA
ATOM     17  H   UNL     1      -1.684  11.843  24.192  0.00  0.00    +0.000 HD
ENDBRANCH   4   8
BRANCH   1  23
ATOM     18  C   UNL     1       3.800   4.585  17.322  0.00  0.00    +0.000 A 
ATOM     19  C   UNL     1       4.576   3.879  16.388  0.00  0.00    +0.000 A 
ATOM     20  C   UNL     1       5.464   4.551  15.547  0.00  0.00    +0.000 A 
ATOM     21  C   UNL     1       5.571   5.933  15.620  0.00  0.00    +0.000 A 
ATOM     22  C   UNL     1       4.779   6.644  16.523  0.00  0.00    +0.000 A 
ATOM     23  C   UNL     1       3.875   6.001  17.400  0.00  0.00    +0.000 A 
BRANCH  18  25
ATOM     24  C   UNL     1       1.521   3.710  17.948  0.00  0.00    +0.000 C 
ATOM     25  N   UNL     1       2.963   3.823  18.211  0.00  0.00    +0.000 N 
BRANCH  25  26
ATOM     26  S   UNL     1       3.678   2.731  19.281  0.00  0.00    +0.000 S 
ATOM     27  C   UNL     1       2.622   2.852  20.712  0.00  0.00    +0.000 C 
ATOM     28  O   UNL     1       3.559   1.383  18.762  0.00  0.00    +0.000 OA
ATOM     29  O   UNL     1       4.970   3.271  19.664  0.00  0.00    +0.000 OA
ENDBRANCH  25  26
ENDBRANCH  18  25
ENDBRANCH   1  23
TORSDOF 4
ENDMDL
MODEL 2
REMARK VINA RESULT:      -9.1      1.282      1.613
REMARK  Name = 
REMARK  6 active torsions:
REMARK  status: ('A' for Active; 'I' for Inactive)
REMARK    1  A    between atoms: C_1  and  N_2
REMARK    2  A    between atoms: N_2  and  C_3
REMARK    3  A    between atoms: N_2  and  S_25
REMARK    4  A    between atoms: C_8  and  C_9
REMARK    5  A    between atoms: C_12  and  C_13
REMARK    6  A    between atoms: S_25  and  C_26
REMARK                            x       y       z     vdW  Elec       q    Type
REMARK                         _______ _______ _______ _____ _____    ______ ____
ROOT
ATOM      1  C   UNL     1       3.108   7.062  18.197  0.00  0.00    +0.000 A 
ATOM      2  C   UNL     1       2.729   8.240  17.530  0.00  0.00    +0.000 A 
ATOM      3  C   UNL     1       1.891   9.191  18.134  0.00  0.00    +0.000 A 
ATOM      4  C   UNL     1       1.428   9.028  19.450  0.00  0.00    +0.000 A 
ATOM      5  C   UNL     1       1.813   7.860  20.106  0.00  0.00    +0.000 A 
ATOM      6  F   UNL     1       1.395   7.606  21.356  0.00  0.00    +0.000 F 
ATOM      7  C   UNL     1       2.602   6.893  19.489  0.00  0.00    +0.000 A 
ENDROOT
BRANCH   4   8
ATOM      8  C   UNL     1       0.545  10.020  20.081  0.00  0.00    +0.000 A 
ATOM      9  C   UNL     1       0.715  10.455  21.404  0.00  0.00    +0.000 A 
ATOM     10  N   UNL     1      -0.090  11.343  22.049  0.00  0.00    +0.000 NA
ATOM     11  C   UNL     1      -1.083  11.750  21.237  0.00  0.00    +0.000 A 
ATOM     12  N   UNL     1      -2.074  12.630  21.566  0.00  0.00    +0.000 N 
ATOM     13  C   UNL     1      -2.909  12.810  20.489  0.00  0.00    +0.000 A 
ATOM     14  C   UNL     1      -2.439  12.028  19.452  0.00  0.00    +0.000 A 
ATOM     15  C   UNL     1      -1.287  11.357  19.919  0.00  0.00    +0.000 A 
ATOM     16  N   UNL     1      -0.466  10.478  19.294  0.00  0.00    +0.000 NA
ATOM     17  H   UNL     1      -2.158  13.065  22.474  0.00  0.00    +0.000 HD
ENDBRANCH   4   8
BRANCH   1  23
ATOM     18  C   UNL     1       3.604   4.647  17.466  0.00  0.00    +0.000 A 
ATOM     19  C   UNL     1       4.425   3.744  16.770  0.00  0.00    +0.000 A 
ATOM     20  C   UNL     1       5.613   4.172  16.177  0.00  0.00    +0.000 A 
ATOM     21  C   UNL     1       5.982   5.509  16.258  0.00  0.00    +0.000 A 
ATOM     22  C   UNL     1       5.154   6.418  16.919  0.00  0.00    +0.000 A 
ATOM     23  C   UNL     1       3.948   6.023  17.543  0.00  0.00    +0.000 A 
BRANCH  18  25
ATOM     24  C   UNL     1       1.127   4.184  17.449  0.00  0.00    +0.000 C 
ATOM     25  N   UNL     1       2.434   4.124  18.120  0.00  0.00    +0.000 N 
BRANCH  25  26
ATOM     26  S   UNL     1       2.623   3.079  19.431  0.00  0.00    +0.000 S 
ATOM     27  C   UNL     1       1.204   3.469  20.438  0.00  0.00    +0.000 C 
ATOM     28  O   UNL     1       2.482   1.705  18.991  0.00  0.00    +0.000 OA
ATOM     29  O   UNL     1       3.795   3.508  20.172  0.00  0.00    +0.000 OA
ENDBRANCH  25  26
ENDBRANCH  18  25
ENDBRANCH   1  23
TORSDOF 4
ENDMDL
MODEL 3
REMARK VINA RESULT:      -9.1      1.033      1.480
REMARK  Name = 
REMARK  6 active torsions:
REMARK  status: ('A' for Active; 'I' for Inactive)
REMARK    1  A    between atoms: C_1  and  N_2
REMARK    2  A    between atoms: N_2  and  C_3
REMARK    3  A    between atoms: N_2  and  S_25
REMARK    4  A    between atoms: C_8  and  C_9
REMARK    5  A    between atoms: C_12  and  C_13
REMARK    6  A    between atoms: S_25  and  C_26
REMARK                            x       y       z     vdW  Elec       q    Type
REMARK                         _______ _______ _______ _____ _____    ______ ____
ROOT
ATOM      1  C   UNL     1       3.634   6.620  17.908  0.00  0.00    +0.000 A 
ATOM      2  C   UNL     1       3.139   6.352  19.195  0.00  0.00    +0.000 A 
ATOM      3  C   UNL     1       2.259   7.232  19.845  0.00  0.00    +0.000 A 
ATOM      4  C   UNL     1       1.797   8.400  19.218  0.00  0.00    +0.000 A 
ATOM      5  C   UNL     1       2.288   8.657  17.939  0.00  0.00    +0.000 A 
ATOM      6  F   UNL     1       1.924   9.765  17.274  0.00  0.00    +0.000 F 
ATOM      7  C   UNL     1       3.201   7.811  17.316  0.00  0.00    +0.000 A 
ENDROOT
BRANCH   4   8
ATOM      8  C   UNL     1       0.880   9.326  19.898  0.00  0.00    +0.000 A 
ATOM      9  C   UNL     1       0.310  10.437  19.260  0.00  0.00    +0.000 A 
ATOM     10  N   UNL     1      -0.517  11.344  19.849  0.00  0.00    +0.000 NA
ATOM     11  C   UNL     1      -0.714  11.027  21.141  0.00  0.00    +0.000 A 
ATOM     12  N   UNL     1      -1.481  11.729  22.028  0.00  0.00    +0.000 N 
ATOM     13  C   UNL     1      -1.450  11.110  23.255  0.00  0.00    +0.000 A 
ATOM     14  C   UNL     1      -0.649   9.990  23.148  0.00  0.00    +0.000 A 
ATOM     15  C   UNL     1      -0.182   9.934  21.815  0.00  0.00    +0.000 A 
ATOM     16  N   UNL     1       0.632   9.038  21.205  0.00  0.00    +0.000 NA
ATOM     17  H   UNL     1      -1.979  12.575  21.791  0.00  0.00    +0.000 HD
ENDBRANCH   4   8
BRANCH   1  23
ATOM     18  C   UNL     1       4.481   4.311  17.159  0.00  0.00    +0.000 A 
ATOM     19  C   UNL     1       5.419   3.545  16.447  0.00  0.00    +0.000 A 
ATOM     20  C   UNL     1       6.519   4.151  15.838  0.00  0.00    +0.000 A 
ATOM     21  C   UNL     1       6.681   5.528  15.921  0.00  0.00    +0.000 A 
ATOM     22  C   UNL     1       5.735   6.299  16.598  0.00  0.00    +0.000 A 
ATOM     23  C   UNL     1       4.613   5.723  17.237  0.00  0.00    +0.000 A 
BRANCH  18  25
ATOM     24  C   UNL     1       2.083   3.540  17.208  0.00  0.00    +0.000 C 
ATOM     25  N   UNL     1       3.414   3.613  17.827  0.00  0.00    +0.000 N 
BRANCH  25  26
ATOM     26  S   UNL     1       3.788   2.540  19.074  0.00  0.00    +0.000 S 
ATOM     27  C   UNL     1       2.430   2.781  20.204  0.00  0.00    +0.000 C 
ATOM     28  O   UNL     1       3.716   1.177  18.589  0.00  0.00    +0.000 OA
ATOM     29  O   UNL     1       4.980   3.034  19.739  0.00  0.00    +0.000 OA
ENDBRANCH  25  26
ENDBRANCH  18  25
ENDBRANCH   1  23
TORSDOF 4
ENDMDL
MODEL 4
REMARK VINA RESULT:      -9.1      1.129      1.516
REMARK  Name = 
REMARK  6 active torsions:
REMARK  status: ('A' for Active; 'I' for Inactive)
REMARK    1  A    between atoms: C_1  and  N_2
REMARK    2  A    between atoms: N_2  and  C_3
REMARK    3  A    between atoms: N_2  and  S_25
REMARK    4  A    between atoms: C_8  and  C_9
REMARK    5  A    between atoms: C_12  and  C_13
REMARK    6  A    between atoms: S_25  and  C_26
REMARK                            x       y       z     vdW  Elec       q    Type
REMARK                         _______ _______ _______ _____ _____    ______ ____
ROOT
ATOM      1  C   UNL     1       3.081   7.018  18.238  0.00  0.00    +0.000 A 
ATOM      2  C   UNL     1       2.656   8.294  17.830  0.00  0.00    +0.000 A 
ATOM      3  C   UNL     1       1.868   9.108  18.659  0.00  0.00    +0.000 A 
ATOM      4  C   UNL     1       1.505   8.702  19.954  0.00  0.00    +0.000 A 
ATOM      5  C   UNL     1       1.936   7.437  20.353  0.00  0.00    +0.000 A 
ATOM      6  F   UNL     1       1.612   6.953  21.563  0.00  0.00    +0.000 F 
ATOM      7  C   UNL     1       2.673   6.609  19.512  0.00  0.00    +0.000 A 
ENDROOT
BRANCH   4   8
ATOM      8  C   UNL     1       0.675   9.550  20.821  0.00  0.00    +0.000 A 
ATOM      9  C   UNL     1       0.701   9.461  22.221  0.00  0.00    +0.000 A 
ATOM     10  N   UNL     1      -0.068  10.196  23.069  0.00  0.00    +0.000 NA
ATOM     11  C   UNL     1      -0.866  11.028  22.376  0.00  0.00    +0.000 A 
ATOM     12  N   UNL     1      -1.772  11.898  22.913  0.00  0.00    +0.000 N 
ATOM     13  C   UNL     1      -2.406  12.585  21.905  0.00  0.00    +0.000 A 
ATOM     14  C   UNL     1      -1.893  12.143  20.701  0.00  0.00    +0.000 A 
ATOM     15  C   UNL     1      -0.921  11.161  20.993  0.00  0.00    +0.000 A 
ATOM     16  N   UNL     1      -0.138  10.423  20.168  0.00  0.00    +0.000 NA
ATOM     17  H   UNL     1      -1.933  11.998  23.905  0.00  0.00    +0.000 HD
ENDBRANCH   4   8
BRANCH   1  23
ATOM     18  C   UNL     1       3.747   4.711  17.318  0.00  0.00    +0.000 A 
ATOM     19  C   UNL     1       4.480   3.950  16.393  0.00  0.00    +0.000 A 
ATOM     20  C   UNL     1       5.369   4.563  15.510  0.00  0.00    +0.000 A 
ATOM     21  C   UNL     1       5.520   5.944  15.532  0.00  0.00    +0.000 A 
ATOM     22  C   UNL     1       4.769   6.710  16.425  0.00  0.00    +0.000 A 
ATOM     23  C   UNL     1       3.866   6.126  17.344  0.00  0.00    +0.000 A 
BRANCH  18  25
ATOM     24  C   UNL     1       1.480   3.815  17.956  0.00  0.00    +0.000 C 
ATOM     25  N   UNL     1       2.907   4.007  18.251  0.00  0.00    +0.000 N 
BRANCH  25  26
ATOM     26  S   UNL     1       3.623   3.051  19.443  0.00  0.00    +0.000 S 
ATOM     27  C   UNL     1       3.568   1.426  18.712  0.00  0.00    +0.000 C 
ATOM     28  O   UNL     1       5.018   3.415  19.594  0.00  0.00    +0.000 OA
ATOM     29  O   UNL     1       2.730   3.028  20.586  0.00  0.00    +0.000 OA
ENDBRANCH  25  26
ENDBRANCH  18  25
ENDBRANCH   1  23
TORSDOF 4
ENDMDL
MODEL 5
REMARK VINA RESULT:      -9.1      1.247      1.871
REMARK  Name = 
REMARK  6 active torsions:
REMARK  status: ('A' for Active; 'I' for Inactive)
REMARK    1  A    between atoms: C_1  and  N_2
REMARK    2  A    between atoms: N_2  and  C_3
REMARK    3  A    between atoms: N_2  and  S_25
REMARK    4  A    between atoms: C_8  and  C_9
REMARK    5  A    between atoms: C_12  and  C_13
REMARK    6  A    between atoms: S_25  and  C_26
REMARK                            x       y       z     vdW  Elec       q    Type
REMARK                         _______ _______ _______ _____ _____    ______ ____
ROOT
ATOM      1  C   UNL     1       3.599   6.677  17.818  0.00  0.00    +0.000 A 
ATOM      2  C   UNL     1       3.209   7.900  17.247  0.00  0.00    +0.000 A 
ATOM      3  C   UNL     1       2.315   8.765  17.898  0.00  0.00    +0.000 A 
ATOM      4  C   UNL     1       1.803   8.466  19.171  0.00  0.00    +0.000 A 
ATOM      5  C   UNL     1       2.199   7.253  19.733  0.00  0.00    +0.000 A 
ATOM      6  F   UNL     1       1.737   6.870  20.934  0.00  0.00    +0.000 F 
ATOM      7  C   UNL     1       3.045   6.372  19.065  0.00  0.00    +0.000 A 
ENDROOT
BRANCH   4   8
ATOM      8  C   UNL     1       0.862   9.367  19.851  0.00  0.00    +0.000 A 
ATOM      9  C   UNL     1       0.211  10.423  19.195  0.00  0.00    +0.000 A 
ATOM     10  N   UNL     1      -0.642  11.306  19.781  0.00  0.00    +0.000 NA
ATOM     11  C   UNL     1      -0.778  11.027  21.091  0.00  0.00    +0.000 A 
ATOM     12  N   UNL     1      -1.550  11.720  21.979  0.00  0.00    +0.000 N 
ATOM     13  C   UNL     1      -1.445  11.149  23.226  0.00  0.00    +0.000 A 
ATOM     14  C   UNL     1      -0.589  10.070  23.128  0.00  0.00    +0.000 A 
ATOM     15  C   UNL     1      -0.166   9.988  21.783  0.00  0.00    +0.000 A 
ATOM     16  N   UNL     1       0.674   9.115  21.175  0.00  0.00    +0.000 NA
ATOM     17  H   UNL     1      -2.101  12.530  21.731  0.00  0.00    +0.000 HD
ENDBRANCH   4   8
BRANCH   1  23
ATOM     18  C   UNL     1       4.337   4.317  17.108  0.00  0.00    +0.000 A 
ATOM     19  C   UNL     1       5.197   3.500  16.356  0.00  0.00    +0.000 A 
ATOM     20  C   UNL     1       6.252   4.054  15.629  0.00  0.00    +0.000 A 
ATOM     21  C   UNL     1       6.445   5.429  15.633  0.00  0.00    +0.000 A 
ATOM     22  C   UNL     1       5.574   6.250  16.351  0.00  0.00    +0.000 A 
ATOM     23  C   UNL     1       4.501   5.728  17.109  0.00  0.00    +0.000 A 
BRANCH  18  25
ATOM     24  C   UNL     1       1.937   3.609  17.400  0.00  0.00    +0.000 C 
ATOM     25  N   UNL     1       3.319   3.675  17.896  0.00  0.00    +0.000 N 
BRANCH  25  26
ATOM     26  S   UNL     1       3.778   2.644  19.150  0.00  0.00    +0.000 S 
ATOM     27  C   UNL     1       2.486   2.903  20.351  0.00  0.00    +0.000 C 
ATOM     28  O   UNL     1       3.696   1.265  18.710  0.00  0.00    +0.000 OA
ATOM     29  O   UNL     1       5.001   3.170  19.729  0.00  0.00    +0.000 OA
ENDBRANCH  25  26
ENDBRANCH  18  25
ENDBRANCH   1  23
TORSDOF 4
ENDMDL
MODEL 6
REMARK VINA RESULT:      -9.0      2.545      3.474
REMARK  Name = 
REMARK  6 active torsions:
REMARK  status: ('A' for Active; 'I' for Inactive)
REMARK    1  A    between atoms: C_1  and  N_2
REMARK    2  A    between atoms: N_2  and  C_3
REMARK    3  A    between atoms: N_2  and  S_25
REMARK    4  A    between atoms: C_8  and  C_9
REMARK    5  A    between atoms: C_12  and  C_13
REMARK    6  A    between atoms: S_25  and  C_26
REMARK                            x       y       z     vdW  Elec       q    Type
REMARK                         _______ _______ _______ _____ _____    ______ ____
ROOT
ATOM      1  C   UNL     1       2.388   6.214  18.716  0.00  0.00    +0.000 A 
ATOM      2  C   UNL     1       2.323   7.245  17.763  0.00  0.00    +0.000 A 
ATOM      3  C   UNL     1       1.906   8.540  18.108  0.00  0.00    +0.000 A 
ATOM      4  C   UNL     1       1.577   8.876  19.431  0.00  0.00    +0.000 A 
ATOM      5  C   UNL     1       1.649   7.849  20.371  0.00  0.00    +0.000 A 
ATOM      6  F   UNL     1       1.325   8.070  21.655  0.00  0.00    +0.000 F 
ATOM      7  C   UNL     1       2.012   6.552  20.019  0.00  0.00    +0.000 A 
ENDROOT
BRANCH   4   8
ATOM      8  C   UNL     1       1.134  10.230  19.792  0.00  0.00    +0.000 A 
ATOM      9  C   UNL     1       1.046  10.672  21.121  0.00  0.00    +0.000 A 
ATOM     10  N   UNL     1       0.611  11.900  21.514  0.00  0.00    +0.000 NA
ATOM     11  C   UNL     1       0.274  12.642  20.443  0.00  0.00    +0.000 A 
ATOM     12  N   UNL     1      -0.210  13.919  20.477  0.00  0.00    +0.000 N 
ATOM     13  C   UNL     1      -0.443  14.358  19.195  0.00  0.00    +0.000 A 
ATOM     14  C   UNL     1      -0.099  13.340  18.327  0.00  0.00    +0.000 A 
ATOM     15  C   UNL     1       0.354  12.255  19.110  0.00  0.00    +0.000 A 
ATOM     16  N   UNL     1       0.798  11.028  18.742  0.00  0.00    +0.000 NA
ATOM     17  H   UNL     1      -0.368  14.436  21.330  0.00  0.00    +0.000 HD
ENDBRANCH   4   8
BRANCH   1  23
ATOM     18  C   UNL     1       4.109   4.393  18.133  0.00  0.00    +0.000 A 
ATOM     19  C   UNL     1       4.387   3.045  17.853  0.00  0.00    +0.000 A 
ATOM     20  C   UNL     1       3.355   2.113  17.741  0.00  0.00    +0.000 A 
ATOM     21  C   UNL     1       2.039   2.515  17.924  0.00  0.00    +0.000 A 
ATOM     22  C   UNL     1       1.757   3.846  18.236  0.00  0.00    +0.000 A 
ATOM     23  C   UNL     1       2.772   4.824  18.348  0.00  0.00    +0.000 A 
BRANCH  18  25
ATOM     24  C   UNL     1       6.023   5.460  19.376  0.00  0.00    +0.000 C 
ATOM     25  N   UNL     1       5.213   5.316  18.159  0.00  0.00    +0.000 N 
BRANCH  25  26
ATOM     26  S   UNL     1       5.832   5.897  16.700  0.00  0.00    +0.000 S 
ATOM     27  C   UNL     1       7.242   4.838  16.436  0.00  0.00    +0.000 C 
ATOM     28  O   UNL     1       4.889   5.644  15.629  0.00  0.00    +0.000 OA
ATOM     29  O   UNL     1       6.348   7.232  16.940  0.00  0.00    +0.000 OA
ENDBRANCH  25  26
ENDBRANCH  18  25
ENDBRANCH   1  23
TORSDOF 4
ENDMDL
MODEL 7
REMARK VINA RESULT:      -8.9      1.091      1.413
REMARK  Name = 
REMARK  6 active torsions:
REMARK  status: ('A' for Active; 'I' for Inactive)
REMARK    1  A    between atoms: C_1  and  N_2
REMARK    2  A    between atoms: N_2  and  C_3
REMARK    3  A    between atoms: N_2  and  S_25
REMARK    4  A    between atoms: C_8  and  C_9
REMARK    5  A    between atoms: C_12  and  C_13
REMARK    6  A    between atoms: S_25  and  C_26
REMARK                            x       y       z     vdW  Elec       q    Type
REMARK                         _______ _______ _______ _____ _____    ______ ____
ROOT
ATOM      1  C   UNL     1       3.203   6.797  18.169  0.00  0.00    +0.000 A 
ATOM      2  C   UNL     1       2.733   8.064  17.784  0.00  0.00    +0.000 A 
ATOM      3  C   UNL     1       1.948   8.851  18.643  0.00  0.00    +0.000 A 
ATOM      4  C   UNL     1       1.636   8.425  19.944  0.00  0.00    +0.000 A 
ATOM      5  C   UNL     1       2.111   7.170  20.320  0.00  0.00    +0.000 A 
ATOM      6  F   UNL     1       1.837   6.669  21.535  0.00  0.00    +0.000 F 
ATOM      7  C   UNL     1       2.845   6.368  19.450  0.00  0.00    +0.000 A 
ENDROOT
BRANCH   4   8
ATOM      8  C   UNL     1       0.810   9.245  20.842  0.00  0.00    +0.000 A 
ATOM      9  C   UNL     1      -0.024   8.691  21.825  0.00  0.00    +0.000 A 
ATOM     10  N   UNL     1      -0.834   9.398  22.659  0.00  0.00    +0.000 NA
ATOM     11  C   UNL     1      -0.725  10.716  22.411  0.00  0.00    +0.000 A 
ATOM     12  N   UNL     1      -1.404  11.709  23.057  0.00  0.00    +0.000 N 
ATOM     13  C   UNL     1      -1.040  12.930  22.540  0.00  0.00    +0.000 A 
ATOM     14  C   UNL     1      -0.109  12.709  21.544  0.00  0.00    +0.000 A 
ATOM     15  C   UNL     1       0.094  11.313  21.459  0.00  0.00    +0.000 A 
ATOM     16  N   UNL     1       0.899  10.588  20.644  0.00  0.00    +0.000 NA
ATOM     17  H   UNL     1      -2.071  11.542  23.797  0.00  0.00    +0.000 HD
ENDBRANCH   4   8
BRANCH   1  23
ATOM     18  C   UNL     1       3.879   4.518  17.189  0.00  0.00    +0.000 A 
ATOM     19  C   UNL     1       4.607   3.784  16.237  0.00  0.00    +0.000 A 
ATOM     20  C   UNL     1       5.477   4.426  15.356  0.00  0.00    +0.000 A 
ATOM     21  C   UNL     1       5.615   5.807  15.406  0.00  0.00    +0.000 A 
ATOM     22  C   UNL     1       4.869   6.546  16.327  0.00  0.00    +0.000 A 
ATOM     23  C   UNL     1       3.985   5.933  17.244  0.00  0.00    +0.000 A 
BRANCH  18  25
ATOM     24  C   UNL     1       1.615   3.653  17.878  0.00  0.00    +0.000 C 
ATOM     25  N   UNL     1       3.059   3.785  18.117  0.00  0.00    +0.000 N 
BRANCH  25  26
ATOM     26  S   UNL     1       3.796   2.739  19.217  0.00  0.00    +0.000 S 
ATOM     27  C   UNL     1       2.728   2.867  20.639  0.00  0.00    +0.000 C 
ATOM     28  O   UNL     1       3.715   1.376  18.731  0.00  0.00    +0.000 OA
ATOM     29  O   UNL     1       5.070   3.322  19.595  0.00  0.00    +0.000 OA
ENDBRANCH  25  26
ENDBRANCH  18  25
ENDBRANCH   1  23
TORSDOF 4
ENDMDL
MODEL 8
REMARK VINA RESULT:      -8.8      1.338      2.000
REMARK  Name = 
REMARK  6 active torsions:
REMARK  status: ('A' for Active; 'I' for Inactive)
REMARK    1  A    between atoms: C_1  and  N_2
REMARK    2  A    between atoms: N_2  and  C_3
REMARK    3  A    between atoms: N_2  and  S_25
REMARK    4  A    between atoms: C_8  and  C_9
REMARK    5  A    between atoms: C_12  and  C_13
REMARK    6  A    between atoms: S_25  and  C_26
REMARK                            x       y       z     vdW  Elec       q    Type
REMARK                         _______ _______ _______ _____ _____    ______ ____
ROOT
ATOM      1  C   UNL     1       3.229   7.068  18.041  0.00  0.00    +0.000 A 
ATOM      2  C   UNL     1       2.762   8.214  17.375  0.00  0.00    +0.000 A 
ATOM      3  C   UNL     1       1.851   9.096  17.978  0.00  0.00    +0.000 A 
ATOM      4  C   UNL     1       1.399   8.896  19.292  0.00  0.00    +0.000 A 
ATOM      5  C   UNL     1       1.871   7.760  19.947  0.00  0.00    +0.000 A 
ATOM      6  F   UNL     1       1.470   7.472  21.196  0.00  0.00    +0.000 F 
ATOM      7  C   UNL     1       2.734   6.857  19.331  0.00  0.00    +0.000 A 
ENDROOT
BRANCH   4   8
ATOM      8  C   UNL     1       0.440   9.815  19.923  0.00  0.00    +0.000 A 
ATOM      9  C   UNL     1      -0.228  10.823  19.211  0.00  0.00    +0.000 A 
ATOM     10  N   UNL     1      -1.097  11.721  19.749  0.00  0.00    +0.000 NA
ATOM     11  C   UNL     1      -1.231  11.509  21.071  0.00  0.00    +0.000 A 
ATOM     12  N   UNL     1      -2.016  12.235  21.921  0.00  0.00    +0.000 N 
ATOM     13  C   UNL     1      -1.903  11.733  23.196  0.00  0.00    +0.000 A 
ATOM     14  C   UNL     1      -1.028  10.665  23.157  0.00  0.00    +0.000 A 
ATOM     15  C   UNL     1      -0.601  10.520  21.818  0.00  0.00    +0.000 A 
ATOM     16  N   UNL     1       0.255   9.630  21.258  0.00  0.00    +0.000 NA
ATOM     17  H   UNL     1      -2.581  13.020  21.629  0.00  0.00    +0.000 HD
ENDBRANCH   4   8
BRANCH   1  23
ATOM     18  C   UNL     1       3.949   4.691  17.372  0.00  0.00    +0.000 A 
ATOM     19  C   UNL     1       4.834   3.853  16.673  0.00  0.00    +0.000 A 
ATOM     20  C   UNL     1       5.946   4.380  16.016  0.00  0.00    +0.000 A 
ATOM     21  C   UNL     1       6.174   5.749  16.036  0.00  0.00    +0.000 A 
ATOM     22  C   UNL     1       5.280   6.592  16.700  0.00  0.00    +0.000 A 
ATOM     23  C   UNL     1       4.148   6.097  17.387  0.00  0.00    +0.000 A 
BRANCH  18  25
ATOM     24  C   UNL     1       1.522   4.027  17.503  0.00  0.00    +0.000 C 
ATOM     25  N   UNL     1       2.867   4.074  18.093  0.00  0.00    +0.000 N 
BRANCH  25  26
ATOM     26  S   UNL     1       3.220   3.047  19.385  0.00  0.00    +0.000 S 
ATOM     27  C   UNL     1       3.315   1.454  18.591  0.00  0.00    +0.000 C 
ATOM     28  O   UNL     1       4.535   3.353  19.912  0.00  0.00    +0.000 OA
ATOM     29  O   UNL     1       2.057   3.015  20.253  0.00  0.00    +0.000 OA
ENDBRANCH  25  26
ENDBRANCH  18  25
ENDBRANCH   1  23
TORSDOF 4
ENDMDL
MODEL 9
REMARK VINA RESULT:      -8.7      3.826      8.740
REMARK  Name = 
REMARK  6 active torsions:
REMARK  status: ('A' for Active; 'I' for Inactive)
REMARK    1  A    between atoms: C_1  and  N_2
REMARK    2  A    between atoms: N_2  and  C_3
REMARK    3  A    between atoms: N_2  and  S_25
REMARK    4  A    between atoms: C_8  and  C_9
REMARK    5  A    between atoms: C_12  and  C_13
REMARK    6  A    between atoms: S_25  and  C_26
REMARK                            x       y       z     vdW  Elec       q    Type
REMARK                         _______ _______ _______ _____ _____    ______ ____
ROOT
ATOM      1  C   UNL     1       1.075   8.780  20.348  0.00  0.00    +0.000 A 
ATOM      2  C   UNL     1       1.485   9.087  19.040  0.00  0.00    +0.000 A 
ATOM      3  C   UNL     1       2.256   8.193  18.280  0.00  0.00    +0.000 A 
ATOM      4  C   UNL     1       2.614   6.930  18.778  0.00  0.00    +0.000 A 
ATOM      5  C   UNL     1       2.199   6.630  20.075  0.00  0.00    +0.000 A 
ATOM      6  F   UNL     1       2.521   5.458  20.644  0.00  0.00    +0.000 F 
ATOM      7  C   UNL     1       1.479   7.538  20.847  0.00  0.00    +0.000 A 
ENDROOT
BRANCH   4   8
ATOM      8  C   UNL     1       3.426   5.995  17.986  0.00  0.00    +0.000 A 
ATOM      9  C   UNL     1       2.999   4.696  17.670  0.00  0.00    +0.000 A 
ATOM     10  N   UNL     1       3.721   3.779  16.972  0.00  0.00    +0.000 NA
ATOM     11  C   UNL     1       4.915   4.291  16.621  0.00  0.00    +0.000 A 
ATOM     12  N   UNL     1       5.890   3.638  15.923  0.00  0.00    +0.000 N 
ATOM     13  C   UNL     1       6.970   4.471  15.749  0.00  0.00    +0.000 A 
ATOM     14  C   UNL     1       6.675   5.680  16.348  0.00  0.00    +0.000 A 
ATOM     15  C   UNL     1       5.379   5.571  16.900  0.00  0.00    +0.000 A 
ATOM     16  N   UNL     1       4.638   6.472  17.591  0.00  0.00    +0.000 NA
ATOM     17  H   UNL     1       5.805   2.685  15.600  0.00  0.00    +0.000 HD
ENDBRANCH   4   8
BRANCH   1  23
ATOM     18  C   UNL     1      -0.070  11.047  20.754  0.00  0.00    +0.000 A 
ATOM     19  C   UNL     1      -0.852  11.869  21.582  0.00  0.00    +0.000 A 
ATOM     20  C   UNL     1      -1.238  11.442  22.853  0.00  0.00    +0.000 A 
ATOM     21  C   UNL     1      -0.860  10.183  23.300  0.00  0.00    +0.000 A 
ATOM     22  C   UNL     1      -0.112   9.346  22.471  0.00  0.00    +0.000 A 
ATOM     23  C   UNL     1       0.308   9.746  21.181  0.00  0.00    +0.000 A 
BRANCH  18  25
ATOM     24  C   UNL     1      -0.534  11.510  18.321  0.00  0.00    +0.000 C 
ATOM     25  N   UNL     1       0.357  11.580  19.488  0.00  0.00    +0.000 N 
BRANCH  25  26
ATOM     26  S   UNL     1       1.666  12.645  19.444  0.00  0.00    +0.000 S 
ATOM     27  C   UNL     1       0.884  14.194  19.035  0.00  0.00    +0.000 C 
ATOM     28  O   UNL     1       2.237  12.779  20.769  0.00  0.00    +0.000 OA
ATOM     29  O   UNL     1       2.494  12.280  18.309  0.00  0.00    +0.000 OA
ENDBRANCH  25  26
ENDBRANCH  18  25
ENDBRANCH   1  23
TORSDOF 4
ENDMDL
