MODEL 1
REMARK VINA RESULT:      -8.4      0.000      0.000
REMARK  Name = 
REMARK  11 active torsions:
REMARK  status: ('A' for Active; 'I' for Inactive)
REMARK    1  A    between atoms: C_1  and  C_2
REMARK    2  A    between atoms: C_2  and  C_3
REMARK    3  A    between atoms: C_3  and  O_4
REMARK    4  A    between atoms: O_4  and  C_5
REMARK    5  A    between atoms: C_5  and  C_7
REMARK    6  A    between atoms: C_12  and  N_13
REMARK    7  A    between atoms: N_16  and  C_17
REMARK    8  A    between atoms: C_17  and  C_18
REMARK    9  A    between atoms: C_18  and  C_19
REMARK   10  A    between atoms: C_19  and  C_20
REMARK   11  A    between atoms: C_20  and  N_21
REMARK                            x       y       z     vdW  Elec       q    Type
REMARK                         _______ _______ _______ _____ _____    ______ ____
ROOT
ATOM      1  N   UNL     1       4.649   5.152  17.654  0.00  0.00    +0.000 N 
ATOM      2  C   UNL     1       5.491   5.787  18.678  0.00  0.00    +0.000 C 
ATOM      3  C   UNL     1       6.961   5.343  18.508  0.00  0.00    +0.000 C 
ATOM      4  N   UNL     1       7.522   5.655  17.170  0.00  0.00    +0.000 NA
ATOM      5  C   UNL     1       6.648   5.002  16.158  0.00  0.00    +0.000 C 
ATOM      6  C   UNL     1       5.122   5.305  16.267  0.00  0.00    +0.000 C 
ENDROOT
BRANCH   1  12
ATOM      7  C   UNL     1       2.495   4.505  18.718  0.00  0.00    +0.000 A 
ATOM      8  C   UNL     1       1.617   3.458  19.084  0.00  0.00    +0.000 A 
ATOM      9  C   UNL     1       1.908   2.131  18.770  0.00  0.00    +0.000 A 
ATOM     10  C   UNL     1       3.054   1.826  18.076  0.00  0.00    +0.000 A 
ATOM     11  C   UNL     1       3.917   2.856  17.687  0.00  0.00    +0.000 A 
ATOM     12  C   UNL     1       3.691   4.212  18.006  0.00  0.00    +0.000 A 
BRANCH   7  13
ATOM     13  C   UNL     1       2.205   5.854  19.289  0.00  0.00    +0.000 C 
ATOM     14  O   UNL     1       1.942   6.088  20.457  0.00  0.00    +0.000 OA
BRANCH  13  15
ATOM     15  O   UNL     1       2.168   6.781  18.287  0.00  0.00    +0.000 OA
BRANCH  15  16
ATOM     16  C   UNL     1       2.164   8.149  18.726  0.00  0.00    +0.000 C 
BRANCH  16  18
ATOM     17  C   UNL     1       0.450   9.957  18.454  0.00  0.00    +0.000 C 
ATOM     18  C   UNL     1       1.467   9.079  17.742  0.00  0.00    +0.000 C 
ENDBRANCH  16  18
ENDBRANCH  15  16
ENDBRANCH  13  15
ENDBRANCH   7  13
ENDBRANCH   1  12
BRANCH   4  19
ATOM     19  C   UNL     1       7.621   7.106  16.943  0.00  0.00    +0.000 C 
BRANCH  19  20
ATOM     20  C   UNL     1       8.158   7.865  18.173  0.00  0.00    +0.000 C 
BRANCH  20  21
ATOM     21  C   UNL     1       8.176   9.388  17.997  0.00  0.00    +0.000 C 
BRANCH  21  22
ATOM     22  C   UNL     1       9.225  10.009  18.910  0.00  0.00    +0.000 C 
BRANCH  22  23
ATOM     23  N   UNL     1       9.483  11.417  18.692  0.00  0.00    +0.000 N 
ATOM     24  C   UNL     1       8.627  12.137  17.762  0.00  0.00    +0.000 C 
ATOM     25  C   UNL     1       8.532  13.631  18.041  0.00  0.00    +0.000 C 
ATOM     26  O   UNL     1       7.520  14.275  17.774  0.00  0.00    +0.000 OA
ATOM     27  N   UNL     1       9.768  14.215  18.367  0.00  0.00    +0.000 N 
ATOM     28  C   UNL     1       9.749  15.662  18.471  0.00  0.00    +0.000 C 
ATOM     29  C   UNL     1      11.136  16.273  18.516  0.00  0.00    +0.000 C 
ATOM     30  C   UNL     1      12.083  15.601  19.498  0.00  0.00    +0.000 C 
ATOM     31  C   UNL     1      11.969  14.084  19.570  0.00  0.00    +0.000 C 
ATOM     32  C   UNL     1      10.564  13.505  19.370  0.00  0.00    +0.000 C 
ATOM     33  C   UNL     1      10.678  11.983  19.114  0.00  0.00    +0.000 C 
ATOM     34  O   UNL     1      11.623  11.306  19.522  0.00  0.00    +0.000 OA
ENDBRANCH  22  23
ENDBRANCH  21  22
ENDBRANCH  20  21
ENDBRANCH  19  20
ENDBRANCH   4  19
TORSDOF 10
ENDMDL
MODEL 2
REMARK VINA RESULT:      -8.3      1.313      1.475
REMARK  Name = 
REMARK  11 active torsions:
REMARK  status: ('A' for Active; 'I' for Inactive)
REMARK    1  A    between atoms: C_1  and  C_2
REMARK    2  A    between atoms: C_2  and  C_3
REMARK    3  A    between atoms: C_3  and  O_4
REMARK    4  A    between atoms: O_4  and  C_5
REMARK    5  A    between atoms: C_5  and  C_7
REMARK    6  A    between atoms: C_12  and  N_13
REMARK    7  A    between atoms: N_16  and  C_17
REMARK    8  A    between atoms: C_17  and  C_18
REMARK    9  A    between atoms: C_18  and  C_19
REMARK   10  A    between atoms: C_19  and  C_20
REMARK   11  A    between atoms: C_20  and  N_21
REMARK                            x       y       z     vdW  Elec       q    Type
REMARK                         _______ _______ _______ _____ _____    ______ ____
ROOT
ATOM      1  N   UNL     1       4.879   5.467  18.224  0.00  0.00    +0.000 N 
ATOM      2  C   UNL     1       5.837   5.363  19.334  0.00  0.00    +0.000 C 
ATOM      3  C   UNL     1       7.212   4.897  18.807  0.00  0.00    +0.000 C 
ATOM      4  N   UNL     1       7.782   5.790  17.768  0.00  0.00    +0.000 NA
ATOM      5  C   UNL     1       6.789   5.877  16.662  0.00  0.00    +0.000 C 
ATOM      6  C   UNL     1       5.334   6.263  17.071  0.00  0.00    +0.000 C 
ENDROOT
BRANCH   1  12
ATOM      7  C   UNL     1       2.451   4.969  18.455  0.00  0.00    +0.000 A 
ATOM      8  C   UNL     1       1.428   3.995  18.401  0.00  0.00    +0.000 A 
ATOM      9  C   UNL     1       1.708   2.673  18.059  0.00  0.00    +0.000 A 
ATOM     10  C   UNL     1       2.994   2.304  17.746  0.00  0.00    +0.000 A 
ATOM     11  C   UNL     1       4.011   3.265  17.771  0.00  0.00    +0.000 A 
ATOM     12  C   UNL     1       3.792   4.609  18.143  0.00  0.00    +0.000 A 
BRANCH   7  13
ATOM     13  C   UNL     1       2.087   6.293  19.042  0.00  0.00    +0.000 C 
ATOM     14  O   UNL     1       1.965   6.532  20.232  0.00  0.00    +0.000 OA
BRANCH  13  15
ATOM     15  O   UNL     1       1.803   7.179  18.041  0.00  0.00    +0.000 OA
BRANCH  15  16
ATOM     16  C   UNL     1       2.672   8.322  17.980  0.00  0.00    +0.000 C 
BRANCH  16  18
ATOM     17  C   UNL     1       0.576   9.551  18.599  0.00  0.00    +0.000 C 
ATOM     18  C   UNL     1       1.907   9.634  17.866  0.00  0.00    +0.000 C 
ENDBRANCH  16  18
ENDBRANCH  15  16
ENDBRANCH  13  15
ENDBRANCH   7  13
ENDBRANCH   1  12
BRANCH   4  19
ATOM     19  C   UNL     1       8.106   7.121  18.308  0.00  0.00    +0.000 C 
BRANCH  19  20
ATOM     20  C   UNL     1       7.899   8.247  17.276  0.00  0.00    +0.000 C 
BRANCH  20  21
ATOM     21  C   UNL     1       7.960   9.655  17.880  0.00  0.00    +0.000 C 
BRANCH  21  22
ATOM     22  C   UNL     1       9.071   9.732  18.920  0.00  0.00    +0.000 C 
BRANCH  22  23
ATOM     23  N   UNL     1       9.682  11.034  19.081  0.00  0.00    +0.000 N 
ATOM     24  C   UNL     1      10.628  11.479  18.069  0.00  0.00    +0.000 C 
ATOM     25  C   UNL     1      10.735  12.993  17.948  0.00  0.00    +0.000 C 
ATOM     26  O   UNL     1      11.005  13.539  16.880  0.00  0.00    +0.000 OA
ATOM     27  N   UNL     1      10.761  13.650  19.190  0.00  0.00    +0.000 N 
ATOM     28  C   UNL     1      11.034  15.073  19.121  0.00  0.00    +0.000 C 
ATOM     29  C   UNL     1      11.356  15.682  20.471  0.00  0.00    +0.000 C 
ATOM     30  C   UNL     1      10.387  15.298  21.578  0.00  0.00    +0.000 C 
ATOM     31  C   UNL     1       9.908  13.852  21.544  0.00  0.00    +0.000 C 
ATOM     32  C   UNL     1       9.739  13.233  20.152  0.00  0.00    +0.000 C 
ATOM     33  C   UNL     1       9.605  11.698  20.297  0.00  0.00    +0.000 C 
ATOM     34  O   UNL     1       9.182  11.158  21.320  0.00  0.00    +0.000 OA
ENDBRANCH  22  23
ENDBRANCH  21  22
ENDBRANCH  20  21
ENDBRANCH  19  20
ENDBRANCH   4  19
TORSDOF 10
ENDMDL
MODEL 3
REMARK VINA RESULT:      -7.8      1.850      2.744
REMARK  Name = 
REMARK  11 active torsions:
REMARK  status: ('A' for Active; 'I' for Inactive)
REMARK    1  A    between atoms: C_1  and  C_2
REMARK    2  A    between atoms: C_2  and  C_3
REMARK    3  A    between atoms: C_3  and  O_4
REMARK    4  A    between atoms: O_4  and  C_5
REMARK    5  A    between atoms: C_5  and  C_7
REMARK    6  A    between atoms: C_12  and  N_13
REMARK    7  A    between atoms: N_16  and  C_17
REMARK    8  A    between atoms: C_17  and  C_18
REMARK    9  A    between atoms: C_18  and  C_19
REMARK   10  A    between atoms: C_19  and  C_20
REMARK   11  A    between atoms: C_20  and  N_21
REMARK                            x       y       z     vdW  Elec       q    Type
REMARK                         _______ _______ _______ _____ _____    ______ ____
ROOT
ATOM      1  N   UNL     1       4.943   5.473  18.225  0.00  0.00    +0.000 N 
ATOM      2  C   UNL     1       6.055   5.149  19.130  0.00  0.00    +0.000 C 
ATOM      3  C   UNL     1       7.372   5.034  18.331  0.00  0.00    +0.000 C 
ATOM      4  N   UNL     1       7.716   6.263  17.576  0.00  0.00    +0.000 NA
ATOM      5  C   UNL     1       6.572   6.565  16.673  0.00  0.00    +0.000 C 
ATOM      6  C   UNL     1       5.165   6.632  17.343  0.00  0.00    +0.000 C 
ENDROOT
BRANCH   1  12
ATOM      7  C   UNL     1       2.599   4.681  18.495  0.00  0.00    +0.000 A 
ATOM      8  C   UNL     1       1.657   3.654  18.256  0.00  0.00    +0.000 A 
ATOM      9  C   UNL     1       2.006   2.507  17.545  0.00  0.00    +0.000 A 
ATOM     10  C   UNL     1       3.279   2.371  17.046  0.00  0.00    +0.000 A 
ATOM     11  C   UNL     1       4.212   3.391  17.256  0.00  0.00    +0.000 A 
ATOM     12  C   UNL     1       3.925   4.558  17.995  0.00  0.00    +0.000 A 
BRANCH   7  13
ATOM     13  C   UNL     1       2.192   5.757  19.448  0.00  0.00    +0.000 C 
ATOM     14  O   UNL     1       2.398   6.950  19.300  0.00  0.00    +0.000 OA
BRANCH  13  15
ATOM     15  O   UNL     1       1.647   5.199  20.569  0.00  0.00    +0.000 OA
BRANCH  15  16
ATOM     16  C   UNL     1       2.599   4.681  21.512  0.00  0.00    +0.000 C 
BRANCH  16  18
ATOM     17  C   UNL     1       1.187   2.620  21.722  0.00  0.00    +0.000 C 
ATOM     18  C   UNL     1       2.601   3.159  21.567  0.00  0.00    +0.000 C 
ENDBRANCH  16  18
ENDBRANCH  15  16
ENDBRANCH  13  15
ENDBRANCH   7  13
ENDBRANCH   1  12
BRANCH   4  19
ATOM     19  C   UNL     1       8.010   7.393  18.473  0.00  0.00    +0.000 C 
BRANCH  19  20
ATOM     20  C   UNL     1       7.717   8.759  17.822  0.00  0.00    +0.000 C 
BRANCH  20  21
ATOM     21  C   UNL     1       8.872   9.760  17.944  0.00  0.00    +0.000 C 
BRANCH  21  22
ATOM     22  C   UNL     1       9.152  10.062  19.411  0.00  0.00    +0.000 C 
BRANCH  22  23
ATOM     23  N   UNL     1       9.782  11.338  19.674  0.00  0.00    +0.000 N 
ATOM     24  C   UNL     1      10.960  11.695  18.897  0.00  0.00    +0.000 C 
ATOM     25  C   UNL     1      11.178  13.197  18.762  0.00  0.00    +0.000 C 
ATOM     26  O   UNL     1      11.718  13.684  17.772  0.00  0.00    +0.000 OA
ATOM     27  N   UNL     1      10.953  13.901  19.957  0.00  0.00    +0.000 N 
ATOM     28  C   UNL     1      11.315  15.305  19.914  0.00  0.00    +0.000 C 
ATOM     29  C   UNL     1      11.352  15.952  21.284  0.00  0.00    +0.000 C 
ATOM     30  C   UNL     1      10.132  15.661  22.145  0.00  0.00    +0.000 C 
ATOM     31  C   UNL     1       9.593  14.240  22.042  0.00  0.00    +0.000 C 
ATOM     32  C   UNL     1       9.715  13.574  20.666  0.00  0.00    +0.000 C 
ATOM     33  C   UNL     1       9.464  12.054  20.819  0.00  0.00    +0.000 C 
ATOM     34  O   UNL     1       8.786  11.577  21.730  0.00  0.00    +0.000 OA
ENDBRANCH  22  23
ENDBRANCH  21  22
ENDBRANCH  20  21
ENDBRANCH  19  20
ENDBRANCH   4  19
TORSDOF 10
ENDMDL
MODEL 4
REMARK VINA RESULT:      -7.7      4.223      8.291
REMARK  Name = 
REMARK  11 active torsions:
REMARK  status: ('A' for Active; 'I' for Inactive)
REMARK    1  A    between atoms: C_1  and  C_2
REMARK    2  A    between atoms: C_2  and  C_3
REMARK    3  A    between atoms: C_3  and  O_4
REMARK    4  A    between atoms: O_4  and  C_5
REMARK    5  A    between atoms: C_5  and  C_7
REMARK    6  A    between atoms: C_12  and  N_13
REMARK    7  A    between atoms: N_16  and  C_17
REMARK    8  A    between atoms: C_17  and  C_18
REMARK    9  A    between atoms: C_18  and  C_19
REMARK   10  A    between atoms: C_19  and  C_20
REMARK   11  A    between atoms: C_20  and  N_21
REMARK                            x       y       z     vdW  Elec       q    Type
REMARK                         _______ _______ _______ _____ _____    ______ ____
ROOT
ATOM      1  N   UNL     1       4.444   4.488  16.646  0.00  0.00    +0.000 N 
ATOM      2  C   UNL     1       4.112   3.303  17.449  0.00  0.00    +0.000 C 
ATOM      3  C   UNL     1       4.637   3.475  18.891  0.00  0.00    +0.000 C 
ATOM      4  N   UNL     1       4.104   4.678  19.576  0.00  0.00    +0.000 NA
ATOM      5  C   UNL     1       4.453   5.858  18.739  0.00  0.00    +0.000 C 
ATOM      6  C   UNL     1       4.047   5.780  17.234  0.00  0.00    +0.000 C 
ENDROOT
BRANCH   1  12
ATOM      7  C   UNL     1       6.719   4.777  15.679  0.00  0.00    +0.000 A 
ATOM      8  C   UNL     1       7.537   4.713  14.528  0.00  0.00    +0.000 A 
ATOM      9  C   UNL     1       7.023   4.302  13.299  0.00  0.00    +0.000 A 
ATOM     10  C   UNL     1       5.704   3.931  13.199  0.00  0.00    +0.000 A 
ATOM     11  C   UNL     1       4.891   3.966  14.336  0.00  0.00    +0.000 A 
ATOM     12  C   UNL     1       5.348   4.404  15.597  0.00  0.00    +0.000 A 
BRANCH   7  13
ATOM     13  C   UNL     1       7.306   5.435  16.885  0.00  0.00    +0.000 C 
ATOM     14  O   UNL     1       7.451   4.912  17.977  0.00  0.00    +0.000 OA
BRANCH  13  15
ATOM     15  O   UNL     1       7.558   6.750  16.616  0.00  0.00    +0.000 OA
BRANCH  15  16
ATOM     16  C   UNL     1       7.249   7.657  17.686  0.00  0.00    +0.000 C 
BRANCH  16  18
ATOM     17  C   UNL     1       8.442   9.807  18.175  0.00  0.00    +0.000 C 
ATOM     18  C   UNL     1       8.492   8.291  18.295  0.00  0.00    +0.000 C 
ENDBRANCH  16  18
ENDBRANCH  15  16
ENDBRANCH  13  15
ENDBRANCH   7  13
ENDBRANCH   1  12
BRANCH   4  19
ATOM     19  C   UNL     1       2.652   4.583  19.798  0.00  0.00    +0.000 C 
BRANCH  19  20
ATOM     20  C   UNL     1       2.165   5.495  20.942  0.00  0.00    +0.000 C 
BRANCH  20  21
ATOM     21  C   UNL     1       1.368   6.714  20.460  0.00  0.00    +0.000 C 
BRANCH  21  22
ATOM     22  C   UNL     1       1.682   7.923  21.332  0.00  0.00    +0.000 C 
BRANCH  22  23
ATOM     23  N   UNL     1       0.859   9.090  21.096  0.00  0.00    +0.000 N 
ATOM     24  C   UNL     1       0.765   9.601  19.736  0.00  0.00    +0.000 C 
ATOM     25  C   UNL     1      -0.522  10.365  19.452  0.00  0.00    +0.000 C 
ATOM     26  O   UNL     1      -1.028  10.383  18.332  0.00  0.00    +0.000 OA
ATOM     27  N   UNL     1      -0.898  11.228  20.495  0.00  0.00    +0.000 N 
ATOM     28  C   UNL     1      -2.020  12.097  20.191  0.00  0.00    +0.000 C 
ATOM     29  C   UNL     1      -2.200  13.211  21.203  0.00  0.00    +0.000 C 
ATOM     30  C   UNL     1      -2.157  12.751  22.652  0.00  0.00    +0.000 C 
ATOM     31  C   UNL     1      -1.127  11.670  22.957  0.00  0.00    +0.000 C 
ATOM     32  C   UNL     1      -0.872  10.651  21.840  0.00  0.00    +0.000 C 
ATOM     33  C   UNL     1       0.424   9.867  22.160  0.00  0.00    +0.000 C 
ATOM     34  O   UNL     1       0.846   9.715  23.306  0.00  0.00    +0.000 OA
ENDBRANCH  22  23
ENDBRANCH  21  22
ENDBRANCH  20  21
ENDBRANCH  19  20
ENDBRANCH   4  19
TORSDOF 10
ENDMDL
MODEL 5
REMARK VINA RESULT:      -7.7      1.496      1.743
REMARK  Name = 
REMARK  11 active torsions:
REMARK  status: ('A' for Active; 'I' for Inactive)
REMARK    1  A    between atoms: C_1  and  C_2
REMARK    2  A    between atoms: C_2  and  C_3
REMARK    3  A    between atoms: C_3  and  O_4
REMARK    4  A    between atoms: O_4  and  C_5
REMARK    5  A    between atoms: C_5  and  C_7
REMARK    6  A    between atoms: C_12  and  N_13
REMARK    7  A    between atoms: N_16  and  C_17
REMARK    8  A    between atoms: C_17  and  C_18
REMARK    9  A    between atoms: C_18  and  C_19
REMARK   10  A    between atoms: C_19  and  C_20
REMARK   11  A    between atoms: C_20  and  N_21
REMARK                            x       y       z     vdW  Elec       q    Type
REMARK                         _______ _______ _______ _____ _____    ______ ____
ROOT
ATOM      1  N   UNL     1       4.992   5.639  18.365  0.00  0.00    +0.000 N 
ATOM      2  C   UNL     1       6.129   5.173  19.172  0.00  0.00    +0.000 C 
ATOM      3  C   UNL     1       7.385   5.026  18.284  0.00  0.00    +0.000 C 
ATOM      4  N   UNL     1       7.774   6.280  17.595  0.00  0.00    +0.000 NA
ATOM      5  C   UNL     1       6.603   6.727  16.791  0.00  0.00    +0.000 C 
ATOM      6  C   UNL     1       5.247   6.842  17.553  0.00  0.00    +0.000 C 
ENDROOT
BRANCH   1  12
ATOM      7  C   UNL     1       2.542   5.243  18.188  0.00  0.00    +0.000 A 
ATOM      8  C   UNL     1       1.500   4.303  18.007  0.00  0.00    +0.000 A 
ATOM      9  C   UNL     1       1.776   2.954  17.792  0.00  0.00    +0.000 A 
ATOM     10  C   UNL     1       3.079   2.521  17.733  0.00  0.00    +0.000 A 
ATOM     11  C   UNL     1       4.118   3.445  17.886  0.00  0.00    +0.000 A 
ATOM     12  C   UNL     1       3.899   4.816  18.139  0.00  0.00    +0.000 A 
BRANCH   7  13
ATOM     13  C   UNL     1       2.142   6.613  18.627  0.00  0.00    +0.000 C 
ATOM     14  O   UNL     1       1.943   7.564  17.890  0.00  0.00    +0.000 OA
BRANCH  13  15
ATOM     15  O   UNL     1       2.137   6.676  19.992  0.00  0.00    +0.000 OA
BRANCH  15  16
ATOM     16  C   UNL     1       1.799   7.962  20.537  0.00  0.00    +0.000 C 
BRANCH  16  18
ATOM     17  C   UNL     1       0.219   9.299  21.950  0.00  0.00    +0.000 C 
ATOM     18  C   UNL     1       0.490   7.944  21.315  0.00  0.00    +0.000 C 
ENDBRANCH  16  18
ENDBRANCH  15  16
ENDBRANCH  13  15
ENDBRANCH   7  13
ENDBRANCH   1  12
BRANCH   4  19
ATOM     19  C   UNL     1       8.202   7.319  18.547  0.00  0.00    +0.000 C 
BRANCH  19  20
ATOM     20  C   UNL     1       8.255   8.722  17.911  0.00  0.00    +0.000 C 
BRANCH  20  21
ATOM     21  C   UNL     1       8.847   9.794  18.834  0.00  0.00    +0.000 C 
BRANCH  21  22
ATOM     22  C   UNL     1       9.570  10.853  18.012  0.00  0.00    +0.000 C 
BRANCH  22  23
ATOM     23  N   UNL     1       9.375  12.219  18.448  0.00  0.00    +0.000 N 
ATOM     24  C   UNL     1       8.571  13.099  17.613  0.00  0.00    +0.000 C 
ATOM     25  C   UNL     1       7.906  14.237  18.377  0.00  0.00    +0.000 C 
ATOM     26  O   UNL     1       6.830  14.712  18.021  0.00  0.00    +0.000 OA
ATOM     27  N   UNL     1       8.752  14.839  19.325  0.00  0.00    +0.000 N 
ATOM     28  C   UNL     1       8.214  16.033  19.949  0.00  0.00    +0.000 C 
ATOM     29  C   UNL     1       9.253  16.819  20.723  0.00  0.00    +0.000 C 
ATOM     30  C   UNL     1      10.110  15.974  21.654  0.00  0.00    +0.000 C 
ATOM     31  C   UNL     1      10.510  14.611  21.105  0.00  0.00    +0.000 C 
ATOM     32  C   UNL     1       9.478  13.921  20.204  0.00  0.00    +0.000 C 
ATOM     33  C   UNL     1      10.165  12.752  19.456  0.00  0.00    +0.000 C 
ATOM     34  O   UNL     1      11.158  12.171  19.895  0.00  0.00    +0.000 OA
ENDBRANCH  22  23
ENDBRANCH  21  22
ENDBRANCH  20  21
ENDBRANCH  19  20
ENDBRANCH   4  19
TORSDOF 10
ENDMDL
MODEL 6
REMARK VINA RESULT:      -7.7      4.592      8.275
REMARK  Name = 
REMARK  11 active torsions:
REMARK  status: ('A' for Active; 'I' for Inactive)
REMARK    1  A    between atoms: C_1  and  C_2
REMARK    2  A    between atoms: C_2  and  C_3
REMARK    3  A    between atoms: C_3  and  O_4
REMARK    4  A    between atoms: O_4  and  C_5
REMARK    5  A    between atoms: C_5  and  C_7
REMARK    6  A    between atoms: C_12  and  N_13
REMARK    7  A    between atoms: N_16  and  C_17
REMARK    8  A    between atoms: C_17  and  C_18
REMARK    9  A    between atoms: C_18  and  C_19
REMARK   10  A    between atoms: C_19  and  C_20
REMARK   11  A    between atoms: C_20  and  N_21
REMARK                            x       y       z     vdW  Elec       q    Type
REMARK                         _______ _______ _______ _____ _____    ______ ____
ROOT
ATOM      1  N   UNL     1       4.733   4.431  17.286  0.00  0.00    +0.000 N 
ATOM      2  C   UNL     1       4.271   5.723  17.814  0.00  0.00    +0.000 C 
ATOM      3  C   UNL     1       2.728   5.766  17.835  0.00  0.00    +0.000 C 
ATOM      4  N   UNL     1       2.115   4.679  18.638  0.00  0.00    +0.000 NA
ATOM      5  C   UNL     1       2.603   3.387  18.081  0.00  0.00    +0.000 C 
ATOM      6  C   UNL     1       4.149   3.241  17.931  0.00  0.00    +0.000 C 
ENDROOT
BRANCH   1  12
ATOM      7  C   UNL     1       6.803   4.485  15.905  0.00  0.00    +0.000 A 
ATOM      8  C   UNL     1       7.366   4.461  14.608  0.00  0.00    +0.000 A 
ATOM      9  C   UNL     1       6.565   4.326  13.476  0.00  0.00    +0.000 A 
ATOM     10  C   UNL     1       5.204   4.193  13.611  0.00  0.00    +0.000 A 
ATOM     11  C   UNL     1       4.637   4.191  14.890  0.00  0.00    +0.000 A 
ATOM     12  C   UNL     1       5.395   4.357  16.069  0.00  0.00    +0.000 A 
BRANCH   7  13
ATOM     13  C   UNL     1       7.716   4.852  17.028  0.00  0.00    +0.000 C 
ATOM     14  O   UNL     1       8.303   4.064  17.751  0.00  0.00    +0.000 OA
BRANCH  13  15
ATOM     15  O   UNL     1       7.714   6.207  17.200  0.00  0.00    +0.000 OA
BRANCH  15  16
ATOM     16  C   UNL     1       7.880   6.645  18.558  0.00  0.00    +0.000 C 
BRANCH  16  18
ATOM     17  C   UNL     1       7.838   8.950  17.575  0.00  0.00    +0.000 C 
ATOM     18  C   UNL     1       8.434   8.061  18.655  0.00  0.00    +0.000 C 
ENDBRANCH  16  18
ENDBRANCH  15  16
ENDBRANCH  13  15
ENDBRANCH   7  13
ENDBRANCH   1  12
BRANCH   4  19
ATOM     19  C   UNL     1       2.437   4.806  20.069  0.00  0.00    +0.000 C 
BRANCH  19  20
ATOM     20  C   UNL     1       1.421   5.681  20.830  0.00  0.00    +0.000 C 
BRANCH  20  21
ATOM     21  C   UNL     1       1.680   7.186  20.692  0.00  0.00    +0.000 C 
BRANCH  21  22
ATOM     22  C   UNL     1       0.840   7.957  21.702  0.00  0.00    +0.000 C 
BRANCH  22  23
ATOM     23  N   UNL     1       0.387   9.261  21.267  0.00  0.00    +0.000 N 
ATOM     24  C   UNL     1       0.625   9.645  19.883  0.00  0.00    +0.000 C 
ATOM     25  C   UNL     1      -0.367  10.669  19.347  0.00  0.00    +0.000 C 
ATOM     26  O   UNL     1      -0.684  10.702  18.160  0.00  0.00    +0.000 OA
ATOM     27  N   UNL     1      -0.655  11.695  20.263  0.00  0.00    +0.000 N 
ATOM     28  C   UNL     1      -1.460  12.778  19.729  0.00  0.00    +0.000 C 
ATOM     29  C   UNL     1      -1.492  13.996  20.632  0.00  0.00    +0.000 C 
ATOM     30  C   UNL     1      -1.777  13.683  22.093  0.00  0.00    +0.000 C 
ATOM     31  C   UNL     1      -1.115  12.418  22.624  0.00  0.00    +0.000 C 
ATOM     32  C   UNL     1      -0.973  11.264  21.625  0.00  0.00    +0.000 C 
ATOM     33  C   UNL     1       0.018  10.221  22.198  0.00  0.00    +0.000 C 
ATOM     34  O   UNL     1       0.218  10.083  23.405  0.00  0.00    +0.000 OA
ENDBRANCH  22  23
ENDBRANCH  21  22
ENDBRANCH  20  21
ENDBRANCH  19  20
ENDBRANCH   4  19
TORSDOF 10
ENDMDL
MODEL 7
REMARK VINA RESULT:      -7.6      4.046      8.138
REMARK  Name = 
REMARK  11 active torsions:
REMARK  status: ('A' for Active; 'I' for Inactive)
REMARK    1  A    between atoms: C_1  and  C_2
REMARK    2  A    between atoms: C_2  and  C_3
REMARK    3  A    between atoms: C_3  and  O_4
REMARK    4  A    between atoms: O_4  and  C_5
REMARK    5  A    between atoms: C_5  and  C_7
REMARK    6  A    between atoms: C_12  and  N_13
REMARK    7  A    between atoms: N_16  and  C_17
REMARK    8  A    between atoms: C_17  and  C_18
REMARK    9  A    between atoms: C_18  and  C_19
REMARK   10  A    between atoms: C_19  and  C_20
REMARK   11  A    between atoms: C_20  and  N_21
REMARK                            x       y       z     vdW  Elec       q    Type
REMARK                         _______ _______ _______ _____ _____    ______ ____
ROOT
ATOM      1  N   UNL     1       4.588   5.278  18.145  0.00  0.00    +0.000 N 
ATOM      2  C   UNL     1       3.462   6.213  18.001  0.00  0.00    +0.000 C 
ATOM      3  C   UNL     1       2.123   5.460  18.165  0.00  0.00    +0.000 C 
ATOM      4  N   UNL     1       1.994   4.757  19.465  0.00  0.00    +0.000 NA
ATOM      5  C   UNL     1       3.147   3.823  19.582  0.00  0.00    +0.000 C 
ATOM      6  C   UNL     1       4.562   4.442  19.358  0.00  0.00    +0.000 C 
ENDROOT
BRANCH   1  12
ATOM      7  C   UNL     1       6.807   5.230  17.020  0.00  0.00    +0.000 A 
ATOM      8  C   UNL     1       7.536   4.950  15.841  0.00  0.00    +0.000 A 
ATOM      9  C   UNL     1       6.903   4.444  14.706  0.00  0.00    +0.000 A 
ATOM     10  C   UNL     1       5.553   4.190  14.729  0.00  0.00    +0.000 A 
ATOM     11  C   UNL     1       4.827   4.440  15.899  0.00  0.00    +0.000 A 
ATOM     12  C   UNL     1       5.407   4.982  17.065  0.00  0.00    +0.000 A 
BRANCH   7  13
ATOM     13  C   UNL     1       7.531   5.970  18.097  0.00  0.00    +0.000 C 
ATOM     14  O   UNL     1       7.927   5.488  19.145  0.00  0.00    +0.000 OA
BRANCH  13  15
ATOM     15  O   UNL     1       7.590   7.298  17.784  0.00  0.00    +0.000 OA
BRANCH  15  16
ATOM     16  C   UNL     1       8.478   8.074  18.604  0.00  0.00    +0.000 C 
BRANCH  16  18
ATOM     17  C   UNL     1       9.325  10.356  19.204  0.00  0.00    +0.000 C 
ATOM     18  C   UNL     1       8.494   9.548  18.220  0.00  0.00    +0.000 C 
ENDBRANCH  16  18
ENDBRANCH  15  16
ENDBRANCH  13  15
ENDBRANCH   7  13
ENDBRANCH   1  12
BRANCH   4  19
ATOM     19  C   UNL     1       1.947   5.700  20.596  0.00  0.00    +0.000 C 
BRANCH  19  20
ATOM     20  C   UNL     1       1.043   6.917  20.316  0.00  0.00    +0.000 C 
BRANCH  20  21
ATOM     21  C   UNL     1       1.299   8.102  21.255  0.00  0.00    +0.000 C 
BRANCH  21  22
ATOM     22  C   UNL     1      -0.010   8.816  21.567  0.00  0.00    +0.000 C 
BRANCH  22  23
ATOM     23  N   UNL     1       0.034  10.260  21.479  0.00  0.00    +0.000 N 
ATOM     24  C   UNL     1       0.908  10.862  20.484  0.00  0.00    +0.000 C 
ATOM     25  C   UNL     1       0.463  12.245  20.026  0.00  0.00    +0.000 C 
ATOM     26  O   UNL     1       0.695  12.655  18.891  0.00  0.00    +0.000 OA
ATOM     27  N   UNL     1       0.023  13.063  21.080  0.00  0.00    +0.000 N 
ATOM     28  C   UNL     1      -0.246  14.440  20.709  0.00  0.00    +0.000 C 
ATOM     29  C   UNL     1      -0.418  15.355  21.906  0.00  0.00    +0.000 C 
ATOM     30  C   UNL     1      -1.354  14.815  22.976  0.00  0.00    +0.000 C 
ATOM     31  C   UNL     1      -1.245  13.318  23.234  0.00  0.00    +0.000 C 
ATOM     32  C   UNL     1      -0.923  12.448  22.013  0.00  0.00    +0.000 C 
ATOM     33  C   UNL     1      -0.499  11.040  22.496  0.00  0.00    +0.000 C 
ATOM     34  O   UNL     1      -0.864  10.565  23.572  0.00  0.00    +0.000 OA
ENDBRANCH  22  23
ENDBRANCH  21  22
ENDBRANCH  20  21
ENDBRANCH  19  20
ENDBRANCH   4  19
TORSDOF 10
ENDMDL
MODEL 8
REMARK VINA RESULT:      -7.6      1.636      2.065
REMARK  Name = 
REMARK  11 active torsions:
REMARK  status: ('A' for Active; 'I' for Inactive)
REMARK    1  A    between atoms: C_1  and  C_2
REMARK    2  A    between atoms: C_2  and  C_3
REMARK    3  A    between atoms: C_3  and  O_4
REMARK    4  A    between atoms: O_4  and  C_5
REMARK    5  A    between atoms: C_5  and  C_7
REMARK    6  A    between atoms: C_12  and  N_13
REMARK    7  A    between atoms: N_16  and  C_17
REMARK    8  A    between atoms: C_17  and  C_18
REMARK    9  A    between atoms: C_18  and  C_19
REMARK   10  A    between atoms: C_19  and  C_20
REMARK   11  A    between atoms: C_20  and  N_21
REMARK                            x       y       z     vdW  Elec       q    Type
REMARK                         _______ _______ _______ _____ _____    ______ ____
ROOT
ATOM      1  N   UNL     1       5.070   5.754  18.346  0.00  0.00    +0.000 N 
ATOM      2  C   UNL     1       6.184   5.323  19.202  0.00  0.00    +0.000 C 
ATOM      3  C   UNL     1       7.474   5.185  18.364  0.00  0.00    +0.000 C 
ATOM      4  N   UNL     1       7.865   6.435  17.668  0.00  0.00    +0.000 NA
ATOM      5  C   UNL     1       6.717   6.846  16.814  0.00  0.00    +0.000 C 
ATOM      6  C   UNL     1       5.332   6.948  17.524  0.00  0.00    +0.000 C 
ENDROOT
BRANCH   1  12
ATOM      7  C   UNL     1       2.637   5.313  18.063  0.00  0.00    +0.000 A 
ATOM      8  C   UNL     1       1.619   4.353  17.862  0.00  0.00    +0.000 A 
ATOM      9  C   UNL     1       1.924   3.001  17.706  0.00  0.00    +0.000 A 
ATOM     10  C   UNL     1       3.234   2.588  17.726  0.00  0.00    +0.000 A 
ATOM     11  C   UNL     1       4.251   3.533  17.899  0.00  0.00    +0.000 A 
ATOM     12  C   UNL     1       4.000   4.907  18.094  0.00  0.00    +0.000 A 
BRANCH   7  13
ATOM     13  C   UNL     1       2.196   6.691  18.436  0.00  0.00    +0.000 C 
ATOM     14  O   UNL     1       2.061   7.626  17.665  0.00  0.00    +0.000 OA
BRANCH  13  15
ATOM     15  O   UNL     1       2.070   6.782  19.793  0.00  0.00    +0.000 OA
BRANCH  15  16
ATOM     16  C   UNL     1       1.792   8.102  20.288  0.00  0.00    +0.000 C 
BRANCH  16  18
ATOM     17  C   UNL     1      -0.187   9.175  21.391  0.00  0.00    +0.000 C 
ATOM     18  C   UNL     1       0.876   8.093  21.504  0.00  0.00    +0.000 C 
ENDBRANCH  16  18
ENDBRANCH  15  16
ENDBRANCH  13  15
ENDBRANCH   7  13
ENDBRANCH   1  12
BRANCH   4  19
ATOM     19  C   UNL     1       8.239   7.497  18.618  0.00  0.00    +0.000 C 
BRANCH  19  20
ATOM     20  C   UNL     1       8.314   8.886  17.955  0.00  0.00    +0.000 C 
BRANCH  20  21
ATOM     21  C   UNL     1       9.019   9.941  18.815  0.00  0.00    +0.000 C 
BRANCH  21  22
ATOM     22  C   UNL     1       9.423  11.134  17.958  0.00  0.00    +0.000 C 
BRANCH  22  23
ATOM     23  N   UNL     1       9.738  12.345  18.685  0.00  0.00    +0.000 N 
ATOM     24  C   UNL     1       8.974  12.643  19.888  0.00  0.00    +0.000 C 
ATOM     25  C   UNL     1       9.720  13.511  20.893  0.00  0.00    +0.000 C 
ATOM     26  O   UNL     1       9.518  13.418  22.101  0.00  0.00    +0.000 OA
ATOM     27  N   UNL     1      10.426  14.569  20.296  0.00  0.00    +0.000 N 
ATOM     28  C   UNL     1      11.006  15.516  21.230  0.00  0.00    +0.000 C 
ATOM     29  C   UNL     1      11.488  16.790  20.563  0.00  0.00    +0.000 C 
ATOM     30  C   UNL     1      12.331  16.563  19.319  0.00  0.00    +0.000 C 
ATOM     31  C   UNL     1      11.868  15.420  18.424  0.00  0.00    +0.000 C 
ATOM     32  C   UNL     1      11.251  14.213  19.140  0.00  0.00    +0.000 C 
ATOM     33  C   UNL     1      10.521  13.330  18.100  0.00  0.00    +0.000 C 
ATOM     34  O   UNL     1      10.831  13.307  16.908  0.00  0.00    +0.000 OA
ENDBRANCH  22  23
ENDBRANCH  21  22
ENDBRANCH  20  21
ENDBRANCH  19  20
ENDBRANCH   4  19
TORSDOF 10
ENDMDL
MODEL 9
REMARK VINA RESULT:      -7.6      4.151      8.039
REMARK  Name = 
REMARK  11 active torsions:
REMARK  status: ('A' for Active; 'I' for Inactive)
REMARK    1  A    between atoms: C_1  and  C_2
REMARK    2  A    between atoms: C_2  and  C_3
REMARK    3  A    between atoms: C_3  and  O_4
REMARK    4  A    between atoms: O_4  and  C_5
REMARK    5  A    between atoms: C_5  and  C_7
REMARK    6  A    between atoms: C_12  and  N_13
REMARK    7  A    between atoms: N_16  and  C_17
REMARK    8  A    between atoms: C_17  and  C_18
REMARK    9  A    between atoms: C_18  and  C_19
REMARK   10  A    between atoms: C_19  and  C_20
REMARK   11  A    between atoms: C_20  and  N_21
REMARK                            x       y       z     vdW  Elec       q    Type
REMARK                         _______ _______ _______ _____ _____    ______ ____
ROOT
ATOM      1  N   UNL     1       4.508   4.354  16.647  0.00  0.00    +0.000 N 
ATOM      2  C   UNL     1       4.353   3.186  17.525  0.00  0.00    +0.000 C 
ATOM      3  C   UNL     1       4.906   3.502  18.933  0.00  0.00    +0.000 C 
ATOM      4  N   UNL     1       4.255   4.670  19.576  0.00  0.00    +0.000 NA
ATOM      5  C   UNL     1       4.427   5.833  18.663  0.00  0.00    +0.000 C 
ATOM      6  C   UNL     1       3.979   5.621  17.184  0.00  0.00    +0.000 C 
ENDROOT
BRANCH   1  12
ATOM      7  C   UNL     1       6.733   4.751  15.605  0.00  0.00    +0.000 A 
ATOM      8  C   UNL     1       7.512   4.733  14.424  0.00  0.00    +0.000 A 
ATOM      9  C   UNL     1       6.972   4.312  13.210  0.00  0.00    +0.000 A 
ATOM     10  C   UNL     1       5.668   3.884  13.152  0.00  0.00    +0.000 A 
ATOM     11  C   UNL     1       4.895   3.873  14.318  0.00  0.00    +0.000 A 
ATOM     12  C   UNL     1       5.378   4.319  15.567  0.00  0.00    +0.000 A 
BRANCH   7  13
ATOM     13  C   UNL     1       7.334   5.422  16.796  0.00  0.00    +0.000 C 
ATOM     14  O   UNL     1       7.514   4.904  17.886  0.00  0.00    +0.000 OA
BRANCH  13  15
ATOM     15  O   UNL     1       7.554   6.741  16.519  0.00  0.00    +0.000 OA
BRANCH  15  16
ATOM     16  C   UNL     1       7.139   7.653  17.550  0.00  0.00    +0.000 C 
BRANCH  16  18
ATOM     17  C   UNL     1       8.547   9.634  18.165  0.00  0.00    +0.000 C 
ATOM     18  C   UNL     1       8.303   8.150  18.397  0.00  0.00    +0.000 C 
ENDBRANCH  16  18
ENDBRANCH  15  16
ENDBRANCH  13  15
ENDBRANCH   7  13
ENDBRANCH   1  12
BRANCH   4  19
ATOM     19  C   UNL     1       2.834   4.415  19.864  0.00  0.00    +0.000 C 
BRANCH  19  20
ATOM     20  C   UNL     1       1.925   5.592  19.457  0.00  0.00    +0.000 C 
BRANCH  20  21
ATOM     21  C   UNL     1       1.297   6.325  20.649  0.00  0.00    +0.000 C 
BRANCH  21  22
ATOM     22  C   UNL     1       1.960   7.683  20.837  0.00  0.00    +0.000 C 
BRANCH  22  23
ATOM     23  N   UNL     1       1.061   8.817  20.851  0.00  0.00    +0.000 N 
ATOM     24  C   UNL     1       0.171   8.974  21.992  0.00  0.00    +0.000 C 
ATOM     25  C   UNL     1      -0.253  10.414  22.250  0.00  0.00    +0.000 C 
ATOM     26  O   UNL     1      -0.506  10.820  23.382  0.00  0.00    +0.000 OA
ATOM     27  N   UNL     1      -0.575  11.118  21.077  0.00  0.00    +0.000 N 
ATOM     28  C   UNL     1      -1.146  12.434  21.294  0.00  0.00    +0.000 C 
ATOM     29  C   UNL     1      -1.757  13.030  20.041  0.00  0.00    +0.000 C 
ATOM     30  C   UNL     1      -0.868  12.944  18.810  0.00  0.00    +0.000 C 
ATOM     31  C   UNL     1      -0.081  11.647  18.671  0.00  0.00    +0.000 C 
ATOM     32  C   UNL     1       0.389  11.004  19.981  0.00  0.00    +0.000 C 
ATOM     33  C   UNL     1       0.841   9.551  19.694  0.00  0.00    +0.000 C 
ATOM     34  O   UNL     1       1.245   9.183  18.591  0.00  0.00    +0.000 OA
ENDBRANCH  22  23
ENDBRANCH  21  22
ENDBRANCH  20  21
ENDBRANCH  19  20
ENDBRANCH   4  19
TORSDOF 10
ENDMDL
