MODEL 1
REMARK VINA RESULT:      -9.1      0.000      0.000
REMARK  Name = 
REMARK  2 active torsions:
REMARK  status: ('A' for Active; 'I' for Inactive)
REMARK    1  A    between atoms: C_14  and  N_15
REMARK    2  A    between atoms: N_15  and  C_16
REMARK                            x       y       z     vdW  Elec       q    Type
REMARK                         _______ _______ _______ _____ _____    ______ ____
ROOT
ATOM      1  O   UNL     1       5.178   6.908  15.215  0.00  0.00    +0.000 OA
ATOM      2  C   UNL     1       5.662   6.095  16.004  0.00  0.00    +0.000 C 
ATOM      3  C   UNL     1       5.343   4.631  15.892  0.00  0.00    +0.000 C 
ATOM      4  C   UNL     1       4.685   4.139  17.141  0.00  0.00    +0.000 A 
ATOM      5  C   UNL     1       3.338   3.767  17.156  0.00  0.00    +0.000 A 
ATOM      6  C   UNL     1       2.746   3.311  18.334  0.00  0.00    +0.000 A 
ATOM      7  C   UNL     1       3.502   3.226  19.503  0.00  0.00    +0.000 A 
ATOM      8  C   UNL     1       4.844   3.614  19.499  0.00  0.00    +0.000 A 
ATOM      9  C   UNL     1       5.423   4.096  18.326  0.00  0.00    +0.000 A 
ATOM     10  O   UNL     1       6.758   4.429  18.346  0.00  0.00    +0.000 OA
ATOM     11  C   UNL     1       7.079   5.749  18.114  0.00  0.00    +0.000 A 
ATOM     12  C   UNL     1       8.023   6.285  19.005  0.00  0.00    +0.000 A 
ATOM     13  C   UNL     1       8.430   7.623  18.909  0.00  0.00    +0.000 A 
ATOM     14  C   UNL     1       7.901   8.448  17.918  0.00  0.00    +0.000 A 
ATOM     15  C   UNL     1       7.023   7.881  16.987  0.00  0.00    +0.000 A 
ATOM     16  C   UNL     1       6.599   6.548  17.071  0.00  0.00    +0.000 A 
ENDROOT
BRANCH  14  17
ATOM     17  N   UNL     1       8.202   9.827  17.894  0.00  0.00    +0.000 N 
ATOM     18  H   UNL     1       7.381  10.414  17.789  0.00  0.00    +0.000 HD
BRANCH  17  19
ATOM     19  C   UNL     1       9.285  10.444  18.561  0.00  0.00    +0.000 A 
ATOM     20  C   UNL     1       9.241  10.663  19.949  0.00  0.00    +0.000 A 
ATOM     21  C   UNL     1      10.217  11.418  20.596  0.00  0.00    +0.000 A 
ATOM     22  C   UNL     1      11.284  11.932  19.867  0.00  0.00    +0.000 A 
ATOM     23  C   UNL     1      11.377  11.674  18.499  0.00  0.00    +0.000 A 
ATOM     24  C   UNL     1      10.384  10.928  17.849  0.00  0.00    +0.000 A 
ENDBRANCH  17  19
ENDBRANCH  14  17
TORSDOF 2
ENDMDL
MODEL 2
REMARK VINA RESULT:      -8.8      0.144      1.013
REMARK  Name = 
REMARK  2 active torsions:
REMARK  status: ('A' for Active; 'I' for Inactive)
REMARK    1  A    between atoms: C_14  and  N_15
REMARK    2  A    between atoms: N_15  and  C_16
REMARK                            x       y       z     vdW  Elec       q    Type
REMARK                         _______ _______ _______ _____ _____    ______ ____
ROOT
ATOM      1  O   UNL     1       5.217   6.756  15.144  0.00  0.00    +0.000 OA
ATOM      2  C   UNL     1       5.698   5.987  15.977  0.00  0.00    +0.000 C 
ATOM      3  C   UNL     1       5.399   4.516  15.930  0.00  0.00    +0.000 C 
ATOM      4  C   UNL     1       4.728   4.075  17.191  0.00  0.00    +0.000 A 
ATOM      5  C   UNL     1       3.384   3.688  17.204  0.00  0.00    +0.000 A 
ATOM      6  C   UNL     1       2.781   3.280  18.394  0.00  0.00    +0.000 A 
ATOM      7  C   UNL     1       3.520   3.260  19.576  0.00  0.00    +0.000 A 
ATOM      8  C   UNL     1       4.857   3.664  19.573  0.00  0.00    +0.000 A 
ATOM      9  C   UNL     1       5.448   4.097  18.388  0.00  0.00    +0.000 A 
ATOM     10  O   UNL     1       6.778   4.447  18.411  0.00  0.00    +0.000 OA
ATOM     11  C   UNL     1       7.087   5.759  18.122  0.00  0.00    +0.000 A 
ATOM     12  C   UNL     1       8.012   6.348  18.999  0.00  0.00    +0.000 A 
ATOM     13  C   UNL     1       8.405   7.685  18.847  0.00  0.00    +0.000 A 
ATOM     14  C   UNL     1       7.881   8.456  17.810  0.00  0.00    +0.000 A 
ATOM     15  C   UNL     1       7.023   7.834  16.894  0.00  0.00    +0.000 A 
ATOM     16  C   UNL     1       6.614   6.502  17.035  0.00  0.00    +0.000 A 
ENDROOT
BRANCH  14  17
ATOM     17  N   UNL     1       8.166   9.836  17.726  0.00  0.00    +0.000 N 
ATOM     18  H   UNL     1       7.357  10.398  17.484  0.00  0.00    +0.000 HD
BRANCH  17  19
ATOM     19  C   UNL     1       9.155  10.519  18.470  0.00  0.00    +0.000 A 
ATOM     20  C   UNL     1      10.296  11.040  17.836  0.00  0.00    +0.000 A 
ATOM     21  C   UNL     1      11.359  11.563  18.570  0.00  0.00    +0.000 A 
ATOM     22  C   UNL     1      11.277  11.615  19.958  0.00  0.00    +0.000 A 
ATOM     23  C   UNL     1      10.125  11.158  20.601  0.00  0.00    +0.000 A 
ATOM     24  C   UNL     1       9.066  10.617  19.860  0.00  0.00    +0.000 A 
ENDBRANCH  17  19
ENDBRANCH  14  17
TORSDOF 2
ENDMDL
MODEL 3
REMARK VINA RESULT:      -8.6      5.596      7.318
REMARK  Name = 
REMARK  2 active torsions:
REMARK  status: ('A' for Active; 'I' for Inactive)
REMARK    1  A    between atoms: C_14  and  N_15
REMARK    2  A    between atoms: N_15  and  C_16
REMARK                            x       y       z     vdW  Elec       q    Type
REMARK                         _______ _______ _______ _____ _____    ______ ____
ROOT
ATOM      1  O   UNL     1       4.203   7.016  16.401  0.00  0.00    +0.000 OA
ATOM      2  C   UNL     1       3.991   6.561  17.527  0.00  0.00    +0.000 C 
ATOM      3  C   UNL     1       4.758   5.373  18.034  0.00  0.00    +0.000 C 
ATOM      4  C   UNL     1       3.830   4.244  18.350  0.00  0.00    +0.000 A 
ATOM      5  C   UNL     1       3.807   3.081  17.575  0.00  0.00    +0.000 A 
ATOM      6  C   UNL     1       2.932   2.042  17.892  0.00  0.00    +0.000 A 
ATOM      7  C   UNL     1       2.076   2.163  18.985  0.00  0.00    +0.000 A 
ATOM      8  C   UNL     1       2.080   3.331  19.752  0.00  0.00    +0.000 A 
ATOM      9  C   UNL     1       2.936   4.378  19.415  0.00  0.00    +0.000 A 
ATOM     10  O   UNL     1       2.946   5.497  20.217  0.00  0.00    +0.000 OA
ATOM     11  C   UNL     1       2.546   6.684  19.642  0.00  0.00    +0.000 A 
ATOM     12  C   UNL     1       1.652   7.437  20.421  0.00  0.00    +0.000 A 
ATOM     13  C   UNL     1       1.137   8.656  19.957  0.00  0.00    +0.000 A 
ATOM     14  C   UNL     1       1.511   9.145  18.707  0.00  0.00    +0.000 A 
ATOM     15  C   UNL     1       2.466   8.426  17.976  0.00  0.00    +0.000 A 
ATOM     16  C   UNL     1       2.985   7.202  18.419  0.00  0.00    +0.000 A 
ENDROOT
BRANCH  14  17
ATOM     17  N   UNL     1       0.901  10.301  18.175  0.00  0.00    +0.000 N 
ATOM     18  H   UNL     1       1.344  10.633  17.325  0.00  0.00    +0.000 HD
BRANCH  17  19
ATOM     19  C   UNL     1      -0.467  10.639  18.295  0.00  0.00    +0.000 A 
ATOM     20  C   UNL     1      -1.441   9.962  17.541  0.00  0.00    +0.000 A 
ATOM     21  C   UNL     1      -2.766  10.390  17.515  0.00  0.00    +0.000 A 
ATOM     22  C   UNL     1      -3.151  11.482  18.287  0.00  0.00    +0.000 A 
ATOM     23  C   UNL     1      -2.210  12.129  19.090  0.00  0.00    +0.000 A 
ATOM     24  C   UNL     1      -0.874  11.706  19.098  0.00  0.00    +0.000 A 
ENDBRANCH  17  19
ENDBRANCH  14  17
TORSDOF 2
ENDMDL
MODEL 4
REMARK VINA RESULT:      -8.6      5.695      7.411
REMARK  Name = 
REMARK  2 active torsions:
REMARK  status: ('A' for Active; 'I' for Inactive)
REMARK    1  A    between atoms: C_14  and  N_15
REMARK    2  A    between atoms: N_15  and  C_16
REMARK                            x       y       z     vdW  Elec       q    Type
REMARK                         _______ _______ _______ _____ _____    ______ ____
ROOT
ATOM      1  O   UNL     1       4.038   6.973  16.673  0.00  0.00    +0.000 OA
ATOM      2  C   UNL     1       3.761   6.534  17.790  0.00  0.00    +0.000 C 
ATOM      3  C   UNL     1       4.434   5.300  18.320  0.00  0.00    +0.000 C 
ATOM      4  C   UNL     1       3.426   4.233  18.606  0.00  0.00    +0.000 A 
ATOM      5  C   UNL     1       3.353   3.073  17.830  0.00  0.00    +0.000 A 
ATOM      6  C   UNL     1       2.404   2.092  18.117  0.00  0.00    +0.000 A 
ATOM      7  C   UNL     1       1.522   2.270  19.183  0.00  0.00    +0.000 A 
ATOM      8  C   UNL     1       1.577   3.436  19.950  0.00  0.00    +0.000 A 
ATOM      9  C   UNL     1       2.509   4.425  19.642  0.00  0.00    +0.000 A 
ATOM     10  O   UNL     1       2.565   5.542  20.444  0.00  0.00    +0.000 OA
ATOM     11  C   UNL     1       2.260   6.752  19.858  0.00  0.00    +0.000 A 
ATOM     12  C   UNL     1       1.392   7.561  20.609  0.00  0.00    +0.000 A 
ATOM     13  C   UNL     1       0.972   8.810  20.130  0.00  0.00    +0.000 A 
ATOM     14  C   UNL     1       1.416   9.273  18.893  0.00  0.00    +0.000 A 
ATOM     15  C   UNL     1       2.346   8.494  18.192  0.00  0.00    +0.000 A 
ATOM     16  C   UNL     1       2.770   7.239  18.651  0.00  0.00    +0.000 A 
ENDROOT
BRANCH  14  17
ATOM     17  N   UNL     1       0.898  10.465  18.343  0.00  0.00    +0.000 N 
ATOM     18  H   UNL     1       1.470  10.842  17.594  0.00  0.00    +0.000 HD
BRANCH  17  19
ATOM     19  C   UNL     1      -0.470  10.810  18.267  0.00  0.00    +0.000 A 
ATOM     20  C   UNL     1      -0.990  11.858  19.047  0.00  0.00    +0.000 A 
ATOM     21  C   UNL     1      -2.360  12.101  19.116  0.00  0.00    +0.000 A 
ATOM     22  C   UNL     1      -3.235  11.323  18.364  0.00  0.00    +0.000 A 
ATOM     23  C   UNL     1      -2.732  10.318  17.537  0.00  0.00    +0.000 A 
ATOM     24  C   UNL     1      -1.355  10.065  17.485  0.00  0.00    +0.000 A 
ENDBRANCH  17  19
ENDBRANCH  14  17
TORSDOF 2
ENDMDL
MODEL 5
REMARK VINA RESULT:      -8.6      7.060      9.675
REMARK  Name = 
REMARK  2 active torsions:
REMARK  status: ('A' for Active; 'I' for Inactive)
REMARK    1  A    between atoms: C_14  and  N_15
REMARK    2  A    between atoms: N_15  and  C_16
REMARK                            x       y       z     vdW  Elec       q    Type
REMARK                         _______ _______ _______ _____ _____    ______ ____
ROOT
ATOM      1  O   UNL     1      -0.063   9.786  22.351  0.00  0.00    +0.000 OA
ATOM      2  C   UNL     1       0.091  10.319  21.250  0.00  0.00    +0.000 C 
ATOM      3  C   UNL     1      -0.408  11.713  20.994  0.00  0.00    +0.000 C 
ATOM      4  C   UNL     1      -1.412  11.717  19.886  0.00  0.00    +0.000 A 
ATOM      5  C   UNL     1      -2.763  11.975  20.129  0.00  0.00    +0.000 A 
ATOM      6  C   UNL     1      -3.681  11.973  19.078  0.00  0.00    +0.000 A 
ATOM      7  C   UNL     1      -3.248  11.712  17.779  0.00  0.00    +0.000 A 
ATOM      8  C   UNL     1      -1.902  11.433  17.532  0.00  0.00    +0.000 A 
ATOM      9  C   UNL     1      -0.994  11.408  18.589  0.00  0.00    +0.000 A 
ATOM     10  O   UNL     1       0.332  11.173  18.305  0.00  0.00    +0.000 OA
ATOM     11  C   UNL     1       0.894  10.030  18.832  0.00  0.00    +0.000 A 
ATOM     12  C   UNL     1       1.667   9.289  17.923  0.00  0.00    +0.000 A 
ATOM     13  C   UNL     1       2.281   8.088  18.307  0.00  0.00    +0.000 A 
ATOM     14  C   UNL     1       2.133   7.609  19.607  0.00  0.00    +0.000 A 
ATOM     15  C   UNL     1       1.429   8.398  20.525  0.00  0.00    +0.000 A 
ATOM     16  C   UNL     1       0.802   9.596  20.158  0.00  0.00    +0.000 A 
ENDROOT
BRANCH  14  17
ATOM     17  N   UNL     1       2.635   6.339  19.967  0.00  0.00    +0.000 N 
ATOM     18  H   UNL     1       3.166   6.349  20.832  0.00  0.00    +0.000 HD
BRANCH  17  19
ATOM     19  C   UNL     1       2.029   5.099  19.663  0.00  0.00    +0.000 A 
ATOM     20  C   UNL     1       1.453   4.315  20.678  0.00  0.00    +0.000 A 
ATOM     21  C   UNL     1       1.006   3.019  20.428  0.00  0.00    +0.000 A 
ATOM     22  C   UNL     1       1.085   2.501  19.140  0.00  0.00    +0.000 A 
ATOM     23  C   UNL     1       1.597   3.287  18.107  0.00  0.00    +0.000 A 
ATOM     24  C   UNL     1       2.063   4.583  18.366  0.00  0.00    +0.000 A 
ENDBRANCH  17  19
ENDBRANCH  14  17
TORSDOF 2
ENDMDL
MODEL 6
REMARK VINA RESULT:      -8.5      6.958      9.648
REMARK  Name = 
REMARK  2 active torsions:
REMARK  status: ('A' for Active; 'I' for Inactive)
REMARK    1  A    between atoms: C_14  and  N_15
REMARK    2  A    between atoms: N_15  and  C_16
REMARK                            x       y       z     vdW  Elec       q    Type
REMARK                         _______ _______ _______ _____ _____    ______ ____
ROOT
ATOM      1  O   UNL     1       0.265   9.891  22.437  0.00  0.00    +0.000 OA
ATOM      2  C   UNL     1       0.363  10.342  21.296  0.00  0.00    +0.000 C 
ATOM      3  C   UNL     1      -0.105  11.734  20.976  0.00  0.00    +0.000 C 
ATOM      4  C   UNL     1      -1.179  11.701  19.936  0.00  0.00    +0.000 A 
ATOM      5  C   UNL     1      -2.503  12.024  20.247  0.00  0.00    +0.000 A 
ATOM      6  C   UNL     1      -3.487  11.986  19.259  0.00  0.00    +0.000 A 
ATOM      7  C   UNL     1      -3.150  11.623  17.956  0.00  0.00    +0.000 A 
ATOM      8  C   UNL     1      -1.832  11.279  17.643  0.00  0.00    +0.000 A 
ATOM      9  C   UNL     1      -0.858  11.292  18.640  0.00  0.00    +0.000 A 
ATOM     10  O   UNL     1       0.438  10.990  18.289  0.00  0.00    +0.000 OA
ATOM     11  C   UNL     1       0.996   9.864  18.856  0.00  0.00    +0.000 A 
ATOM     12  C   UNL     1       1.684   9.036  17.954  0.00  0.00    +0.000 A 
ATOM     13  C   UNL     1       2.282   7.842  18.379  0.00  0.00    +0.000 A 
ATOM     14  C   UNL     1       2.206   7.456  19.716  0.00  0.00    +0.000 A 
ATOM     15  C   UNL     1       1.589   8.330  20.621  0.00  0.00    +0.000 A 
ATOM     16  C   UNL     1       0.978   9.523  20.213  0.00  0.00    +0.000 A 
ENDROOT
BRANCH  14  17
ATOM     17  N   UNL     1       2.689   6.196  20.130  0.00  0.00    +0.000 N 
ATOM     18  H   UNL     1       3.073   6.203  21.069  0.00  0.00    +0.000 HD
BRANCH  17  19
ATOM     19  C   UNL     1       2.184   4.944  19.711  0.00  0.00    +0.000 A 
ATOM     20  C   UNL     1       2.526   4.418  18.453  0.00  0.00    +0.000 A 
ATOM     21  C   UNL     1       1.908   3.274  17.953  0.00  0.00    +0.000 A 
ATOM     22  C   UNL     1       0.965   2.606  18.728  0.00  0.00    +0.000 A 
ATOM     23  C   UNL     1       0.658   3.079  20.004  0.00  0.00    +0.000 A 
ATOM     24  C   UNL     1       1.269   4.240  20.497  0.00  0.00    +0.000 A 
ENDBRANCH  17  19
ENDBRANCH  14  17
TORSDOF 2
ENDMDL
MODEL 7
REMARK VINA RESULT:      -8.4      6.656      8.357
REMARK  Name = 
REMARK  2 active torsions:
REMARK  status: ('A' for Active; 'I' for Inactive)
REMARK    1  A    between atoms: C_14  and  N_15
REMARK    2  A    between atoms: N_15  and  C_16
REMARK                            x       y       z     vdW  Elec       q    Type
REMARK                         _______ _______ _______ _____ _____    ______ ____
ROOT
ATOM      1  O   UNL     1       2.594   8.330  17.069  0.00  0.00    +0.000 OA
ATOM      2  C   UNL     1       2.576   7.784  18.173  0.00  0.00    +0.000 C 
ATOM      3  C   UNL     1       3.427   6.577  18.448  0.00  0.00    +0.000 C 
ATOM      4  C   UNL     1       2.574   5.407  18.821  0.00  0.00    +0.000 A 
ATOM      5  C   UNL     1       2.432   4.308  17.969  0.00  0.00    +0.000 A 
ATOM      6  C   UNL     1       1.631   3.228  18.340  0.00  0.00    +0.000 A 
ATOM      7  C   UNL     1       0.967   3.244  19.566  0.00  0.00    +0.000 A 
ATOM      8  C   UNL     1       1.089   4.348  20.414  0.00  0.00    +0.000 A 
ATOM      9  C   UNL     1       1.868   5.437  20.027  0.00  0.00    +0.000 A 
ATOM     10  O   UNL     1       2.002   6.489  20.903  0.00  0.00    +0.000 OA
ATOM     11  C   UNL     1       1.502   7.709  20.501  0.00  0.00    +0.000 A 
ATOM     12  C   UNL     1       0.744   8.378  21.476  0.00  0.00    +0.000 A 
ATOM     13  C   UNL     1       0.149   9.618  21.204  0.00  0.00    +0.000 A 
ATOM     14  C   UNL     1       0.306  10.212  19.953  0.00  0.00    +0.000 A 
ATOM     15  C   UNL     1       1.131   9.574  19.018  0.00  0.00    +0.000 A 
ATOM     16  C   UNL     1       1.727   8.331  19.269  0.00  0.00    +0.000 A 
ENDROOT
BRANCH  14  17
ATOM     17  N   UNL     1      -0.395  11.393  19.625  0.00  0.00    +0.000 N 
ATOM     18  H   UNL     1       0.216  12.184  19.448  0.00  0.00    +0.000 HD
BRANCH  17  19
ATOM     19  C   UNL     1      -1.642  11.453  18.963  0.00  0.00    +0.000 A 
ATOM     20  C   UNL     1      -2.729  12.131  19.541  0.00  0.00    +0.000 A 
ATOM     21  C   UNL     1      -4.007  12.057  18.990  0.00  0.00    +0.000 A 
ATOM     22  C   UNL     1      -4.209  11.338  17.817  0.00  0.00    +0.000 A 
ATOM     23  C   UNL     1      -3.130  10.709  17.195  0.00  0.00    +0.000 A 
ATOM     24  C   UNL     1      -1.850  10.770  17.762  0.00  0.00    +0.000 A 
ENDBRANCH  17  19
ENDBRANCH  14  17
TORSDOF 2
ENDMDL
MODEL 8
REMARK VINA RESULT:      -8.3      6.635      8.325
REMARK  Name = 
REMARK  2 active torsions:
REMARK  status: ('A' for Active; 'I' for Inactive)
REMARK    1  A    between atoms: C_14  and  N_15
REMARK    2  A    between atoms: N_15  and  C_16
REMARK                            x       y       z     vdW  Elec       q    Type
REMARK                         _______ _______ _______ _____ _____    ______ ____
ROOT
ATOM      1  O   UNL     1       2.679   8.141  17.015  0.00  0.00    +0.000 OA
ATOM      2  C   UNL     1       2.660   7.592  18.117  0.00  0.00    +0.000 C 
ATOM      3  C   UNL     1       3.488   6.366  18.381  0.00  0.00    +0.000 C 
ATOM      4  C   UNL     1       2.615   5.213  18.758  0.00  0.00    +0.000 A 
ATOM      5  C   UNL     1       2.443   4.120  17.903  0.00  0.00    +0.000 A 
ATOM      6  C   UNL     1       1.624   3.056  18.278  0.00  0.00    +0.000 A 
ATOM      7  C   UNL     1       0.971   3.081  19.511  0.00  0.00    +0.000 A 
ATOM      8  C   UNL     1       1.123   4.180  20.361  0.00  0.00    +0.000 A 
ATOM      9  C   UNL     1       1.921   5.253  19.970  0.00  0.00    +0.000 A 
ATOM     10  O   UNL     1       2.084   6.300  20.848  0.00  0.00    +0.000 OA
ATOM     11  C   UNL     1       1.605   7.531  20.454  0.00  0.00    +0.000 A 
ATOM     12  C   UNL     1       0.869   8.212  21.438  0.00  0.00    +0.000 A 
ATOM     13  C   UNL     1       0.298   9.465  21.175  0.00  0.00    +0.000 A 
ATOM     14  C   UNL     1       0.455  10.060  19.924  0.00  0.00    +0.000 A 
ATOM     15  C   UNL     1       1.259   9.409  18.981  0.00  0.00    +0.000 A 
ATOM     16  C   UNL     1       1.832   8.152  19.222  0.00  0.00    +0.000 A 
ENDROOT
BRANCH  14  17
ATOM     17  N   UNL     1      -0.224  11.256  19.606  0.00  0.00    +0.000 N 
ATOM     18  H   UNL     1       0.362  11.934  19.130  0.00  0.00    +0.000 HD
BRANCH  17  19
ATOM     19  C   UNL     1      -1.604  11.368  19.321  0.00  0.00    +0.000 A 
ATOM     20  C   UNL     1      -2.186  10.610  18.290  0.00  0.00    +0.000 A 
ATOM     21  C   UNL     1      -3.500  10.829  17.881  0.00  0.00    +0.000 A 
ATOM     22  C   UNL     1      -4.272  11.784  18.533  0.00  0.00    +0.000 A 
ATOM     23  C   UNL     1      -3.730  12.504  19.600  0.00  0.00    +0.000 A 
ATOM     24  C   UNL     1      -2.403  12.293  19.996  0.00  0.00    +0.000 A 
ENDBRANCH  17  19
ENDBRANCH  14  17
TORSDOF 2
ENDMDL
MODEL 9
REMARK VINA RESULT:      -8.2      5.425      6.158
REMARK  Name = 
REMARK  2 active torsions:
REMARK  status: ('A' for Active; 'I' for Inactive)
REMARK    1  A    between atoms: C_14  and  N_15
REMARK    2  A    between atoms: N_15  and  C_16
REMARK                            x       y       z     vdW  Elec       q    Type
REMARK                         _______ _______ _______ _____ _____    ______ ____
ROOT
ATOM      1  O   UNL     1       3.899   7.019  16.759  0.00  0.00    +0.000 OA
ATOM      2  C   UNL     1       3.539   6.706  17.895  0.00  0.00    +0.000 C 
ATOM      3  C   UNL     1       4.057   5.456  18.548  0.00  0.00    +0.000 C 
ATOM      4  C   UNL     1       2.931   4.528  18.874  0.00  0.00    +0.000 A 
ATOM      5  C   UNL     1       2.760   3.322  18.189  0.00  0.00    +0.000 A 
ATOM      6  C   UNL     1       1.701   2.473  18.512  0.00  0.00    +0.000 A 
ATOM      7  C   UNL     1       0.809   2.829  19.523  0.00  0.00    +0.000 A 
ATOM      8  C   UNL     1       0.963   4.042  20.199  0.00  0.00    +0.000 A 
ATOM      9  C   UNL     1       2.006   4.900  19.853  0.00  0.00    +0.000 A 
ATOM     10  O   UNL     1       2.155   6.066  20.567  0.00  0.00    +0.000 OA
ATOM     11  C   UNL     1       2.002   7.249  19.875  0.00  0.00    +0.000 A 
ATOM     12  C   UNL     1       1.202   8.204  20.523  0.00  0.00    +0.000 A 
ATOM     13  C   UNL     1       0.935   9.447  19.931  0.00  0.00    +0.000 A 
ATOM     14  C   UNL     1       1.467   9.756  18.681  0.00  0.00    +0.000 A 
ATOM     15  C   UNL     1       2.330   8.829  18.083  0.00  0.00    +0.000 A 
ATOM     16  C   UNL     1       2.602   7.580  18.656  0.00  0.00    +0.000 A 
ENDROOT
BRANCH  14  17
ATOM     17  N   UNL     1       1.099  10.947  18.018  0.00  0.00    +0.000 N 
ATOM     18  H   UNL     1       0.229  10.866  17.503  0.00  0.00    +0.000 HD
BRANCH  17  19
ATOM     19  C   UNL     1       1.407  12.258  18.449  0.00  0.00    +0.000 A 
ATOM     20  C   UNL     1       0.435  13.048  19.087  0.00  0.00    +0.000 A 
ATOM     21  C   UNL     1       0.664  14.395  19.365  0.00  0.00    +0.000 A 
ATOM     22  C   UNL     1       1.893  14.963  19.049  0.00  0.00    +0.000 A 
ATOM     23  C   UNL     1       2.891  14.178  18.471  0.00  0.00    +0.000 A 
ATOM     24  C   UNL     1       2.652  12.829  18.177  0.00  0.00    +0.000 A 
ENDBRANCH  17  19
ENDBRANCH  14  17
TORSDOF 2
ENDMDL
