MODEL 1
REMARK VINA RESULT:      -7.8      0.000      0.000
REMARK  Name = 
REMARK  3 active torsions:
REMARK  status: ('A' for Active; 'I' for Inactive)
REMARK    1  A    between atoms: C_4  and  C_5
REMARK    2  A    between atoms: C_8  and  C_9
REMARK    3  A    between atoms: C_9  and  N_10
REMARK                            x       y       z     vdW  Elec       q    Type
REMARK                         _______ _______ _______ _____ _____    ______ ____
ROOT
ATOM      1  N   UNL     1       1.887   7.721  20.436  0.00  0.00    +0.000 NA
ATOM      2  C   UNL     1       0.897   8.534  21.150  0.00  0.00    +0.000 C 
ATOM      3  C   UNL     1       1.101  10.030  20.854  0.00  0.00    +0.000 C 
ATOM      4  C   UNL     1       0.622  10.322  19.422  0.00  0.00    +0.000 C 
ATOM      5  C   UNL     1       1.186   9.265  18.446  0.00  0.00    +0.000 C 
ATOM      6  C   UNL     1       2.135   8.194  19.068  0.00  0.00    +0.000 C 
ATOM      7  O   UNL     1      -0.832  10.052  19.483  0.00  0.00    +0.000 OA
ATOM      8  C   UNL     1      -1.594  11.178  19.036  0.00  0.00    +0.000 C 
ATOM      9  C   UNL     1      -0.635  12.305  19.102  0.00  0.00    +0.000 A 
ATOM     10  C   UNL     1      -0.942  13.659  19.065  0.00  0.00    +0.000 A 
ATOM     11  C   UNL     1       0.093  14.556  18.840  0.00  0.00    +0.000 A 
ATOM     12  C   UNL     1       1.393  14.063  18.642  0.00  0.00    +0.000 A 
ATOM     13  C   UNL     1       1.693  12.687  18.775  0.00  0.00    +0.000 A 
ATOM     14  C   UNL     1       0.664  11.799  19.067  0.00  0.00    +0.000 A 
ENDROOT
BRANCH   1  15
ATOM     15  C   UNL     1       1.587   6.273  20.576  0.00  0.00    +0.000 C 
BRANCH  15  19
ATOM     16  C   UNL     1       3.680   4.546  18.030  0.00  0.00    +0.000 A 
ATOM     17  C   UNL     1       2.687   3.593  17.926  0.00  0.00    +0.000 A 
ATOM     18  S   UNL     1       1.402   3.932  19.010  0.00  0.00    +0.000 S 
ATOM     19  C   UNL     1       2.249   5.322  19.580  0.00  0.00    +0.000 A 
ATOM     20  N   UNL     1       3.421   5.527  18.996  0.00  0.00    +0.000 NA
BRANCH  16  24
ATOM     21  C   UNL     1       7.362   4.419  15.816  0.00  0.00    +0.000 A 
ATOM     22  C   UNL     1       6.170   4.155  15.164  0.00  0.00    +0.000 A 
ATOM     23  C   UNL     1       4.951   4.203  15.874  0.00  0.00    +0.000 A 
ATOM     24  C   UNL     1       4.926   4.522  17.243  0.00  0.00    +0.000 A 
ATOM     25  C   UNL     1       6.140   4.805  17.872  0.00  0.00    +0.000 A 
ATOM     26  C   UNL     1       7.350   4.746  17.171  0.00  0.00    +0.000 A 
ENDBRANCH  16  24
ENDBRANCH  15  19
ENDBRANCH   1  15
TORSDOF 3
ENDMDL
MODEL 2
REMARK VINA RESULT:      -7.8      0.773      1.211
REMARK  Name = 
REMARK  3 active torsions:
REMARK  status: ('A' for Active; 'I' for Inactive)
REMARK    1  A    between atoms: C_4  and  C_5
REMARK    2  A    between atoms: C_8  and  C_9
REMARK    3  A    between atoms: C_9  and  N_10
REMARK                            x       y       z     vdW  Elec       q    Type
REMARK                         _______ _______ _______ _____ _____    ______ ____
ROOT
ATOM      1  N   UNL     1       1.722   8.055  20.490  0.00  0.00    +0.000 NA
ATOM      2  C   UNL     1       0.869   8.937  21.293  0.00  0.00    +0.000 C 
ATOM      3  C   UNL     1       1.151  10.415  20.970  0.00  0.00    +0.000 C 
ATOM      4  C   UNL     1       0.555  10.742  19.591  0.00  0.00    +0.000 C 
ATOM      5  C   UNL     1       0.942   9.649  18.570  0.00  0.00    +0.000 C 
ATOM      6  C   UNL     1       1.867   8.511  19.101  0.00  0.00    +0.000 C 
ATOM      7  O   UNL     1      -0.901  10.580  19.797  0.00  0.00    +0.000 OA
ATOM      8  C   UNL     1      -1.620  11.758  19.420  0.00  0.00    +0.000 C 
ATOM      9  C   UNL     1      -0.579  12.812  19.385  0.00  0.00    +0.000 A 
ATOM     10  C   UNL     1      -0.789  14.185  19.370  0.00  0.00    +0.000 A 
ATOM     11  C   UNL     1       0.281  15.004  19.039  0.00  0.00    +0.000 A 
ATOM     12  C   UNL     1       1.516  14.418  18.716  0.00  0.00    +0.000 A 
ATOM     13  C   UNL     1       1.726  13.024  18.827  0.00  0.00    +0.000 A 
ATOM     14  C   UNL     1       0.670  12.213  19.224  0.00  0.00    +0.000 A 
ENDROOT
BRANCH   1  15
ATOM     15  C   UNL     1       1.332   6.632  20.668  0.00  0.00    +0.000 C 
BRANCH  15  19
ATOM     16  C   UNL     1       3.922   4.539  19.006  0.00  0.00    +0.000 A 
ATOM     17  C   UNL     1       3.494   3.478  19.779  0.00  0.00    +0.000 A 
ATOM     18  S   UNL     1       2.232   3.961  20.833  0.00  0.00    +0.000 S 
ATOM     19  C   UNL     1       2.338   5.571  20.222  0.00  0.00    +0.000 A 
ATOM     20  N   UNL     1       3.258   5.741  19.283  0.00  0.00    +0.000 NA
BRANCH  16  24
ATOM     21  C   UNL     1       7.032   4.323  16.046  0.00  0.00    +0.000 A 
ATOM     22  C   UNL     1       7.353   4.689  17.342  0.00  0.00    +0.000 A 
ATOM     23  C   UNL     1       6.346   4.754  18.328  0.00  0.00    +0.000 A 
ATOM     24  C   UNL     1       5.010   4.447  18.016  0.00  0.00    +0.000 A 
ATOM     25  C   UNL     1       4.715   4.060  16.707  0.00  0.00    +0.000 A 
ATOM     26  C   UNL     1       5.712   4.007  15.726  0.00  0.00    +0.000 A 
ENDBRANCH  16  24
ENDBRANCH  15  19
ENDBRANCH   1  15
TORSDOF 3
ENDMDL
MODEL 3
REMARK VINA RESULT:      -7.7      2.893      4.270
REMARK  Name = 
REMARK  3 active torsions:
REMARK  status: ('A' for Active; 'I' for Inactive)
REMARK    1  A    between atoms: C_4  and  C_5
REMARK    2  A    between atoms: C_8  and  C_9
REMARK    3  A    between atoms: C_9  and  N_10
REMARK                            x       y       z     vdW  Elec       q    Type
REMARK                         _______ _______ _______ _____ _____    ______ ____
ROOT
ATOM      1  N   UNL     1       0.200   9.311  21.192  0.00  0.00    +0.000 NA
ATOM      2  C   UNL     1       0.310  10.628  20.556  0.00  0.00    +0.000 C 
ATOM      3  C   UNL     1      -1.014  11.404  20.670  0.00  0.00    +0.000 C 
ATOM      4  C   UNL     1      -1.184  11.883  22.121  0.00  0.00    +0.000 C 
ATOM      5  C   UNL     1      -0.889  10.727  23.102  0.00  0.00    +0.000 C 
ATOM      6  C   UNL     1      -0.549   9.348  22.456  0.00  0.00    +0.000 C 
ATOM      7  O   UNL     1      -0.067  12.837  22.303  0.00  0.00    +0.000 OA
ATOM      8  C   UNL     1      -0.534  14.115  22.745  0.00  0.00    +0.000 C 
ATOM      9  C   UNL     1      -1.981  14.094  22.427  0.00  0.00    +0.000 A 
ATOM     10  C   UNL     1      -2.835  15.187  22.376  0.00  0.00    +0.000 A 
ATOM     11  C   UNL     1      -4.202  14.946  22.356  0.00  0.00    +0.000 A 
ATOM     12  C   UNL     1      -4.662  13.620  22.407  0.00  0.00    +0.000 A 
ATOM     13  C   UNL     1      -3.770  12.523  22.367  0.00  0.00    +0.000 A 
ATOM     14  C   UNL     1      -2.403  12.769  22.319  0.00  0.00    +0.000 A 
ENDROOT
BRANCH   1  15
ATOM     15  C   UNL     1       1.520   8.632  21.241  0.00  0.00    +0.000 C 
BRANCH  15  19
ATOM     16  C   UNL     1       2.515   5.831  19.002  0.00  0.00    +0.000 A 
ATOM     17  C   UNL     1       2.590   6.744  17.969  0.00  0.00    +0.000 A 
ATOM     18  S   UNL     1       2.155   8.312  18.509  0.00  0.00    +0.000 S 
ATOM     19  C   UNL     1       1.863   7.687  20.090  0.00  0.00    +0.000 A 
ATOM     20  N   UNL     1       2.080   6.385  20.213  0.00  0.00    +0.000 NA
BRANCH  16  24
ATOM     21  C   UNL     1       3.385   1.657  18.453  0.00  0.00    +0.000 A 
ATOM     22  C   UNL     1       3.971   2.340  19.505  0.00  0.00    +0.000 A 
ATOM     23  C   UNL     1       3.687   3.707  19.705  0.00  0.00    +0.000 A 
ATOM     24  C   UNL     1       2.809   4.394  18.850  0.00  0.00    +0.000 A 
ATOM     25  C   UNL     1       2.214   3.679  17.809  0.00  0.00    +0.000 A 
ATOM     26  C   UNL     1       2.504   2.325  17.603  0.00  0.00    +0.000 A 
ENDBRANCH  16  24
ENDBRANCH  15  19
ENDBRANCH   1  15
TORSDOF 3
ENDMDL
MODEL 4
REMARK VINA RESULT:      -7.7      2.937      9.332
REMARK  Name = 
REMARK  3 active torsions:
REMARK  status: ('A' for Active; 'I' for Inactive)
REMARK    1  A    between atoms: C_4  and  C_5
REMARK    2  A    between atoms: C_8  and  C_9
REMARK    3  A    between atoms: C_9  and  N_10
REMARK                            x       y       z     vdW  Elec       q    Type
REMARK                         _______ _______ _______ _____ _____    ______ ____
ROOT
ATOM      1  N   UNL     1       1.347   8.558  19.459  0.00  0.00    +0.000 NA
ATOM      2  C   UNL     1       1.912   7.658  20.469  0.00  0.00    +0.000 C 
ATOM      3  C   UNL     1       1.816   6.192  20.011  0.00  0.00    +0.000 C 
ATOM      4  C   UNL     1       2.856   5.949  18.905  0.00  0.00    +0.000 C 
ATOM      5  C   UNL     1       2.794   7.084  17.858  0.00  0.00    +0.000 C 
ATOM      6  C   UNL     1       1.699   8.170  18.087  0.00  0.00    +0.000 C 
ATOM      7  O   UNL     1       4.149   6.137  19.600  0.00  0.00    +0.000 OA
ATOM      8  C   UNL     1       4.999   4.997  19.444  0.00  0.00    +0.000 C 
ATOM      9  C   UNL     1       4.076   3.921  19.015  0.00  0.00    +0.000 A 
ATOM     10  C   UNL     1       4.334   2.556  19.018  0.00  0.00    +0.000 A 
ATOM     11  C   UNL     1       3.473   1.729  18.311  0.00  0.00    +0.000 A 
ATOM     12  C   UNL     1       2.397   2.301  17.611  0.00  0.00    +0.000 A 
ATOM     13  C   UNL     1       2.106   3.682  17.699  0.00  0.00    +0.000 A 
ATOM     14  C   UNL     1       2.932   4.497  18.463  0.00  0.00    +0.000 A 
ENDROOT
BRANCH   1  15
ATOM     15  C   UNL     1       1.596   9.979  19.815  0.00  0.00    +0.000 C 
BRANCH  15  19
ATOM     16  C   UNL     1      -1.442  11.849  18.753  0.00  0.00    +0.000 A 
ATOM     17  C   UNL     1      -0.626  12.929  18.481  0.00  0.00    +0.000 A 
ATOM     18  S   UNL     1       1.007  12.571  18.864  0.00  0.00    +0.000 S 
ATOM     19  C   UNL     1       0.537  11.000  19.399  0.00  0.00    +0.000 A 
ATOM     20  N   UNL     1      -0.761  10.751  19.295  0.00  0.00    +0.000 NA
BRANCH  16  24
ATOM     21  C   UNL     1      -5.692  11.754  18.117  0.00  0.00    +0.000 A 
ATOM     22  C   UNL     1      -5.195  12.267  19.302  0.00  0.00    +0.000 A 
ATOM     23  C   UNL     1      -3.802  12.315  19.522  0.00  0.00    +0.000 A 
ATOM     24  C   UNL     1      -2.902  11.851  18.548  0.00  0.00    +0.000 A 
ATOM     25  C   UNL     1      -3.427  11.358  17.352  0.00  0.00    +0.000 A 
ATOM     26  C   UNL     1      -4.809  11.300  17.138  0.00  0.00    +0.000 A 
ENDBRANCH  16  24
ENDBRANCH  15  19
ENDBRANCH   1  15
TORSDOF 3
ENDMDL
MODEL 5
REMARK VINA RESULT:      -7.6      2.755      4.144
REMARK  Name = 
REMARK  3 active torsions:
REMARK  status: ('A' for Active; 'I' for Inactive)
REMARK    1  A    between atoms: C_4  and  C_5
REMARK    2  A    between atoms: C_8  and  C_9
REMARK    3  A    between atoms: C_9  and  N_10
REMARK                            x       y       z     vdW  Elec       q    Type
REMARK                         _______ _______ _______ _____ _____    ______ ____
ROOT
ATOM      1  N   UNL     1       0.281  10.538  18.834  0.00  0.00    +0.000 NA
ATOM      2  C   UNL     1      -0.778   9.690  18.279  0.00  0.00    +0.000 C 
ATOM      3  C   UNL     1      -2.158  10.118  18.810  0.00  0.00    +0.000 C 
ATOM      4  C   UNL     1      -2.564  11.436  18.131  0.00  0.00    +0.000 C 
ATOM      5  C   UNL     1      -1.387  12.436  18.165  0.00  0.00    +0.000 C 
ATOM      6  C   UNL     1      -0.098  11.956  18.900  0.00  0.00    +0.000 C 
ATOM      7  O   UNL     1      -2.709  11.060  16.707  0.00  0.00    +0.000 OA
ATOM      8  C   UNL     1      -3.999  11.412  16.200  0.00  0.00    +0.000 C 
ATOM      9  C   UNL     1      -4.816  11.618  17.419  0.00  0.00    +0.000 A 
ATOM     10  C   UNL     1      -6.202  11.679  17.488  0.00  0.00    +0.000 A 
ATOM     11  C   UNL     1      -6.775  12.169  18.653  0.00  0.00    +0.000 A 
ATOM     12  C   UNL     1      -5.939  12.598  19.697  0.00  0.00    +0.000 A 
ATOM     13  C   UNL     1      -4.535  12.440  19.635  0.00  0.00    +0.000 A 
ATOM     14  C   UNL     1      -3.970  11.887  18.494  0.00  0.00    +0.000 A 
ENDROOT
BRANCH   1  15
ATOM     15  C   UNL     1       1.588  10.246  18.191  0.00  0.00    +0.000 C 
BRANCH  15  19
ATOM     16  C   UNL     1       3.206   6.898  18.040  0.00  0.00    +0.000 A 
ATOM     17  C   UNL     1       2.703   6.648  19.301  0.00  0.00    +0.000 A 
ATOM     18  S   UNL     1       1.835   8.004  19.890  0.00  0.00    +0.000 S 
ATOM     19  C   UNL     1       2.197   8.866  18.440  0.00  0.00    +0.000 A 
ATOM     20  N   UNL     1       2.920   8.184  17.564  0.00  0.00    +0.000 NA
BRANCH  16  24
ATOM     21  C   UNL     1       5.655   4.144  15.826  0.00  0.00    +0.000 A 
ATOM     22  C   UNL     1       4.700   3.653  16.699  0.00  0.00    +0.000 A 
ATOM     23  C   UNL     1       3.881   4.542  17.425  0.00  0.00    +0.000 A 
ATOM     24  C   UNL     1       4.015   5.933  17.273  0.00  0.00    +0.000 A 
ATOM     25  C   UNL     1       4.971   6.405  16.370  0.00  0.00    +0.000 A 
ATOM     26  C   UNL     1       5.791   5.522  15.658  0.00  0.00    +0.000 A 
ENDBRANCH  16  24
ENDBRANCH  15  19
ENDBRANCH   1  15
TORSDOF 3
ENDMDL
MODEL 6
REMARK VINA RESULT:      -7.5      3.399      9.707
REMARK  Name = 
REMARK  3 active torsions:
REMARK  status: ('A' for Active; 'I' for Inactive)
REMARK    1  A    between atoms: C_4  and  C_5
REMARK    2  A    between atoms: C_8  and  C_9
REMARK    3  A    between atoms: C_9  and  N_10
REMARK                            x       y       z     vdW  Elec       q    Type
REMARK                         _______ _______ _______ _____ _____    ______ ____
ROOT
ATOM      1  N   UNL     1       1.109   8.988  19.682  0.00  0.00    +0.000 NA
ATOM      2  C   UNL     1       1.715   8.045  20.628  0.00  0.00    +0.000 C 
ATOM      3  C   UNL     1       1.606   6.601  20.107  0.00  0.00    +0.000 C 
ATOM      4  C   UNL     1       2.604   6.414  18.953  0.00  0.00    +0.000 C 
ATOM      5  C   UNL     1       2.499   7.594  17.962  0.00  0.00    +0.000 C 
ATOM      6  C   UNL     1       1.410   8.664  18.281  0.00  0.00    +0.000 C 
ATOM      7  O   UNL     1       3.922   6.576  19.607  0.00  0.00    +0.000 OA
ATOM      8  C   UNL     1       4.769   5.448  19.367  0.00  0.00    +0.000 C 
ATOM      9  C   UNL     1       3.833   4.388  18.925  0.00  0.00    +0.000 A 
ATOM     10  C   UNL     1       4.095   3.026  18.856  0.00  0.00    +0.000 A 
ATOM     11  C   UNL     1       3.210   2.228  18.145  0.00  0.00    +0.000 A 
ATOM     12  C   UNL     1       2.107   2.825  17.513  0.00  0.00    +0.000 A 
ATOM     13  C   UNL     1       1.815   4.200  17.675  0.00  0.00    +0.000 A 
ATOM     14  C   UNL     1       2.667   4.983  18.443  0.00  0.00    +0.000 A 
ENDROOT
BRANCH   1  15
ATOM     15  C   UNL     1       1.367  10.392  20.092  0.00  0.00    +0.000 C 
BRANCH  15  19
ATOM     16  C   UNL     1      -1.783  12.212  20.879  0.00  0.00    +0.000 A 
ATOM     17  C   UNL     1      -1.657  12.860  19.666  0.00  0.00    +0.000 A 
ATOM     18  S   UNL     1      -0.229  12.365  18.856  0.00  0.00    +0.000 S 
ATOM     19  C   UNL     1       0.162  11.328  20.178  0.00  0.00    +0.000 A 
ATOM     20  N   UNL     1      -0.721  11.345  21.167  0.00  0.00    +0.000 NA
BRANCH  16  24
ATOM     21  C   UNL     1      -4.960  12.924  23.685  0.00  0.00    +0.000 A 
ATOM     22  C   UNL     1      -5.198  13.096  22.332  0.00  0.00    +0.000 A 
ATOM     23  C   UNL     1      -4.170  12.856  21.397  0.00  0.00    +0.000 A 
ATOM     24  C   UNL     1      -2.896  12.437  21.819  0.00  0.00    +0.000 A 
ATOM     25  C   UNL     1      -2.687  12.249  23.187  0.00  0.00    +0.000 A 
ATOM     26  C   UNL     1      -3.704  12.498  24.115  0.00  0.00    +0.000 A 
ENDBRANCH  16  24
ENDBRANCH  15  19
ENDBRANCH   1  15
TORSDOF 3
ENDMDL
MODEL 7
REMARK VINA RESULT:      -7.4      3.422      9.722
REMARK  Name = 
REMARK  3 active torsions:
REMARK  status: ('A' for Active; 'I' for Inactive)
REMARK    1  A    between atoms: C_4  and  C_5
REMARK    2  A    between atoms: C_8  and  C_9
REMARK    3  A    between atoms: C_9  and  N_10
REMARK                            x       y       z     vdW  Elec       q    Type
REMARK                         _______ _______ _______ _____ _____    ______ ____
ROOT
ATOM      1  N   UNL     1       1.157   8.849  19.475  0.00  0.00    +0.000 NA
ATOM      2  C   UNL     1       1.775   7.960  20.464  0.00  0.00    +0.000 C 
ATOM      3  C   UNL     1       1.684   6.491  20.013  0.00  0.00    +0.000 C 
ATOM      4  C   UNL     1       2.684   6.261  18.869  0.00  0.00    +0.000 C 
ATOM      5  C   UNL     1       2.565   7.391  17.822  0.00  0.00    +0.000 C 
ATOM      6  C   UNL     1       1.463   8.462  18.091  0.00  0.00    +0.000 C 
ATOM      7  O   UNL     1       4.000   6.471  19.514  0.00  0.00    +0.000 OA
ATOM      8  C   UNL     1       4.861   5.344  19.328  0.00  0.00    +0.000 C 
ATOM      9  C   UNL     1       3.938   4.252  18.937  0.00  0.00    +0.000 A 
ATOM     10  C   UNL     1       4.217   2.891  18.934  0.00  0.00    +0.000 A 
ATOM     11  C   UNL     1       3.342   2.049  18.262  0.00  0.00    +0.000 A 
ATOM     12  C   UNL     1       2.233   2.602  17.602  0.00  0.00    +0.000 A 
ATOM     13  C   UNL     1       1.924   3.979  17.698  0.00  0.00    +0.000 A 
ATOM     14  C   UNL     1       2.765   4.808  18.428  0.00  0.00    +0.000 A 
ENDROOT
BRANCH   1  15
ATOM     15  C   UNL     1       1.398  10.274  19.817  0.00  0.00    +0.000 C 
BRANCH  15  19
ATOM     16  C   UNL     1      -1.413  12.205  21.307  0.00  0.00    +0.000 A 
ATOM     17  C   UNL     1      -1.981  12.260  20.050  0.00  0.00    +0.000 A 
ATOM     18  S   UNL     1      -0.981  11.483  18.894  0.00  0.00    +0.000 S 
ATOM     19  C   UNL     1       0.174  11.135  20.128  0.00  0.00    +0.000 A 
ATOM     20  N   UNL     1      -0.166  11.568  21.334  0.00  0.00    +0.000 NA
BRANCH  16  24
ATOM     21  C   UNL     1      -3.168  14.044  24.773  0.00  0.00    +0.000 A 
ATOM     22  C   UNL     1      -3.810  12.974  24.175  0.00  0.00    +0.000 A 
ATOM     23  C   UNL     1      -3.242  12.352  23.043  0.00  0.00    +0.000 A 
ATOM     24  C   UNL     1      -2.022  12.802  22.509  0.00  0.00    +0.000 A 
ATOM     25  C   UNL     1      -1.383  13.870  23.143  0.00  0.00    +0.000 A 
ATOM     26  C   UNL     1      -1.953  14.494  24.260  0.00  0.00    +0.000 A 
ENDBRANCH  16  24
ENDBRANCH  15  19
ENDBRANCH   1  15
TORSDOF 3
ENDMDL
MODEL 8
REMARK VINA RESULT:      -7.4      1.517      1.952
REMARK  Name = 
REMARK  3 active torsions:
REMARK  status: ('A' for Active; 'I' for Inactive)
REMARK    1  A    between atoms: C_4  and  C_5
REMARK    2  A    between atoms: C_8  and  C_9
REMARK    3  A    between atoms: C_9  and  N_10
REMARK                            x       y       z     vdW  Elec       q    Type
REMARK                         _______ _______ _______ _____ _____    ______ ____
ROOT
ATOM      1  N   UNL     1       1.289   9.090  20.504  0.00  0.00    +0.000 NA
ATOM      2  C   UNL     1       0.985  10.031  21.586  0.00  0.00    +0.000 C 
ATOM      3  C   UNL     1       0.998  11.481  21.071  0.00  0.00    +0.000 C 
ATOM      4  C   UNL     1      -0.262  11.718  20.224  0.00  0.00    +0.000 C 
ATOM      5  C   UNL     1      -0.460  10.554  19.227  0.00  0.00    +0.000 C 
ATOM      6  C   UNL     1       0.640   9.448  19.236  0.00  0.00    +0.000 C 
ATOM      7  O   UNL     1      -1.366  11.580  21.201  0.00  0.00    +0.000 OA
ATOM      8  C   UNL     1      -2.210  12.735  21.206  0.00  0.00    +0.000 C 
ATOM      9  C   UNL     1      -1.390  13.777  20.544  0.00  0.00    +0.000 A 
ATOM     10  C   UNL     1      -1.617  15.147  20.562  0.00  0.00    +0.000 A 
ATOM     11  C   UNL     1      -0.927  15.934  19.651  0.00  0.00    +0.000 A 
ATOM     12  C   UNL     1      -0.049  15.318  18.744  0.00  0.00    +0.000 A 
ATOM     13  C   UNL     1       0.231  13.933  18.807  0.00  0.00    +0.000 A 
ATOM     14  C   UNL     1      -0.412  13.159  19.765  0.00  0.00    +0.000 A 
ENDROOT
BRANCH   1  15
ATOM     15  C   UNL     1       1.104   7.685  20.952  0.00  0.00    +0.000 C 
BRANCH  15  19
ATOM     16  C   UNL     1       3.201   5.575  18.717  0.00  0.00    +0.000 A 
ATOM     17  C   UNL     1       2.960   4.515  19.568  0.00  0.00    +0.000 A 
ATOM     18  S   UNL     1       1.991   5.006  20.894  0.00  0.00    +0.000 S 
ATOM     19  C   UNL     1       1.963   6.617  20.277  0.00  0.00    +0.000 A 
ATOM     20  N   UNL     1       2.634   6.782  19.146  0.00  0.00    +0.000 NA
BRANCH  16  24
ATOM     21  C   UNL     1       5.657   5.365  15.195  0.00  0.00    +0.000 A 
ATOM     22  C   UNL     1       5.195   4.194  15.771  0.00  0.00    +0.000 A 
ATOM     23  C   UNL     1       4.379   4.246  16.920  0.00  0.00    +0.000 A 
ATOM     24  C   UNL     1       4.020   5.477  17.495  0.00  0.00    +0.000 A 
ATOM     25  C   UNL     1       4.482   6.645  16.884  0.00  0.00    +0.000 A 
ATOM     26  C   UNL     1       5.301   6.594  15.750  0.00  0.00    +0.000 A 
ENDBRANCH  16  24
ENDBRANCH  15  19
ENDBRANCH   1  15
TORSDOF 3
ENDMDL
MODEL 9
REMARK VINA RESULT:      -7.4      2.760      4.395
REMARK  Name = 
REMARK  3 active torsions:
REMARK  status: ('A' for Active; 'I' for Inactive)
REMARK    1  A    between atoms: C_4  and  C_5
REMARK    2  A    between atoms: C_8  and  C_9
REMARK    3  A    between atoms: C_9  and  N_10
REMARK                            x       y       z     vdW  Elec       q    Type
REMARK                         _______ _______ _______ _____ _____    ______ ____
ROOT
ATOM      1  N   UNL     1       0.801   9.837  18.863  0.00  0.00    +0.000 NA
ATOM      2  C   UNL     1       0.325  11.210  18.671  0.00  0.00    +0.000 C 
ATOM      3  C   UNL     1      -0.747  11.570  19.715  0.00  0.00    +0.000 C 
ATOM      4  C   UNL     1      -0.064  11.772  21.077  0.00  0.00    +0.000 C 
ATOM      5  C   UNL     1       0.917  10.612  21.358  0.00  0.00    +0.000 C 
ATOM      6  C   UNL     1       0.977   9.487  20.279  0.00  0.00    +0.000 C 
ATOM      7  O   UNL     1       0.793  12.959  20.861  0.00  0.00    +0.000 OA
ATOM      8  C   UNL     1       0.523  13.983  21.823  0.00  0.00    +0.000 C 
ATOM      9  C   UNL     1      -0.800  13.612  22.376  0.00  0.00    +0.000 A 
ATOM     10  C   UNL     1      -1.647  14.425  23.118  0.00  0.00    +0.000 A 
ATOM     11  C   UNL     1      -2.698  13.824  23.797  0.00  0.00    +0.000 A 
ATOM     12  C   UNL     1      -2.849  12.430  23.725  0.00  0.00    +0.000 A 
ATOM     13  C   UNL     1      -2.027  11.637  22.891  0.00  0.00    +0.000 A 
ATOM     14  C   UNL     1      -1.019  12.252  22.159  0.00  0.00    +0.000 A 
ENDROOT
BRANCH   1  15
ATOM     15  C   UNL     1       1.956   9.546  17.976  0.00  0.00    +0.000 C 
BRANCH  15  19
ATOM     16  C   UNL     1       2.597   5.900  18.358  0.00  0.00    +0.000 A 
ATOM     17  C   UNL     1       3.809   6.093  17.726  0.00  0.00    +0.000 A 
ATOM     18  S   UNL     1       4.005   7.735  17.272  0.00  0.00    +0.000 S 
ATOM     19  C   UNL     1       2.449   8.100  17.921  0.00  0.00    +0.000 A 
ATOM     20  N   UNL     1       1.818   7.061  18.450  0.00  0.00    +0.000 NA
BRANCH  16  24
ATOM     21  C   UNL     1       1.138   2.135  19.833  0.00  0.00    +0.000 A 
ATOM     22  C   UNL     1       1.659   2.206  18.552  0.00  0.00    +0.000 A 
ATOM     23  C   UNL     1       2.152   3.432  18.057  0.00  0.00    +0.000 A 
ATOM     24  C   UNL     1       2.127   4.592  18.849  0.00  0.00    +0.000 A 
ATOM     25  C   UNL     1       1.617   4.490  20.146  0.00  0.00    +0.000 A 
ATOM     26  C   UNL     1       1.118   3.276  20.633  0.00  0.00    +0.000 A 
ENDBRANCH  16  24
ENDBRANCH  15  19
ENDBRANCH   1  15
TORSDOF 3
ENDMDL
