MODEL 1
REMARK VINA RESULT:      -8.9      0.000      0.000
REMARK  Name = 
REMARK  8 active torsions:
REMARK  status: ('A' for Active; 'I' for Inactive)
REMARK    1  A    between atoms: C_1  and  C_2
REMARK    2  A    between atoms: C_5  and  N_6
REMARK    3  A    between atoms: C_10  and  S_11
REMARK    4  A    between atoms: S_11  and  N_14
REMARK    5  A    between atoms: N_14  and  C_15
REMARK    6  A    between atoms: N_14  and  N_16
REMARK    7  A    between atoms: C_17  and  C_18
REMARK    8  A    between atoms: C_24  and  C_25
REMARK                            x       y       z     vdW  Elec       q    Type
REMARK                         _______ _______ _______ _____ _____    ______ ____
ROOT
ATOM      1  N   UNL     1       1.989   4.898  19.505  0.00  0.00    +0.000 NA
ATOM      2  C   UNL     1       2.598   5.983  19.865  0.00  0.00    +0.000 C 
ENDROOT
BRANCH   2   3
ATOM      3  C   UNL     1       2.222   7.271  19.313  0.00  0.00    +0.000 A 
ATOM      4  C   UNL     1       2.414   7.824  18.032  0.00  0.00    +0.000 A 
ATOM      5  N   UNL     1       1.882   9.044  17.889  0.00  0.00    +0.000 NA
ATOM      6  N   UNL     1       1.324   9.314  19.097  0.00  0.00    +0.000 N 
ATOM      7  C   UNL     1       0.600  10.451  19.459  0.00  0.00    +0.000 A 
ATOM      8  C   UNL     1       0.122  10.581  20.710  0.00  0.00    +0.000 A 
ATOM      9  C   UNL     1       0.390   9.533  21.697  0.00  0.00    +0.000 A 
ATOM     10  C   UNL     1       1.094   8.434  21.343  0.00  0.00    +0.000 A 
ATOM     11  C   UNL     1       1.558   8.274  19.998  0.00  0.00    +0.000 A 
BRANCH   9  12
ATOM     12  C   UNL     1      -0.064   9.747  23.112  0.00  0.00    +0.000 C 
ATOM     13  N   UNL     1      -1.305  10.272  23.304  0.00  0.00    +0.000 N 
ATOM     14  O   UNL     1       0.655   9.492  24.073  0.00  0.00    +0.000 OA
ATOM     15  H   UNL     1      -1.890  10.645  22.572  0.00  0.00    +0.000 HD
ATOM     16  H   UNL     1      -1.575  10.459  24.261  0.00  0.00    +0.000 HD
ENDBRANCH   9  12
ENDBRANCH   2   3
BRANCH   1  17
ATOM     17  N   UNL     1       2.404   3.623  20.164  0.00  0.00    +0.000 N 
ATOM     18  C   UNL     1       1.280   2.915  20.816  0.00  0.00    +0.000 C 
BRANCH  17  19
ATOM     19  S   UNL     1       3.719   2.641  19.609  0.00  0.00    +0.000 S 
ATOM     20  O   UNL     1       3.194   1.634  18.707  0.00  0.00    +0.000 OA
ATOM     21  O   UNL     1       4.479   2.252  20.780  0.00  0.00    +0.000 OA
BRANCH  19  28
ATOM     22  C   UNL     1       3.179   3.587  16.500  0.00  0.00    +0.000 C 
ATOM     23  C   UNL     1       4.362   4.118  17.265  0.00  0.00    +0.000 A 
ATOM     24  C   UNL     1       5.146   5.093  16.613  0.00  0.00    +0.000 A 
ATOM     25  C   UNL     1       6.243   5.685  17.238  0.00  0.00    +0.000 A 
ATOM     26  C   UNL     1       6.578   5.300  18.537  0.00  0.00    +0.000 A 
ATOM     27  C   UNL     1       5.819   4.334  19.215  0.00  0.00    +0.000 A 
ATOM     28  C   UNL     1       4.708   3.743  18.584  0.00  0.00    +0.000 A 
BRANCH  26  29
ATOM     29  N   UNL     1       7.725   5.933  19.200  0.00  0.00    +0.000 N 
ATOM     30  O   UNL     1       8.112   5.448  20.272  0.00  0.00    +0.000 OA
ATOM     31  O   UNL     1       8.233   6.921  18.650  0.00  0.00    +0.000 OA
ENDBRANCH  26  29
ENDBRANCH  19  28
ENDBRANCH  17  19
ENDBRANCH   1  17
TORSDOF 6
ENDMDL
MODEL 2
REMARK VINA RESULT:      -8.7      2.209      2.691
REMARK  Name = 
REMARK  8 active torsions:
REMARK  status: ('A' for Active; 'I' for Inactive)
REMARK    1  A    between atoms: C_1  and  C_2
REMARK    2  A    between atoms: C_5  and  N_6
REMARK    3  A    between atoms: C_10  and  S_11
REMARK    4  A    between atoms: S_11  and  N_14
REMARK    5  A    between atoms: N_14  and  C_15
REMARK    6  A    between atoms: N_14  and  N_16
REMARK    7  A    between atoms: C_17  and  C_18
REMARK    8  A    between atoms: C_24  and  C_25
REMARK                            x       y       z     vdW  Elec       q    Type
REMARK                         _______ _______ _______ _____ _____    ______ ____
ROOT
ATOM      1  N   UNL     1       2.105   5.879  18.324  0.00  0.00    +0.000 NA
ATOM      2  C   UNL     1       2.409   6.860  19.113  0.00  0.00    +0.000 C 
ENDROOT
BRANCH   2   3
ATOM      3  C   UNL     1       2.118   8.233  18.744  0.00  0.00    +0.000 A 
ATOM      4  C   UNL     1       2.437   8.971  17.587  0.00  0.00    +0.000 A 
ATOM      5  N   UNL     1       1.954  10.219  17.598  0.00  0.00    +0.000 NA
ATOM      6  N   UNL     1       1.299  10.320  18.783  0.00  0.00    +0.000 N 
ATOM      7  C   UNL     1       0.577  11.415  19.260  0.00  0.00    +0.000 A 
ATOM      8  C   UNL     1      -0.006  11.367  20.472  0.00  0.00    +0.000 A 
ATOM      9  C   UNL     1       0.145  10.166  21.298  0.00  0.00    +0.000 A 
ATOM     10  C   UNL     1       0.847   9.109  20.832  0.00  0.00    +0.000 A 
ATOM     11  C   UNL     1       1.423   9.143  19.523  0.00  0.00    +0.000 A 
BRANCH   9  12
ATOM     12  C   UNL     1      -0.426  10.174  22.686  0.00  0.00    +0.000 C 
ATOM     13  N   UNL     1      -0.749   8.975  23.242  0.00  0.00    +0.000 N 
ATOM     14  O   UNL     1      -0.630  11.216  23.302  0.00  0.00    +0.000 OA
ATOM     15  H   UNL     1      -0.754   8.095  22.749  0.00  0.00    +0.000 HD
ATOM     16  H   UNL     1      -1.181   9.001  24.157  0.00  0.00    +0.000 HD
ENDBRANCH   9  12
ENDBRANCH   2   3
BRANCH   1  17
ATOM     17  N   UNL     1       2.391   4.493  18.807  0.00  0.00    +0.000 N 
ATOM     18  C   UNL     1       1.364   3.982  19.742  0.00  0.00    +0.000 C 
BRANCH  17  19
ATOM     19  S   UNL     1       3.244   3.309  17.873  0.00  0.00    +0.000 S 
ATOM     20  O   UNL     1       2.490   3.044  16.664  0.00  0.00    +0.000 OA
ATOM     21  O   UNL     1       3.589   2.229  18.775  0.00  0.00    +0.000 OA
BRANCH  19  28
ATOM     22  C   UNL     1       5.493   4.872  19.706  0.00  0.00    +0.000 C 
ATOM     23  C   UNL     1       5.668   4.759  18.215  0.00  0.00    +0.000 A 
ATOM     24  C   UNL     1       6.872   5.269  17.683  0.00  0.00    +0.000 A 
ATOM     25  C   UNL     1       7.160   5.184  16.321  0.00  0.00    +0.000 A 
ATOM     26  C   UNL     1       6.236   4.588  15.462  0.00  0.00    +0.000 A 
ATOM     27  C   UNL     1       5.030   4.070  15.959  0.00  0.00    +0.000 A 
ATOM     28  C   UNL     1       4.743   4.150  17.335  0.00  0.00    +0.000 A 
BRANCH  26  29
ATOM     29  N   UNL     1       6.546   4.487  14.031  0.00  0.00    +0.000 N 
ATOM     30  O   UNL     1       7.390   5.266  13.567  0.00  0.00    +0.000 OA
ATOM     31  O   UNL     1       5.940   3.631  13.371  0.00  0.00    +0.000 OA
ENDBRANCH  26  29
ENDBRANCH  19  28
ENDBRANCH  17  19
ENDBRANCH   1  17
TORSDOF 6
ENDMDL
MODEL 3
REMARK VINA RESULT:      -8.2      3.820      8.041
REMARK  Name = 
REMARK  8 active torsions:
REMARK  status: ('A' for Active; 'I' for Inactive)
REMARK    1  A    between atoms: C_1  and  C_2
REMARK    2  A    between atoms: C_5  and  N_6
REMARK    3  A    between atoms: C_10  and  S_11
REMARK    4  A    between atoms: S_11  and  N_14
REMARK    5  A    between atoms: N_14  and  C_15
REMARK    6  A    between atoms: N_14  and  N_16
REMARK    7  A    between atoms: C_17  and  C_18
REMARK    8  A    between atoms: C_24  and  C_25
REMARK                            x       y       z     vdW  Elec       q    Type
REMARK                         _______ _______ _______ _____ _____    ______ ____
ROOT
ATOM      1  N   UNL     1       5.072   3.318  17.979  0.00  0.00    +0.000 NA
ATOM      2  C   UNL     1       4.779   3.918  16.870  0.00  0.00    +0.000 C 
ENDROOT
BRANCH   2   3
ATOM      3  C   UNL     1       5.809   4.558  16.071  0.00  0.00    +0.000 A 
ATOM      4  C   UNL     1       6.746   5.559  16.395  0.00  0.00    +0.000 A 
ATOM      5  N   UNL     1       7.570   5.867  15.387  0.00  0.00    +0.000 NA
ATOM      6  N   UNL     1       7.179   5.058  14.369  0.00  0.00    +0.000 N 
ATOM      7  C   UNL     1       7.753   4.955  13.101  0.00  0.00    +0.000 A 
ATOM      8  C   UNL     1       7.237   4.113  12.188  0.00  0.00    +0.000 A 
ATOM      9  C   UNL     1       6.051   3.322  12.526  0.00  0.00    +0.000 A 
ATOM     10  C   UNL     1       5.497   3.426  13.755  0.00  0.00    +0.000 A 
ATOM     11  C   UNL     1       6.078   4.285  14.741  0.00  0.00    +0.000 A 
BRANCH   9  12
ATOM     12  C   UNL     1       5.431   2.467  11.460  0.00  0.00    +0.000 C 
ATOM     13  N   UNL     1       6.127   1.373  11.045  0.00  0.00    +0.000 N 
ATOM     14  O   UNL     1       4.352   2.744  10.947  0.00  0.00    +0.000 OA
ATOM     15  H   UNL     1       7.078   1.164  11.306  0.00  0.00    +0.000 HD
ATOM     16  H   UNL     1       5.719   0.837  10.290  0.00  0.00    +0.000 HD
ENDBRANCH   9  12
ENDBRANCH   2   3
BRANCH   1  17
ATOM     17  N   UNL     1       3.958   2.639  18.710  0.00  0.00    +0.000 N 
ATOM     18  C   UNL     1       4.338   2.212  20.076  0.00  0.00    +0.000 C 
BRANCH  17  19
ATOM     19  S   UNL     1       2.283   2.992  18.448  0.00  0.00    +0.000 S 
ATOM     20  O   UNL     1       1.490   2.112  19.283  0.00  0.00    +0.000 OA
ATOM     21  O   UNL     1       2.078   3.025  17.014  0.00  0.00    +0.000 OA
BRANCH  19  28
ATOM     22  C   UNL     1       1.659   3.859  21.565  0.00  0.00    +0.000 C 
ATOM     23  C   UNL     1       1.830   4.909  20.500  0.00  0.00    +0.000 A 
ATOM     24  C   UNL     1       1.801   6.253  20.932  0.00  0.00    +0.000 A 
ATOM     25  C   UNL     1       1.988   7.309  20.041  0.00  0.00    +0.000 A 
ATOM     26  C   UNL     1       2.202   7.034  18.689  0.00  0.00    +0.000 A 
ATOM     27  C   UNL     1       2.237   5.709  18.227  0.00  0.00    +0.000 A 
ATOM     28  C   UNL     1       2.055   4.644  19.129  0.00  0.00    +0.000 A 
BRANCH  26  29
ATOM     29  N   UNL     1       2.412   8.146  17.755  0.00  0.00    +0.000 N 
ATOM     30  O   UNL     1       3.401   8.095  17.011  0.00  0.00    +0.000 OA
ATOM     31  O   UNL     1       1.589   9.073  17.770  0.00  0.00    +0.000 OA
ENDBRANCH  26  29
ENDBRANCH  19  28
ENDBRANCH  17  19
ENDBRANCH   1  17
TORSDOF 6
ENDMDL
MODEL 4
REMARK VINA RESULT:      -8.0      1.057      1.151
REMARK  Name = 
REMARK  8 active torsions:
REMARK  status: ('A' for Active; 'I' for Inactive)
REMARK    1  A    between atoms: C_1  and  C_2
REMARK    2  A    between atoms: C_5  and  N_6
REMARK    3  A    between atoms: C_10  and  S_11
REMARK    4  A    between atoms: S_11  and  N_14
REMARK    5  A    between atoms: N_14  and  C_15
REMARK    6  A    between atoms: N_14  and  N_16
REMARK    7  A    between atoms: C_17  and  C_18
REMARK    8  A    between atoms: C_24  and  C_25
REMARK                            x       y       z     vdW  Elec       q    Type
REMARK                         _______ _______ _______ _____ _____    ______ ____
ROOT
ATOM      1  N   UNL     1       2.445   5.784  18.471  0.00  0.00    +0.000 NA
ATOM      2  C   UNL     1       2.397   6.758  19.324  0.00  0.00    +0.000 C 
ENDROOT
BRANCH   2   3
ATOM      3  C   UNL     1       2.071   8.107  18.901  0.00  0.00    +0.000 A 
ATOM      4  C   UNL     1       2.321   8.787  17.692  0.00  0.00    +0.000 A 
ATOM      5  N   UNL     1       1.824  10.029  17.663  0.00  0.00    +0.000 NA
ATOM      6  N   UNL     1       1.232  10.186  18.875  0.00  0.00    +0.000 N 
ATOM      7  C   UNL     1       0.523  11.298  19.332  0.00  0.00    +0.000 A 
ATOM      8  C   UNL     1       0.005  11.309  20.573  0.00  0.00    +0.000 A 
ATOM      9  C   UNL     1       0.213  10.154  21.452  0.00  0.00    +0.000 A 
ATOM     10  C   UNL     1       0.902   9.081  21.005  0.00  0.00    +0.000 A 
ATOM     11  C   UNL     1       1.408   9.051  19.667  0.00  0.00    +0.000 A 
BRANCH   9  12
ATOM     12  C   UNL     1      -0.284  10.230  22.866  0.00  0.00    +0.000 C 
ATOM     13  N   UNL     1      -1.373  11.009  23.111  0.00  0.00    +0.000 N 
ATOM     14  O   UNL     1       0.276   9.644  23.787  0.00  0.00    +0.000 OA
ATOM     15  H   UNL     1      -1.794  11.636  22.442  0.00  0.00    +0.000 HD
ATOM     16  H   UNL     1      -1.664  11.091  24.077  0.00  0.00    +0.000 HD
ENDBRANCH   9  12
ENDBRANCH   2   3
BRANCH   1  17
ATOM     17  N   UNL     1       2.735   4.417  19.002  0.00  0.00    +0.000 N 
ATOM     18  C   UNL     1       1.698   3.927  19.938  0.00  0.00    +0.000 C 
BRANCH  17  19
ATOM     19  S   UNL     1       3.613   3.212  18.120  0.00  0.00    +0.000 S 
ATOM     20  O   UNL     1       2.864   2.879  16.924  0.00  0.00    +0.000 OA
ATOM     21  O   UNL     1       3.980   2.179  19.067  0.00  0.00    +0.000 OA
BRANCH  19  28
ATOM     22  C   UNL     1       4.599   3.747  15.023  0.00  0.00    +0.000 C 
ATOM     23  C   UNL     1       5.405   4.271  16.182  0.00  0.00    +0.000 A 
ATOM     24  C   UNL     1       6.526   5.066  15.860  0.00  0.00    +0.000 A 
ATOM     25  C   UNL     1       7.323   5.638  16.851  0.00  0.00    +0.000 A 
ATOM     26  C   UNL     1       7.010   5.414  18.193  0.00  0.00    +0.000 A 
ATOM     27  C   UNL     1       5.902   4.630  18.548  0.00  0.00    +0.000 A 
ATOM     28  C   UNL     1       5.094   4.060  17.545  0.00  0.00    +0.000 A 
BRANCH  26  29
ATOM     29  N   UNL     1       7.841   6.028  19.236  0.00  0.00    +0.000 N 
ATOM     30  O   UNL     1       7.939   5.435  20.319  0.00  0.00    +0.000 OA
ATOM     31  O   UNL     1       8.391   7.107  18.971  0.00  0.00    +0.000 OA
ENDBRANCH  26  29
ENDBRANCH  19  28
ENDBRANCH  17  19
ENDBRANCH   1  17
TORSDOF 6
ENDMDL
MODEL 5
REMARK VINA RESULT:      -7.9      1.105      1.210
REMARK  Name = 
REMARK  8 active torsions:
REMARK  status: ('A' for Active; 'I' for Inactive)
REMARK    1  A    between atoms: C_1  and  C_2
REMARK    2  A    between atoms: C_5  and  N_6
REMARK    3  A    between atoms: C_10  and  S_11
REMARK    4  A    between atoms: S_11  and  N_14
REMARK    5  A    between atoms: N_14  and  C_15
REMARK    6  A    between atoms: N_14  and  N_16
REMARK    7  A    between atoms: C_17  and  C_18
REMARK    8  A    between atoms: C_24  and  C_25
REMARK                            x       y       z     vdW  Elec       q    Type
REMARK                         _______ _______ _______ _____ _____    ______ ____
ROOT
ATOM      1  N   UNL     1       2.939   5.461  20.305  0.00  0.00    +0.000 NA
ATOM      2  C   UNL     1       1.966   5.925  19.586  0.00  0.00    +0.000 C 
ENDROOT
BRANCH   2   3
ATOM      3  C   UNL     1       2.005   7.277  19.060  0.00  0.00    +0.000 A 
ATOM      4  C   UNL     1       2.550   7.795  17.868  0.00  0.00    +0.000 A 
ATOM      5  N   UNL     1       2.350   9.108  17.713  0.00  0.00    +0.000 NA
ATOM      6  N   UNL     1       1.659   9.479  18.822  0.00  0.00    +0.000 N 
ATOM      7  C   UNL     1       1.163  10.749  19.124  0.00  0.00    +0.000 A 
ATOM      8  C   UNL     1       0.508  10.964  20.279  0.00  0.00    +0.000 A 
ATOM      9  C   UNL     1       0.341   9.861  21.230  0.00  0.00    +0.000 A 
ATOM     10  C   UNL     1       0.825   8.634  20.934  0.00  0.00    +0.000 A 
ATOM     11  C   UNL     1       1.477   8.396  19.682  0.00  0.00    +0.000 A 
BRANCH   9  12
ATOM     12  C   UNL     1      -0.301  10.148  22.556  0.00  0.00    +0.000 C 
ATOM     13  N   UNL     1      -0.049   9.285  23.579  0.00  0.00    +0.000 N 
ATOM     14  O   UNL     1      -1.053  11.102  22.724  0.00  0.00    +0.000 OA
ATOM     15  H   UNL     1       0.430   8.403  23.482  0.00  0.00    +0.000 HD
ATOM     16  H   UNL     1      -0.531   9.463  24.451  0.00  0.00    +0.000 HD
ENDBRANCH   9  12
ENDBRANCH   2   3
BRANCH   1  17
ATOM     17  N   UNL     1       2.841   4.040  20.760  0.00  0.00    +0.000 N 
ATOM     18  C   UNL     1       1.597   3.757  21.511  0.00  0.00    +0.000 C 
BRANCH  17  19
ATOM     19  S   UNL     1       3.552   2.710  19.909  0.00  0.00    +0.000 S 
ATOM     20  O   UNL     1       2.487   1.872  19.392  0.00  0.00    +0.000 OA
ATOM     21  O   UNL     1       4.570   2.151  20.774  0.00  0.00    +0.000 OA
BRANCH  19  28
ATOM     22  C   UNL     1       2.223   3.337  16.961  0.00  0.00    +0.000 C 
ATOM     23  C   UNL     1       3.650   3.720  17.252  0.00  0.00    +0.000 A 
ATOM     24  C   UNL     1       4.329   4.430  16.240  0.00  0.00    +0.000 A 
ATOM     25  C   UNL     1       5.641   4.870  16.413  0.00  0.00    +0.000 A 
ATOM     26  C   UNL     1       6.301   4.597  17.612  0.00  0.00    +0.000 A 
ATOM     27  C   UNL     1       5.654   3.894  18.640  0.00  0.00    +0.000 A 
ATOM     28  C   UNL     1       4.327   3.456  18.465  0.00  0.00    +0.000 A 
BRANCH  26  29
ATOM     29  N   UNL     1       7.677   5.073  17.799  0.00  0.00    +0.000 N 
ATOM     30  O   UNL     1       7.853   6.290  17.937  0.00  0.00    +0.000 OA
ATOM     31  O   UNL     1       8.582   4.226  17.802  0.00  0.00    +0.000 OA
ENDBRANCH  26  29
ENDBRANCH  19  28
ENDBRANCH  17  19
ENDBRANCH   1  17
TORSDOF 6
ENDMDL
MODEL 6
REMARK VINA RESULT:      -7.8      5.016      6.933
REMARK  Name = 
REMARK  8 active torsions:
REMARK  status: ('A' for Active; 'I' for Inactive)
REMARK    1  A    between atoms: C_1  and  C_2
REMARK    2  A    between atoms: C_5  and  N_6
REMARK    3  A    between atoms: C_10  and  S_11
REMARK    4  A    between atoms: S_11  and  N_14
REMARK    5  A    between atoms: N_14  and  C_15
REMARK    6  A    between atoms: N_14  and  N_16
REMARK    7  A    between atoms: C_17  and  C_18
REMARK    8  A    between atoms: C_24  and  C_25
REMARK                            x       y       z     vdW  Elec       q    Type
REMARK                         _______ _______ _______ _____ _____    ______ ____
ROOT
ATOM      1  N   UNL     1       8.419   8.069  18.476  0.00  0.00    +0.000 NA
ATOM      2  C   UNL     1       8.281   9.296  18.086  0.00  0.00    +0.000 C 
ENDROOT
BRANCH   2   3
ATOM      3  C   UNL     1       9.262  10.307  18.439  0.00  0.00    +0.000 A 
ATOM      4  C   UNL     1      10.355  10.831  17.720  0.00  0.00    +0.000 A 
ATOM      5  N   UNL     1      11.014  11.794  18.375  0.00  0.00    +0.000 NA
ATOM      6  N   UNL     1      10.352  11.918  19.554  0.00  0.00    +0.000 N 
ATOM      7  C   UNL     1      10.616  12.825  20.581  0.00  0.00    +0.000 A 
ATOM      8  C   UNL     1       9.876  12.813  21.704  0.00  0.00    +0.000 A 
ATOM      9  C   UNL     1       8.806  11.822  21.852  0.00  0.00    +0.000 A 
ATOM     10  C   UNL     1       8.556  10.944  20.855  0.00  0.00    +0.000 A 
ATOM     11  C   UNL     1       9.311  10.992  19.641  0.00  0.00    +0.000 A 
BRANCH   9  12
ATOM     12  C   UNL     1       8.062  11.759  23.154  0.00  0.00    +0.000 C 
ATOM     13  N   UNL     1       8.796  11.683  24.298  0.00  0.00    +0.000 N 
ATOM     14  O   UNL     1       6.836  11.744  23.204  0.00  0.00    +0.000 OA
ATOM     15  H   UNL     1       9.794  11.538  24.331  0.00  0.00    +0.000 HD
ATOM     16  H   UNL     1       8.280  11.588  25.162  0.00  0.00    +0.000 HD
ENDBRANCH   9  12
ENDBRANCH   2   3
BRANCH   1  17
ATOM     17  N   UNL     1       7.391   7.083  18.022  0.00  0.00    +0.000 N 
ATOM     18  C   UNL     1       6.982   7.281  16.613  0.00  0.00    +0.000 C 
BRANCH  17  19
ATOM     19  S   UNL     1       7.266   5.472  18.645  0.00  0.00    +0.000 S 
ATOM     20  O   UNL     1       7.439   5.519  20.084  0.00  0.00    +0.000 OA
ATOM     21  O   UNL     1       8.125   4.636  17.830  0.00  0.00    +0.000 OA
BRANCH  19  28
ATOM     22  C   UNL     1       5.933   3.910  16.067  0.00  0.00    +0.000 C 
ATOM     23  C   UNL     1       5.082   4.304  17.246  0.00  0.00    +0.000 A 
ATOM     24  C   UNL     1       3.735   3.886  17.215  0.00  0.00    +0.000 A 
ATOM     25  C   UNL     1       2.863   4.158  18.268  0.00  0.00    +0.000 A 
ATOM     26  C   UNL     1       3.330   4.866  19.377  0.00  0.00    +0.000 A 
ATOM     27  C   UNL     1       4.665   5.295  19.440  0.00  0.00    +0.000 A 
ATOM     28  C   UNL     1       5.545   5.013  18.378  0.00  0.00    +0.000 A 
BRANCH  26  29
ATOM     29  N   UNL     1       2.415   5.140  20.491  0.00  0.00    +0.000 N 
ATOM     30  O   UNL     1       2.267   4.258  21.347  0.00  0.00    +0.000 OA
ATOM     31  O   UNL     1       1.840   6.238  20.506  0.00  0.00    +0.000 OA
ENDBRANCH  26  29
ENDBRANCH  19  28
ENDBRANCH  17  19
ENDBRANCH   1  17
TORSDOF 6
ENDMDL
MODEL 7
REMARK VINA RESULT:      -7.8      1.053      1.091
REMARK  Name = 
REMARK  8 active torsions:
REMARK  status: ('A' for Active; 'I' for Inactive)
REMARK    1  A    between atoms: C_1  and  C_2
REMARK    2  A    between atoms: C_5  and  N_6
REMARK    3  A    between atoms: C_10  and  S_11
REMARK    4  A    between atoms: S_11  and  N_14
REMARK    5  A    between atoms: N_14  and  C_15
REMARK    6  A    between atoms: N_14  and  N_16
REMARK    7  A    between atoms: C_17  and  C_18
REMARK    8  A    between atoms: C_24  and  C_25
REMARK                            x       y       z     vdW  Elec       q    Type
REMARK                         _______ _______ _______ _____ _____    ______ ____
ROOT
ATOM      1  N   UNL     1       2.237   5.489  19.370  0.00  0.00    +0.000 NA
ATOM      2  C   UNL     1       2.114   6.613  20.002  0.00  0.00    +0.000 C 
ENDROOT
BRANCH   2   3
ATOM      3  C   UNL     1       1.970   7.864  19.282  0.00  0.00    +0.000 A 
ATOM      4  C   UNL     1       2.401   8.251  17.997  0.00  0.00    +0.000 A 
ATOM      5  N   UNL     1       2.039   9.495  17.663  0.00  0.00    +0.000 NA
ATOM      6  N   UNL     1       1.354   9.951  18.743  0.00  0.00    +0.000 N 
ATOM      7  C   UNL     1       0.723  11.188  18.884  0.00  0.00    +0.000 A 
ATOM      8  C   UNL     1       0.094  11.502  20.030  0.00  0.00    +0.000 A 
ATOM      9  C   UNL     1       0.099  10.546  21.141  0.00  0.00    +0.000 A 
ATOM     10  C   UNL     1       0.713   9.351  21.000  0.00  0.00    +0.000 A 
ATOM     11  C   UNL     1       1.338   8.998  19.762  0.00  0.00    +0.000 A 
BRANCH   9  12
ATOM     12  C   UNL     1      -0.519  10.959  22.445  0.00  0.00    +0.000 C 
ATOM     13  N   UNL     1      -1.303  12.072  22.448  0.00  0.00    +0.000 N 
ATOM     14  O   UNL     1      -0.313  10.346  23.487  0.00  0.00    +0.000 OA
ATOM     15  H   UNL     1      -1.397  12.710  21.672  0.00  0.00    +0.000 HD
ATOM     16  H   UNL     1      -1.669  12.366  23.344  0.00  0.00    +0.000 HD
ENDBRANCH   9  12
ENDBRANCH   2   3
BRANCH   1  17
ATOM     17  N   UNL     1       2.326   4.242  20.191  0.00  0.00    +0.000 N 
ATOM     18  C   UNL     1       1.079   3.948  20.933  0.00  0.00    +0.000 C 
BRANCH  17  19
ATOM     19  S   UNL     1       3.314   2.885  19.769  0.00  0.00    +0.000 S 
ATOM     20  O   UNL     1       2.467   1.857  19.195  0.00  0.00    +0.000 OA
ATOM     21  O   UNL     1       4.145   2.593  20.919  0.00  0.00    +0.000 OA
BRANCH  19  28
ATOM     22  C   UNL     1       2.513   3.262  16.595  0.00  0.00    +0.000 C 
ATOM     23  C   UNL     1       3.885   3.639  17.086  0.00  0.00    +0.000 A 
ATOM     24  C   UNL     1       4.748   4.237  16.143  0.00  0.00    +0.000 A 
ATOM     25  C   UNL     1       6.028   4.664  16.493  0.00  0.00    +0.000 A 
ATOM     26  C   UNL     1       6.471   4.490  17.805  0.00  0.00    +0.000 A 
ATOM     27  C   UNL     1       5.639   3.900  18.768  0.00  0.00    +0.000 A 
ATOM     28  C   UNL     1       4.343   3.476  18.414  0.00  0.00    +0.000 A 
BRANCH  26  29
ATOM     29  N   UNL     1       7.814   4.951  18.177  0.00  0.00    +0.000 N 
ATOM     30  O   UNL     1       8.763   4.180  17.984  0.00  0.00    +0.000 OA
ATOM     31  O   UNL     1       7.916   6.085  18.668  0.00  0.00    +0.000 OA
ENDBRANCH  26  29
ENDBRANCH  19  28
ENDBRANCH  17  19
ENDBRANCH   1  17
TORSDOF 6
ENDMDL
MODEL 8
REMARK VINA RESULT:      -7.8      3.520      8.661
REMARK  Name = 
REMARK  8 active torsions:
REMARK  status: ('A' for Active; 'I' for Inactive)
REMARK    1  A    between atoms: C_1  and  C_2
REMARK    2  A    between atoms: C_5  and  N_6
REMARK    3  A    between atoms: C_10  and  S_11
REMARK    4  A    between atoms: S_11  and  N_14
REMARK    5  A    between atoms: N_14  and  C_15
REMARK    6  A    between atoms: N_14  and  N_16
REMARK    7  A    between atoms: C_17  and  C_18
REMARK    8  A    between atoms: C_24  and  C_25
REMARK                            x       y       z     vdW  Elec       q    Type
REMARK                         _______ _______ _______ _____ _____    ______ ____
ROOT
ATOM      1  N   UNL     1       1.758   8.435  19.964  0.00  0.00    +0.000 NA
ATOM      2  C   UNL     1       1.894   8.081  18.726  0.00  0.00    +0.000 C 
ENDROOT
BRANCH   2   3
ATOM      3  C   UNL     1       2.929   7.147  18.324  0.00  0.00    +0.000 A 
ATOM      4  C   UNL     1       3.954   7.254  17.362  0.00  0.00    +0.000 A 
ATOM      5  N   UNL     1       4.750   6.181  17.306  0.00  0.00    +0.000 NA
ATOM      6  N   UNL     1       4.252   5.338  18.247  0.00  0.00    +0.000 N 
ATOM      7  C   UNL     1       4.756   4.091  18.618  0.00  0.00    +0.000 A 
ATOM      8  C   UNL     1       4.135   3.362  19.563  0.00  0.00    +0.000 A 
ATOM      9  C   UNL     1       2.910   3.875  20.181  0.00  0.00    +0.000 A 
ATOM     10  C   UNL     1       2.424   5.083  19.816  0.00  0.00    +0.000 A 
ATOM     11  C   UNL     1       3.114   5.879  18.848  0.00  0.00    +0.000 A 
BRANCH   9  12
ATOM     12  C   UNL     1       2.177   3.001  21.156  0.00  0.00    +0.000 C 
ATOM     13  N   UNL     1       0.830   2.877  21.004  0.00  0.00    +0.000 N 
ATOM     14  O   UNL     1       2.749   2.436  22.083  0.00  0.00    +0.000 OA
ATOM     15  H   UNL     1       0.271   3.424  20.367  0.00  0.00    +0.000 HD
ATOM     16  H   UNL     1       0.344   2.326  21.700  0.00  0.00    +0.000 HD
ENDBRANCH   9  12
ENDBRANCH   2   3
BRANCH   1  17
ATOM     17  N   UNL     1       0.631   9.358  20.298  0.00  0.00    +0.000 N 
ATOM     18  C   UNL     1      -0.200   8.875  21.424  0.00  0.00    +0.000 C 
BRANCH  17  19
ATOM     19  S   UNL     1       0.695  11.073  20.064  0.00  0.00    +0.000 S 
ATOM     20  O   UNL     1       1.487  11.348  18.882  0.00  0.00    +0.000 OA
ATOM     21  O   UNL     1       1.052  11.660  21.340  0.00  0.00    +0.000 OA
BRANCH  19  28
ATOM     22  C   UNL     1      -1.154  10.004  17.555  0.00  0.00    +0.000 C 
ATOM     23  C   UNL     1      -1.713  10.983  18.553  0.00  0.00    +0.000 A 
ATOM     24  C   UNL     1      -3.073  11.328  18.401  0.00  0.00    +0.000 A 
ATOM     25  C   UNL     1      -3.710  12.195  19.289  0.00  0.00    +0.000 A 
ATOM     26  C   UNL     1      -2.984  12.740  20.349  0.00  0.00    +0.000 A 
ATOM     27  C   UNL     1      -1.631  12.417  20.530  0.00  0.00    +0.000 A 
ATOM     28  C   UNL     1      -0.992  11.536  19.636  0.00  0.00    +0.000 A 
BRANCH  26  29
ATOM     29  N   UNL     1      -3.658  13.642  21.291  0.00  0.00    +0.000 N 
ATOM     30  O   UNL     1      -3.933  13.201  22.415  0.00  0.00    +0.000 OA
ATOM     31  O   UNL     1      -3.918  14.790  20.902  0.00  0.00    +0.000 OA
ENDBRANCH  26  29
ENDBRANCH  19  28
ENDBRANCH  17  19
ENDBRANCH   1  17
TORSDOF 6
ENDMDL
MODEL 9
REMARK VINA RESULT:      -7.6      3.961      8.786
REMARK  Name = 
REMARK  8 active torsions:
REMARK  status: ('A' for Active; 'I' for Inactive)
REMARK    1  A    between atoms: C_1  and  C_2
REMARK    2  A    between atoms: C_5  and  N_6
REMARK    3  A    between atoms: C_10  and  S_11
REMARK    4  A    between atoms: S_11  and  N_14
REMARK    5  A    between atoms: N_14  and  C_15
REMARK    6  A    between atoms: N_14  and  N_16
REMARK    7  A    between atoms: C_17  and  C_18
REMARK    8  A    between atoms: C_24  and  C_25
REMARK                            x       y       z     vdW  Elec       q    Type
REMARK                         _______ _______ _______ _____ _____    ______ ____
ROOT
ATOM      1  N   UNL     1       0.933   7.753  20.418  0.00  0.00    +0.000 NA
ATOM      2  C   UNL     1       2.146   7.349  20.212  0.00  0.00    +0.000 C 
ENDROOT
BRANCH   2   3
ATOM      3  C   UNL     1       2.429   5.959  19.906  0.00  0.00    +0.000 A 
ATOM      4  C   UNL     1       1.982   4.766  20.507  0.00  0.00    +0.000 A 
ATOM      5  N   UNL     1       2.438   3.660  19.908  0.00  0.00    +0.000 NA
ATOM      6  N   UNL     1       3.206   4.119  18.887  0.00  0.00    +0.000 N 
ATOM      7  C   UNL     1       3.877   3.361  17.925  0.00  0.00    +0.000 A 
ATOM      8  C   UNL     1       4.618   3.967  16.980  0.00  0.00    +0.000 A 
ATOM      9  C   UNL     1       4.737   5.428  16.982  0.00  0.00    +0.000 A 
ATOM     10  C   UNL     1       4.087   6.157  17.917  0.00  0.00    +0.000 A 
ATOM     11  C   UNL     1       3.258   5.514  18.891  0.00  0.00    +0.000 A 
BRANCH   9  12
ATOM     12  C   UNL     1       5.650   6.075  15.982  0.00  0.00    +0.000 C 
ATOM     13  N   UNL     1       6.976   5.773  16.051  0.00  0.00    +0.000 N 
ATOM     14  O   UNL     1       5.241   6.873  15.146  0.00  0.00    +0.000 OA
ATOM     15  H   UNL     1       7.408   5.250  16.797  0.00  0.00    +0.000 HD
ATOM     16  H   UNL     1       7.585   6.257  15.404  0.00  0.00    +0.000 HD
ENDBRANCH   9  12
ENDBRANCH   2   3
BRANCH   1  17
ATOM     17  N   UNL     1       0.726   9.212  20.674  0.00  0.00    +0.000 N 
ATOM     18  C   UNL     1       1.122   9.621  22.040  0.00  0.00    +0.000 C 
BRANCH  17  19
ATOM     19  S   UNL     1       0.828  10.425  19.442  0.00  0.00    +0.000 S 
ATOM     20  O   UNL     1       1.315   9.807  18.224  0.00  0.00    +0.000 OA
ATOM     21  O   UNL     1       1.525  11.556  20.020  0.00  0.00    +0.000 OA
BRANCH  19  28
ATOM     22  C   UNL     1      -1.212  12.250  21.276  0.00  0.00    +0.000 C 
ATOM     23  C   UNL     1      -1.662  11.704  19.947  0.00  0.00    +0.000 A 
ATOM     24  C   UNL     1      -2.945  12.095  19.509  0.00  0.00    +0.000 A 
ATOM     25  C   UNL     1      -3.452  11.683  18.277  0.00  0.00    +0.000 A 
ATOM     26  C   UNL     1      -2.676  10.860  17.460  0.00  0.00    +0.000 A 
ATOM     27  C   UNL     1      -1.395  10.454  17.864  0.00  0.00    +0.000 A 
ATOM     28  C   UNL     1      -0.883  10.876  19.106  0.00  0.00    +0.000 A 
BRANCH  26  29
ATOM     29  N   UNL     1      -3.204  10.438  16.157  0.00  0.00    +0.000 N 
ATOM     30  O   UNL     1      -2.782   9.376  15.680  0.00  0.00    +0.000 OA
ATOM     31  O   UNL     1      -4.036  11.175  15.609  0.00  0.00    +0.000 OA
ENDBRANCH  26  29
ENDBRANCH  19  28
ENDBRANCH  17  19
ENDBRANCH   1  17
TORSDOF 6
ENDMDL
