MODEL 1
REMARK VINA RESULT:      -7.9      0.000      0.000
REMARK  Name = 
REMARK  7 active torsions:
REMARK  status: ('A' for Active; 'I' for Inactive)
REMARK    1  A    between atoms: C_1  and  C_2
REMARK    2  A    between atoms: C_14  and  N_15
REMARK    3  A    between atoms: N_15  and  C_16
REMARK    4  A    between atoms: C_16  and  C_17
REMARK    5  A    between atoms: C_17  and  C_18
REMARK    6  A    between atoms: C_18  and  O_19
REMARK    7  A    between atoms: O_19  and  C_20
REMARK                            x       y       z     vdW  Elec       q    Type
REMARK                         _______ _______ _______ _____ _____    ______ ____
ROOT
ATOM      1  C   UNL     1       7.930   7.669  18.024  0.00  0.00    +0.000 C 
ATOM      2  C   UNL     1       6.808   6.800  17.539  0.00  0.00    +0.000 A 
ATOM      3  C   UNL     1       6.214   7.011  16.291  0.00  0.00    +0.000 A 
ATOM      4  C   UNL     1       5.170   6.202  15.830  0.00  0.00    +0.000 A 
ATOM      5  C   UNL     1       4.744   5.162  16.660  0.00  0.00    +0.000 A 
ATOM      6  N   UNL     1       3.778   4.200  16.459  0.00  0.00    +0.000 N 
ATOM      7  C   UNL     1       3.711   3.373  17.549  0.00  0.00    +0.000 A 
ATOM      8  C   UNL     1       4.646   3.795  18.471  0.00  0.00    +0.000 A 
ATOM      9  C   UNL     1       5.306   4.924  17.916  0.00  0.00    +0.000 A 
ATOM     10  C   UNL     1       6.354   5.753  18.357  0.00  0.00    +0.000 A 
ATOM     11  C   UNL     1       4.913   3.079  19.753  0.00  0.00    +0.000 C 
ATOM     12  C   UNL     1       3.954   1.892  19.973  0.00  0.00    +0.000 C 
ATOM     13  C   UNL     1       3.547   1.209  18.650  0.00  0.00    +0.000 C 
ATOM     14  C   UNL     1       2.815   2.190  17.689  0.00  0.00    +0.000 C 
ATOM     15  H   UNL     1       3.198   4.132  15.635  0.00  0.00    +0.000 HD
ENDROOT
BRANCH  14  16
ATOM     16  N   UNL     1       1.511   2.581  18.248  0.00  0.00    +0.000 NA
ATOM     17  H   UNL     1       1.293   1.972  19.036  0.00  0.00    +0.000 HD
BRANCH  16  18
ATOM     18  C   UNL     1       1.476   3.967  18.701  0.00  0.00    +0.000 C 
BRANCH  18  19
ATOM     19  C   UNL     1       0.965   4.077  20.137  0.00  0.00    +0.000 C 
BRANCH  19  20
ATOM     20  C   UNL     1       1.761   5.165  20.852  0.00  0.00    +0.000 C 
BRANCH  20  21
ATOM     21  O   UNL     1       2.608   5.847  19.928  0.00  0.00    +0.000 OA
BRANCH  21  22
ATOM     22  C   UNL     1       2.185   7.109  19.591  0.00  0.00    +0.000 A 
ATOM     23  C   UNL     1       1.521   7.985  20.458  0.00  0.00    +0.000 A 
ATOM     24  C   UNL     1       1.103   9.236  20.010  0.00  0.00    +0.000 A 
ATOM     25  C   UNL     1       1.365   9.613  18.704  0.00  0.00    +0.000 A 
ATOM     26  F   UNL     1       0.960  10.819  18.275  0.00  0.00    +0.000 F 
ATOM     27  C   UNL     1       2.046   8.768  17.834  0.00  0.00    +0.000 A 
ATOM     28  C   UNL     1       2.450   7.508  18.279  0.00  0.00    +0.000 A 
ENDBRANCH  21  22
ENDBRANCH  20  21
ENDBRANCH  19  20
ENDBRANCH  18  19
ENDBRANCH  16  18
ENDBRANCH  14  16
TORSDOF 6
ENDMDL
MODEL 2
REMARK VINA RESULT:      -7.6      3.962      6.975
REMARK  Name = 
REMARK  7 active torsions:
REMARK  status: ('A' for Active; 'I' for Inactive)
REMARK    1  A    between atoms: C_1  and  C_2
REMARK    2  A    between atoms: C_14  and  N_15
REMARK    3  A    between atoms: N_15  and  C_16
REMARK    4  A    between atoms: C_16  and  C_17
REMARK    5  A    between atoms: C_17  and  C_18
REMARK    6  A    between atoms: C_18  and  O_19
REMARK    7  A    between atoms: O_19  and  C_20
REMARK                            x       y       z     vdW  Elec       q    Type
REMARK                         _______ _______ _______ _____ _____    ______ ____
ROOT
ATOM      1  C   UNL     1       0.826   2.515  18.941  0.00  0.00    +0.000 C 
ATOM      2  C   UNL     1       2.248   2.990  18.900  0.00  0.00    +0.000 A 
ATOM      3  C   UNL     1       3.038   3.015  20.054  0.00  0.00    +0.000 A 
ATOM      4  C   UNL     1       4.367   3.453  20.023  0.00  0.00    +0.000 A 
ATOM      5  C   UNL     1       4.884   3.859  18.789  0.00  0.00    +0.000 A 
ATOM      6  N   UNL     1       6.146   4.298  18.454  0.00  0.00    +0.000 N 
ATOM      7  C   UNL     1       6.201   4.577  17.114  0.00  0.00    +0.000 A 
ATOM      8  C   UNL     1       4.963   4.314  16.566  0.00  0.00    +0.000 A 
ATOM      9  C   UNL     1       4.125   3.857  17.617  0.00  0.00    +0.000 A 
ATOM     10  C   UNL     1       2.791   3.413  17.676  0.00  0.00    +0.000 A 
ATOM     11  C   UNL     1       4.674   4.426  15.106  0.00  0.00    +0.000 C 
ATOM     12  C   UNL     1       5.875   4.974  14.310  0.00  0.00    +0.000 C 
ATOM     13  C   UNL     1       7.229   4.536  14.909  0.00  0.00    +0.000 C 
ATOM     14  C   UNL     1       7.409   5.037  16.371  0.00  0.00    +0.000 C 
ATOM     15  H   UNL     1       6.908   4.411  19.109  0.00  0.00    +0.000 HD
ENDROOT
BRANCH  14  16
ATOM     16  N   UNL     1       7.518   6.504  16.403  0.00  0.00    +0.000 NA
ATOM     17  H   UNL     1       6.953   6.894  15.650  0.00  0.00    +0.000 HD
BRANCH  16  18
ATOM     18  C   UNL     1       7.080   7.083  17.668  0.00  0.00    +0.000 C 
BRANCH  18  19
ATOM     19  C   UNL     1       8.258   7.626  18.476  0.00  0.00    +0.000 C 
BRANCH  19  20
ATOM     20  C   UNL     1       8.424   9.108  18.154  0.00  0.00    +0.000 C 
BRANCH  20  21
ATOM     21  O   UNL     1       9.237   9.741  19.140  0.00  0.00    +0.000 OA
BRANCH  21  22
ATOM     22  C   UNL     1       9.538  11.053  18.875  0.00  0.00    +0.000 A 
ATOM     23  C   UNL     1       9.013  12.149  19.573  0.00  0.00    +0.000 A 
ATOM     24  C   UNL     1       9.356  13.448  19.204  0.00  0.00    +0.000 A 
ATOM     25  C   UNL     1      10.234  13.647  18.153  0.00  0.00    +0.000 A 
ATOM     26  F   UNL     1      10.562  14.900  17.800  0.00  0.00    +0.000 F 
ATOM     27  C   UNL     1      10.786  12.573  17.464  0.00  0.00    +0.000 A 
ATOM     28  C   UNL     1      10.430  11.272  17.822  0.00  0.00    +0.000 A 
ENDBRANCH  21  22
ENDBRANCH  20  21
ENDBRANCH  19  20
ENDBRANCH  18  19
ENDBRANCH  16  18
ENDBRANCH  14  16
TORSDOF 6
ENDMDL
MODEL 3
REMARK VINA RESULT:      -7.5      4.274      7.386
REMARK  Name = 
REMARK  7 active torsions:
REMARK  status: ('A' for Active; 'I' for Inactive)
REMARK    1  A    between atoms: C_1  and  C_2
REMARK    2  A    between atoms: C_14  and  N_15
REMARK    3  A    between atoms: N_15  and  C_16
REMARK    4  A    between atoms: C_16  and  C_17
REMARK    5  A    between atoms: C_17  and  C_18
REMARK    6  A    between atoms: C_18  and  O_19
REMARK    7  A    between atoms: O_19  and  C_20
REMARK                            x       y       z     vdW  Elec       q    Type
REMARK                         _______ _______ _______ _____ _____    ______ ____
ROOT
ATOM      1  C   UNL     1       0.556   2.131  18.666  0.00  0.00    +0.000 C 
ATOM      2  C   UNL     1       1.742   3.033  18.830  0.00  0.00    +0.000 A 
ATOM      3  C   UNL     1       1.951   3.749  20.012  0.00  0.00    +0.000 A 
ATOM      4  C   UNL     1       3.059   4.590  20.174  0.00  0.00    +0.000 A 
ATOM      5  C   UNL     1       3.960   4.682  19.110  0.00  0.00    +0.000 A 
ATOM      6  N   UNL     1       5.136   5.390  18.999  0.00  0.00    +0.000 N 
ATOM      7  C   UNL     1       5.697   5.170  17.768  0.00  0.00    +0.000 A 
ATOM      8  C   UNL     1       4.881   4.306  17.069  0.00  0.00    +0.000 A 
ATOM      9  C   UNL     1       3.782   3.989  17.911  0.00  0.00    +0.000 A 
ATOM     10  C   UNL     1       2.659   3.152  17.774  0.00  0.00    +0.000 A 
ATOM     11  C   UNL     1       5.219   3.776  15.715  0.00  0.00    +0.000 C 
ATOM     12  C   UNL     1       6.515   4.391  15.150  0.00  0.00    +0.000 C 
ATOM     13  C   UNL     1       7.546   4.710  16.254  0.00  0.00    +0.000 C 
ATOM     14  C   UNL     1       6.993   5.731  17.291  0.00  0.00    +0.000 C 
ATOM     15  H   UNL     1       5.514   5.993  19.716  0.00  0.00    +0.000 HD
ENDROOT
BRANCH  14  16
ATOM     16  N   UNL     1       6.797   7.047  16.663  0.00  0.00    +0.000 NA
ATOM     17  H   UNL     1       5.898   7.053  16.182  0.00  0.00    +0.000 HD
BRANCH  16  18
ATOM     18  C   UNL     1       6.825   8.147  17.620  0.00  0.00    +0.000 C 
BRANCH  18  19
ATOM     19  C   UNL     1       8.234   8.387  18.160  0.00  0.00    +0.000 C 
BRANCH  19  20
ATOM     20  C   UNL     1       8.517   9.885  18.126  0.00  0.00    +0.000 C 
BRANCH  20  21
ATOM     21  O   UNL     1       9.867  10.142  18.510  0.00  0.00    +0.000 OA
BRANCH  21  22
ATOM     22  C   UNL     1      10.285  11.432  18.295  0.00  0.00    +0.000 A 
ATOM     23  C   UNL     1      11.609  11.873  18.422  0.00  0.00    +0.000 A 
ATOM     24  C   UNL     1      11.927  13.213  18.214  0.00  0.00    +0.000 A 
ATOM     25  C   UNL     1      10.926  14.103  17.864  0.00  0.00    +0.000 A 
ATOM     26  F   UNL     1      11.237  15.394  17.665  0.00  0.00    +0.000 F 
ATOM     27  C   UNL     1       9.611  13.681  17.707  0.00  0.00    +0.000 A 
ATOM     28  C   UNL     1       9.289  12.341  17.931  0.00  0.00    +0.000 A 
ENDBRANCH  21  22
ENDBRANCH  20  21
ENDBRANCH  19  20
ENDBRANCH  18  19
ENDBRANCH  16  18
ENDBRANCH  14  16
TORSDOF 6
ENDMDL
MODEL 4
REMARK VINA RESULT:      -7.5      4.260      7.382
REMARK  Name = 
REMARK  7 active torsions:
REMARK  status: ('A' for Active; 'I' for Inactive)
REMARK    1  A    between atoms: C_1  and  C_2
REMARK    2  A    between atoms: C_14  and  N_15
REMARK    3  A    between atoms: N_15  and  C_16
REMARK    4  A    between atoms: C_16  and  C_17
REMARK    5  A    between atoms: C_17  and  C_18
REMARK    6  A    between atoms: C_18  and  O_19
REMARK    7  A    between atoms: O_19  and  C_20
REMARK                            x       y       z     vdW  Elec       q    Type
REMARK                         _______ _______ _______ _____ _____    ______ ____
ROOT
ATOM      1  C   UNL     1       0.752   2.184  18.660  0.00  0.00    +0.000 C 
ATOM      2  C   UNL     1       2.117   2.796  18.752  0.00  0.00    +0.000 A 
ATOM      3  C   UNL     1       2.761   2.952  19.983  0.00  0.00    +0.000 A 
ATOM      4  C   UNL     1       4.038   3.518  20.076  0.00  0.00    +0.000 A 
ATOM      5  C   UNL     1       4.656   3.916  18.888  0.00  0.00    +0.000 A 
ATOM      6  N   UNL     1       5.902   4.462  18.672  0.00  0.00    +0.000 N 
ATOM      7  C   UNL     1       6.087   4.684  17.333  0.00  0.00    +0.000 A 
ATOM      8  C   UNL     1       4.952   4.274  16.665  0.00  0.00    +0.000 A 
ATOM      9  C   UNL     1       4.042   3.784  17.640  0.00  0.00    +0.000 A 
ATOM     10  C   UNL     1       2.758   3.213  17.575  0.00  0.00    +0.000 A 
ATOM     11  C   UNL     1       4.825   4.289  15.178  0.00  0.00    +0.000 C 
ATOM     12  C   UNL     1       6.055   4.917  14.491  0.00  0.00    +0.000 C 
ATOM     13  C   UNL     1       7.365   4.643  15.262  0.00  0.00    +0.000 C 
ATOM     14  C   UNL     1       7.325   5.227  16.704  0.00  0.00    +0.000 C 
ATOM     15  H   UNL     1       6.568   4.680  19.400  0.00  0.00    +0.000 HD
ENDROOT
BRANCH  14  16
ATOM     16  N   UNL     1       7.292   6.697  16.664  0.00  0.00    +0.000 NA
ATOM     17  H   UNL     1       6.333   7.002  16.505  0.00  0.00    +0.000 HD
BRANCH  16  18
ATOM     18  C   UNL     1       7.785   7.314  17.891  0.00  0.00    +0.000 C 
BRANCH  18  19
ATOM     19  C   UNL     1       7.654   8.835  17.847  0.00  0.00    +0.000 C 
BRANCH  19  20
ATOM     20  C   UNL     1       8.995   9.448  18.240  0.00  0.00    +0.000 C 
BRANCH  20  21
ATOM     21  O   UNL     1       8.824  10.356  19.327  0.00  0.00    +0.000 OA
BRANCH  21  22
ATOM     22  C   UNL     1       9.640  11.459  19.282  0.00  0.00    +0.000 A 
ATOM     23  C   UNL     1       9.315  12.668  18.655  0.00  0.00    +0.000 A 
ATOM     24  C   UNL     1      10.228  13.720  18.637  0.00  0.00    +0.000 A 
ATOM     25  C   UNL     1      11.455  13.566  19.260  0.00  0.00    +0.000 A 
ATOM     26  F   UNL     1      12.333  14.581  19.239  0.00  0.00    +0.000 F 
ATOM     27  C   UNL     1      11.788  12.383  19.910  0.00  0.00    +0.000 A 
ATOM     28  C   UNL     1      10.879  11.323  19.914  0.00  0.00    +0.000 A 
ENDBRANCH  21  22
ENDBRANCH  20  21
ENDBRANCH  19  20
ENDBRANCH  18  19
ENDBRANCH  16  18
ENDBRANCH  14  16
TORSDOF 6
ENDMDL
MODEL 5
REMARK VINA RESULT:      -7.4      3.981      6.790
REMARK  Name = 
REMARK  7 active torsions:
REMARK  status: ('A' for Active; 'I' for Inactive)
REMARK    1  A    between atoms: C_1  and  C_2
REMARK    2  A    between atoms: C_14  and  N_15
REMARK    3  A    between atoms: N_15  and  C_16
REMARK    4  A    between atoms: C_16  and  C_17
REMARK    5  A    between atoms: C_17  and  C_18
REMARK    6  A    between atoms: C_18  and  O_19
REMARK    7  A    between atoms: O_19  and  C_20
REMARK                            x       y       z     vdW  Elec       q    Type
REMARK                         _______ _______ _______ _____ _____    ______ ____
ROOT
ATOM      1  C   UNL     1       0.575   2.220  18.692  0.00  0.00    +0.000 C 
ATOM      2  C   UNL     1       2.010   2.645  18.776  0.00  0.00    +0.000 A 
ATOM      3  C   UNL     1       2.748   2.479  19.953  0.00  0.00    +0.000 A 
ATOM      4  C   UNL     1       4.089   2.868  20.038  0.00  0.00    +0.000 A 
ATOM      5  C   UNL     1       4.674   3.424  18.897  0.00  0.00    +0.000 A 
ATOM      6  N   UNL     1       5.963   3.859  18.679  0.00  0.00    +0.000 N 
ATOM      7  C   UNL     1       6.087   4.323  17.396  0.00  0.00    +0.000 A 
ATOM      8  C   UNL     1       4.867   4.184  16.766  0.00  0.00    +0.000 A 
ATOM      9  C   UNL     1       3.969   3.614  17.707  0.00  0.00    +0.000 A 
ATOM     10  C   UNL     1       2.621   3.215  17.648  0.00  0.00    +0.000 A 
ATOM     11  C   UNL     1       4.648   4.511  15.326  0.00  0.00    +0.000 C 
ATOM     12  C   UNL     1       5.900   5.121  14.665  0.00  0.00    +0.000 C 
ATOM     13  C   UNL     1       7.212   4.555  15.250  0.00  0.00    +0.000 C 
ATOM     14  C   UNL     1       7.340   4.838  16.775  0.00  0.00    +0.000 C 
ATOM     15  H   UNL     1       6.697   3.851  19.374  0.00  0.00    +0.000 HD
ENDROOT
BRANCH  14  16
ATOM     16  N   UNL     1       7.492   6.281  17.019  0.00  0.00    +0.000 NA
ATOM     17  H   UNL     1       6.696   6.771  16.613  0.00  0.00    +0.000 HD
BRANCH  16  18
ATOM     18  C   UNL     1       7.576   6.615  18.437  0.00  0.00    +0.000 C 
BRANCH  18  19
ATOM     19  C   UNL     1       8.495   7.812  18.679  0.00  0.00    +0.000 C 
BRANCH  19  20
ATOM     20  C   UNL     1       7.974   8.994  17.867  0.00  0.00    +0.000 C 
BRANCH  20  21
ATOM     21  O   UNL     1       9.033   9.910  17.593  0.00  0.00    +0.000 OA
BRANCH  21  22
ATOM     22  C   UNL     1       9.189  10.899  18.532  0.00  0.00    +0.000 A 
ATOM     23  C   UNL     1       9.557  10.681  19.866  0.00  0.00    +0.000 A 
ATOM     24  C   UNL     1       9.657  11.751  20.752  0.00  0.00    +0.000 A 
ATOM     25  C   UNL     1       9.407  13.035  20.299  0.00  0.00    +0.000 A 
ATOM     26  F   UNL     1       9.504  14.064  21.156  0.00  0.00    +0.000 F 
ATOM     27  C   UNL     1       9.066  13.276  18.973  0.00  0.00    +0.000 A 
ATOM     28  C   UNL     1       8.949  12.202  18.089  0.00  0.00    +0.000 A 
ENDBRANCH  21  22
ENDBRANCH  20  21
ENDBRANCH  19  20
ENDBRANCH  18  19
ENDBRANCH  16  18
ENDBRANCH  14  16
TORSDOF 6
ENDMDL
MODEL 6
REMARK VINA RESULT:      -7.4      3.499      7.185
REMARK  Name = 
REMARK  7 active torsions:
REMARK  status: ('A' for Active; 'I' for Inactive)
REMARK    1  A    between atoms: C_1  and  C_2
REMARK    2  A    between atoms: C_14  and  N_15
REMARK    3  A    between atoms: N_15  and  C_16
REMARK    4  A    between atoms: C_16  and  C_17
REMARK    5  A    between atoms: C_17  and  C_18
REMARK    6  A    between atoms: C_18  and  O_19
REMARK    7  A    between atoms: O_19  and  C_20
REMARK                            x       y       z     vdW  Elec       q    Type
REMARK                         _______ _______ _______ _____ _____    ______ ____
ROOT
ATOM      1  C   UNL     1      -0.855  11.609  20.148  0.00  0.00    +0.000 C 
ATOM      2  C   UNL     1      -0.095  10.341  20.398  0.00  0.00    +0.000 A 
ATOM      3  C   UNL     1      -0.227   9.642  21.602  0.00  0.00    +0.000 A 
ATOM      4  C   UNL     1       0.474   8.455  21.842  0.00  0.00    +0.000 A 
ATOM      5  C   UNL     1       1.311   7.984  20.826  0.00  0.00    +0.000 A 
ATOM      6  N   UNL     1       2.085   6.846  20.767  0.00  0.00    +0.000 N 
ATOM      7  C   UNL     1       2.735   6.787  19.563  0.00  0.00    +0.000 A 
ATOM      8  C   UNL     1       2.378   7.896  18.824  0.00  0.00    +0.000 A 
ATOM      9  C   UNL     1       1.476   8.657  19.614  0.00  0.00    +0.000 A 
ATOM     10  C   UNL     1       0.760   9.849  19.399  0.00  0.00    +0.000 A 
ATOM     11  C   UNL     1       2.832   8.126  17.421  0.00  0.00    +0.000 C 
ATOM     12  C   UNL     1       3.825   7.048  16.941  0.00  0.00    +0.000 C 
ATOM     13  C   UNL     1       3.535   5.663  17.558  0.00  0.00    +0.000 C 
ATOM     14  C   UNL     1       3.632   5.685  19.111  0.00  0.00    +0.000 C 
ATOM     15  H   UNL     1       2.169   6.168  21.513  0.00  0.00    +0.000 HD
ENDROOT
BRANCH  14  16
ATOM     16  N   UNL     1       5.018   5.928  19.537  0.00  0.00    +0.000 NA
ATOM     17  H   UNL     1       5.042   6.016  20.552  0.00  0.00    +0.000 HD
BRANCH  16  18
ATOM     18  C   UNL     1       5.935   4.866  19.136  0.00  0.00    +0.000 C 
BRANCH  18  19
ATOM     19  C   UNL     1       7.105   5.412  18.319  0.00  0.00    +0.000 C 
BRANCH  19  20
ATOM     20  C   UNL     1       7.263   4.555  17.067  0.00  0.00    +0.000 C 
BRANCH  20  21
ATOM     21  O   UNL     1       7.288   5.380  15.903  0.00  0.00    +0.000 OA
BRANCH  21  22
ATOM     22  C   UNL     1       6.845   4.765  14.759  0.00  0.00    +0.000 A 
ATOM     23  C   UNL     1       7.511   4.797  13.528  0.00  0.00    +0.000 A 
ATOM     24  C   UNL     1       6.961   4.167  12.413  0.00  0.00    +0.000 A 
ATOM     25  C   UNL     1       5.758   3.495  12.538  0.00  0.00    +0.000 A 
ATOM     26  F   UNL     1       5.230   2.889  11.461  0.00  0.00    +0.000 F 
ATOM     27  C   UNL     1       5.093   3.429  13.757  0.00  0.00    +0.000 A 
ATOM     28  C   UNL     1       5.636   4.074  14.869  0.00  0.00    +0.000 A 
ENDBRANCH  21  22
ENDBRANCH  20  21
ENDBRANCH  19  20
ENDBRANCH  18  19
ENDBRANCH  16  18
ENDBRANCH  14  16
TORSDOF 6
ENDMDL
MODEL 7
REMARK VINA RESULT:      -7.3      4.159      7.036
REMARK  Name = 
REMARK  7 active torsions:
REMARK  status: ('A' for Active; 'I' for Inactive)
REMARK    1  A    between atoms: C_1  and  C_2
REMARK    2  A    between atoms: C_14  and  N_15
REMARK    3  A    between atoms: N_15  and  C_16
REMARK    4  A    between atoms: C_16  and  C_17
REMARK    5  A    between atoms: C_17  and  C_18
REMARK    6  A    between atoms: C_18  and  O_19
REMARK    7  A    between atoms: O_19  and  C_20
REMARK                            x       y       z     vdW  Elec       q    Type
REMARK                         _______ _______ _______ _____ _____    ______ ____
ROOT
ATOM      1  C   UNL     1       0.462   2.345  18.973  0.00  0.00    +0.000 C 
ATOM      2  C   UNL     1       1.632   3.271  19.111  0.00  0.00    +0.000 A 
ATOM      3  C   UNL     1       1.770   4.105  20.225  0.00  0.00    +0.000 A 
ATOM      4  C   UNL     1       2.862   4.970  20.363  0.00  0.00    +0.000 A 
ATOM      5  C   UNL     1       3.822   4.965  19.347  0.00  0.00    +0.000 A 
ATOM      6  N   UNL     1       4.999   5.671  19.231  0.00  0.00    +0.000 N 
ATOM      7  C   UNL     1       5.629   5.336  18.062  0.00  0.00    +0.000 A 
ATOM      8  C   UNL     1       4.859   4.396  17.409  0.00  0.00    +0.000 A 
ATOM      9  C   UNL     1       3.715   4.154  18.216  0.00  0.00    +0.000 A 
ATOM     10  C   UNL     1       2.607   3.294  18.101  0.00  0.00    +0.000 A 
ATOM     11  C   UNL     1       5.275   3.737  16.136  0.00  0.00    +0.000 C 
ATOM     12  C   UNL     1       6.598   4.307  15.586  0.00  0.00    +0.000 C 
ATOM     13  C   UNL     1       7.564   4.747  16.708  0.00  0.00    +0.000 C 
ATOM     14  C   UNL     1       6.947   5.860  17.604  0.00  0.00    +0.000 C 
ATOM     15  H   UNL     1       5.332   6.348  19.904  0.00  0.00    +0.000 HD
ENDROOT
BRANCH  14  16
ATOM     16  N   UNL     1       6.780   7.104  16.836  0.00  0.00    +0.000 NA
ATOM     17  H   UNL     1       5.855   7.106  16.407  0.00  0.00    +0.000 HD
BRANCH  16  18
ATOM     18  C   UNL     1       6.921   8.304  17.655  0.00  0.00    +0.000 C 
BRANCH  18  19
ATOM     19  C   UNL     1       8.355   8.481  18.150  0.00  0.00    +0.000 C 
BRANCH  19  20
ATOM     20  C   UNL     1       8.659   9.974  18.228  0.00  0.00    +0.000 C 
BRANCH  20  21
ATOM     21  O   UNL     1       9.794  10.205  19.061  0.00  0.00    +0.000 OA
BRANCH  21  22
ATOM     22  C   UNL     1       9.737  11.364  19.794  0.00  0.00    +0.000 A 
ATOM     23  C   UNL     1       9.484  11.425  21.171  0.00  0.00    +0.000 A 
ATOM     24  C   UNL     1       9.414  12.657  21.819  0.00  0.00    +0.000 A 
ATOM     25  C   UNL     1       9.612  13.819  21.094  0.00  0.00    +0.000 A 
ATOM     26  F   UNL     1       9.542  15.004  21.722  0.00  0.00    +0.000 F 
ATOM     27  C   UNL     1       9.889  13.779  19.732  0.00  0.00    +0.000 A 
ATOM     28  C   UNL     1       9.943  12.547  19.080  0.00  0.00    +0.000 A 
ENDBRANCH  21  22
ENDBRANCH  20  21
ENDBRANCH  19  20
ENDBRANCH  18  19
ENDBRANCH  16  18
ENDBRANCH  14  16
TORSDOF 6
ENDMDL
MODEL 8
REMARK VINA RESULT:      -7.2      4.182      7.189
REMARK  Name = 
REMARK  7 active torsions:
REMARK  status: ('A' for Active; 'I' for Inactive)
REMARK    1  A    between atoms: C_1  and  C_2
REMARK    2  A    between atoms: C_14  and  N_15
REMARK    3  A    between atoms: N_15  and  C_16
REMARK    4  A    between atoms: C_16  and  C_17
REMARK    5  A    between atoms: C_17  and  C_18
REMARK    6  A    between atoms: C_18  and  O_19
REMARK    7  A    between atoms: O_19  and  C_20
REMARK                            x       y       z     vdW  Elec       q    Type
REMARK                         _______ _______ _______ _____ _____    ______ ____
ROOT
ATOM      1  C   UNL     1       0.997   1.649  18.764  0.00  0.00    +0.000 C 
ATOM      2  C   UNL     1       2.292   2.392  18.901  0.00  0.00    +0.000 A 
ATOM      3  C   UNL     1       2.921   2.528  20.143  0.00  0.00    +0.000 A 
ATOM      4  C   UNL     1       4.133   3.216  20.279  0.00  0.00    +0.000 A 
ATOM      5  C   UNL     1       4.701   3.758  19.122  0.00  0.00    +0.000 A 
ATOM      6  N   UNL     1       5.882   4.444  18.948  0.00  0.00    +0.000 N 
ATOM      7  C   UNL     1       6.037   4.776  17.628  0.00  0.00    +0.000 A 
ATOM      8  C   UNL     1       4.948   4.298  16.931  0.00  0.00    +0.000 A 
ATOM      9  C   UNL     1       4.099   3.650  17.867  0.00  0.00    +0.000 A 
ATOM     10  C   UNL     1       2.881   2.954  17.758  0.00  0.00    +0.000 A 
ATOM     11  C   UNL     1       4.814   4.404  15.448  0.00  0.00    +0.000 C 
ATOM     12  C   UNL     1       5.969   5.202  14.810  0.00  0.00    +0.000 C 
ATOM     13  C   UNL     1       7.304   5.013  15.563  0.00  0.00    +0.000 C 
ATOM     14  C   UNL     1       7.210   5.487  17.043  0.00  0.00    +0.000 C 
ATOM     15  H   UNL     1       6.525   4.679  19.692  0.00  0.00    +0.000 HD
ENDROOT
BRANCH  14  16
ATOM     16  N   UNL     1       7.024   6.946  17.105  0.00  0.00    +0.000 NA
ATOM     17  H   UNL     1       6.081   7.145  17.435  0.00  0.00    +0.000 HD
BRANCH  16  18
ATOM     18  C   UNL     1       7.980   7.607  17.987  0.00  0.00    +0.000 C 
BRANCH  18  19
ATOM     19  C   UNL     1       7.939   9.125  17.823  0.00  0.00    +0.000 C 
BRANCH  19  20
ATOM     20  C   UNL     1       9.000   9.738  18.732  0.00  0.00    +0.000 C 
BRANCH  20  21
ATOM     21  O   UNL     1       9.762  10.710  18.017  0.00  0.00    +0.000 OA
BRANCH  21  22
ATOM     22  C   UNL     1       9.608  11.998  18.465  0.00  0.00    +0.000 A 
ATOM     23  C   UNL     1       9.786  13.143  17.679  0.00  0.00    +0.000 A 
ATOM     24  C   UNL     1       9.638  14.411  18.237  0.00  0.00    +0.000 A 
ATOM     25  C   UNL     1       9.297  14.529  19.574  0.00  0.00    +0.000 A 
ATOM     26  F   UNL     1       9.157  15.752  20.109  0.00  0.00    +0.000 F 
ATOM     27  C   UNL     1       9.091  13.405  20.366  0.00  0.00    +0.000 A 
ATOM     28  C   UNL     1       9.255  12.135  19.810  0.00  0.00    +0.000 A 
ENDBRANCH  21  22
ENDBRANCH  20  21
ENDBRANCH  19  20
ENDBRANCH  18  19
ENDBRANCH  16  18
ENDBRANCH  14  16
TORSDOF 6
ENDMDL
MODEL 9
REMARK VINA RESULT:      -7.2      3.072      6.365
REMARK  Name = 
REMARK  7 active torsions:
REMARK  status: ('A' for Active; 'I' for Inactive)
REMARK    1  A    between atoms: C_1  and  C_2
REMARK    2  A    between atoms: C_14  and  N_15
REMARK    3  A    between atoms: N_15  and  C_16
REMARK    4  A    between atoms: C_16  and  C_17
REMARK    5  A    between atoms: C_17  and  C_18
REMARK    6  A    between atoms: C_18  and  O_19
REMARK    7  A    between atoms: O_19  and  C_20
REMARK                            x       y       z     vdW  Elec       q    Type
REMARK                         _______ _______ _______ _____ _____    ______ ____
ROOT
ATOM      1  C   UNL     1       0.778   2.864  20.430  0.00  0.00    +0.000 C 
ATOM      2  C   UNL     1       1.926   2.900  19.466  0.00  0.00    +0.000 A 
ATOM      3  C   UNL     1       2.557   1.725  19.046  0.00  0.00    +0.000 A 
ATOM      4  C   UNL     1       3.626   1.750  18.143  0.00  0.00    +0.000 A 
ATOM      5  C   UNL     1       4.039   2.997  17.665  0.00  0.00    +0.000 A 
ATOM      6  N   UNL     1       5.023   3.321  16.758  0.00  0.00    +0.000 N 
ATOM      7  C   UNL     1       5.067   4.679  16.584  0.00  0.00    +0.000 A 
ATOM      8  C   UNL     1       4.097   5.249  17.382  0.00  0.00    +0.000 A 
ATOM      9  C   UNL     1       3.441   4.192  18.067  0.00  0.00    +0.000 A 
ATOM     10  C   UNL     1       2.368   4.139  18.977  0.00  0.00    +0.000 A 
ATOM     11  C   UNL     1       3.798   6.711  17.390  0.00  0.00    +0.000 C 
ATOM     12  C   UNL     1       4.766   7.513  16.496  0.00  0.00    +0.000 C 
ATOM     13  C   UNL     1       5.224   6.713  15.257  0.00  0.00    +0.000 C 
ATOM     14  C   UNL     1       5.973   5.407  15.651  0.00  0.00    +0.000 C 
ATOM     15  H   UNL     1       5.631   2.652  16.305  0.00  0.00    +0.000 HD
ENDROOT
BRANCH  14  16
ATOM     16  N   UNL     1       7.253   5.725  16.303  0.00  0.00    +0.000 NA
ATOM     17  H   UNL     1       7.347   6.738  16.372  0.00  0.00    +0.000 HD
BRANCH  16  18
ATOM     18  C   UNL     1       7.372   5.151  17.639  0.00  0.00    +0.000 C 
BRANCH  18  19
ATOM     19  C   UNL     1       7.280   6.225  18.723  0.00  0.00    +0.000 C 
BRANCH  19  20
ATOM     20  C   UNL     1       8.350   7.278  18.452  0.00  0.00    +0.000 C 
BRANCH  20  21
ATOM     21  O   UNL     1       7.780   8.403  17.786  0.00  0.00    +0.000 OA
BRANCH  21  22
ATOM     22  C   UNL     1       8.328   9.612  18.135  0.00  0.00    +0.000 A 
ATOM     23  C   UNL     1       8.103  10.816  17.456  0.00  0.00    +0.000 A 
ATOM     24  C   UNL     1       8.735  11.986  17.871  0.00  0.00    +0.000 A 
ATOM     25  C   UNL     1       9.574  11.952  18.972  0.00  0.00    +0.000 A 
ATOM     26  F   UNL     1      10.181  13.082  19.368  0.00  0.00    +0.000 F 
ATOM     27  C   UNL     1       9.790  10.773  19.676  0.00  0.00    +0.000 A 
ATOM     28  C   UNL     1       9.170   9.597  19.250  0.00  0.00    +0.000 A 
ENDBRANCH  21  22
ENDBRANCH  20  21
ENDBRANCH  19  20
ENDBRANCH  18  19
ENDBRANCH  16  18
ENDBRANCH  14  16
TORSDOF 6
ENDMDL
