MODEL 1
REMARK VINA RESULT:      -8.7      0.000      0.000
REMARK  Name = 
REMARK  8 active torsions:
REMARK  status: ('A' for Active; 'I' for Inactive)
REMARK    1  A    between atoms: C_2  and  O_3
REMARK    2  A    between atoms: C_2  and  C_14
REMARK    3  A    between atoms: O_3  and  C_4
REMARK    4  A    between atoms: C_16  and  C_17
REMARK    5  A    between atoms: C_17  and  O_18
REMARK    6  A    between atoms: C_20  and  C_21
REMARK    7  A    between atoms: C_21  and  O_23
REMARK    8  A    between atoms: O_23  and  C_24
REMARK                            x       y       z     vdW  Elec       q    Type
REMARK                         _______ _______ _______ _____ _____    ______ ____
ROOT
ATOM      1  C   UNL     1      -0.831  11.185  20.190  0.00  0.00    +0.000 A 
ATOM      2  C   UNL     1      -1.956  11.278  19.355  0.00  0.00    +0.000 A 
ATOM      3  C   UNL     1      -1.966  10.680  18.084  0.00  0.00    +0.000 A 
ATOM      4  C   UNL     1      -0.811  10.020  17.638  0.00  0.00    +0.000 A 
ATOM      5  C   UNL     1       0.337   9.952  18.438  0.00  0.00    +0.000 A 
ATOM      6  C   UNL     1       0.319  10.529  19.724  0.00  0.00    +0.000 A 
ENDROOT
BRANCH   1   8
ATOM      7  O   UNL     1      -0.005  11.919  22.313  0.00  0.00    +0.000 OA
ATOM      8  C   UNL     1      -0.960  11.744  21.578  0.00  0.00    +0.000 C 
BRANCH   8   9
ATOM      9  O   UNL     1      -2.248  12.058  21.864  0.00  0.00    +0.000 OA
BRANCH   9  10
ATOM     10  C   UNL     1      -2.548  13.459  22.104  0.00  0.00    +0.000 C 
ATOM     11  C   UNL     1      -2.657  13.751  23.606  0.00  0.00    +0.000 C 
ATOM     12  C   UNL     1      -3.808  12.987  24.267  0.00  0.00    +0.000 C 
ATOM     13  C   UNL     1      -5.145  13.224  23.545  0.00  0.00    +0.000 C 
ATOM     14  C   UNL     1      -6.268  12.392  24.180  0.00  0.00    +0.000 C 
ATOM     15  C   UNL     1      -7.591  12.576  23.438  0.00  0.00    +0.000 C 
ATOM     16  C   UNL     1      -7.449  12.267  21.951  0.00  0.00    +0.000 C 
ATOM     17  C   UNL     1      -6.347  13.110  21.311  0.00  0.00    +0.000 C 
ATOM     18  C   UNL     1      -5.015  12.913  22.041  0.00  0.00    +0.000 C 
ATOM     19  C   UNL     1      -3.893  13.762  21.424  0.00  0.00    +0.000 C 
ENDBRANCH   9  10
ENDBRANCH   8   9
ENDBRANCH   1   8
BRANCH   5  20
ATOM     20  C   UNL     1       1.564   9.237  17.968  0.00  0.00    +0.000 C 
ATOM     21  O   UNL     1       2.472   9.804  17.381  0.00  0.00    +0.000 OA
BRANCH  20  22
ATOM     22  O   UNL     1       1.526   7.911  18.290  0.00  0.00    +0.000 OA
BRANCH  22  23
ATOM     23  C   UNL     1       2.628   7.408  19.081  0.00  0.00    +0.000 C 
ATOM     24  C   UNL     1       3.696   6.778  18.182  0.00  0.00    +0.000 C 
ATOM     25  C   UNL     1       3.251   5.462  17.541  0.00  0.00    +0.000 C 
ATOM     26  C   UNL     1       2.720   4.455  18.565  0.00  0.00    +0.000 C 
ATOM     27  C   UNL     1       2.161   3.201  17.869  0.00  0.00    +0.000 C 
ATOM     28  C   UNL     1       1.661   2.169  18.879  0.00  0.00    +0.000 C 
ATOM     29  C   UNL     1       0.677   2.770  19.880  0.00  0.00    +0.000 C 
ATOM     30  C   UNL     1       1.227   4.038  20.534  0.00  0.00    +0.000 C 
ATOM     31  C   UNL     1       1.635   5.072  19.469  0.00  0.00    +0.000 C 
ATOM     32  C   UNL     1       2.106   6.387  20.106  0.00  0.00    +0.000 C 
ENDBRANCH  22  23
ENDBRANCH  20  22
ENDBRANCH   5  20
BRANCH   3  33
ATOM     33  C   UNL     1      -3.245  10.621  17.286  0.00  0.00    +0.000 C 
BRANCH  33  34
ATOM     34  O   UNL     1      -3.826  11.907  17.121  0.00  0.00    +0.000 OA
ATOM     35  H   UNL     1      -3.920  12.293  18.008  0.00  0.00    +0.000 HD
ENDBRANCH  33  34
ENDBRANCH   3  33
TORSDOF 8
ENDMDL
MODEL 2
REMARK VINA RESULT:      -8.7      0.478      9.575
REMARK  Name = 
REMARK  8 active torsions:
REMARK  status: ('A' for Active; 'I' for Inactive)
REMARK    1  A    between atoms: C_2  and  O_3
REMARK    2  A    between atoms: C_2  and  C_14
REMARK    3  A    between atoms: O_3  and  C_4
REMARK    4  A    between atoms: C_16  and  C_17
REMARK    5  A    between atoms: C_17  and  O_18
REMARK    6  A    between atoms: C_20  and  C_21
REMARK    7  A    between atoms: C_21  and  O_23
REMARK    8  A    between atoms: O_23  and  C_24
REMARK                            x       y       z     vdW  Elec       q    Type
REMARK                         _______ _______ _______ _____ _____    ______ ____
ROOT
ATOM      1  C   UNL     1       0.456   9.700  18.443  0.00  0.00    +0.000 A 
ATOM      2  C   UNL     1      -0.659   9.783  17.594  0.00  0.00    +0.000 A 
ATOM      3  C   UNL     1      -1.806  10.503  17.971  0.00  0.00    +0.000 A 
ATOM      4  C   UNL     1      -1.838  11.107  19.237  0.00  0.00    +0.000 A 
ATOM      5  C   UNL     1      -0.754  11.002  20.116  0.00  0.00    +0.000 A 
ATOM      6  C   UNL     1       0.401  10.303  19.710  0.00  0.00    +0.000 A 
ENDROOT
BRANCH   1   8
ATOM      7  O   UNL     1       2.543   9.607  17.276  0.00  0.00    +0.000 OA
ATOM      8  C   UNL     1       1.680   9.018  17.902  0.00  0.00    +0.000 C 
BRANCH   8   9
ATOM      9  O   UNL     1       1.702   7.706  18.241  0.00  0.00    +0.000 OA
BRANCH   9  10
ATOM     10  C   UNL     1       2.789   7.264  19.097  0.00  0.00    +0.000 C 
ATOM     11  C   UNL     1       3.941   6.680  18.269  0.00  0.00    +0.000 C 
ATOM     12  C   UNL     1       3.524   5.429  17.491  0.00  0.00    +0.000 C 
ATOM     13  C   UNL     1       2.889   4.368  18.405  0.00  0.00    +0.000 C 
ATOM     14  C   UNL     1       2.414   3.156  17.593  0.00  0.00    +0.000 C 
ATOM     15  C   UNL     1       1.731   2.118  18.482  0.00  0.00    +0.000 C 
ATOM     16  C   UNL     1       0.585   2.729  19.282  0.00  0.00    +0.000 C 
ATOM     17  C   UNL     1       1.058   3.923  20.109  0.00  0.00    +0.000 C 
ATOM     18  C   UNL     1       1.727   4.974  19.217  0.00  0.00    +0.000 C 
ATOM     19  C   UNL     1       2.226   6.180  20.029  0.00  0.00    +0.000 C 
ENDBRANCH   9  10
ENDBRANCH   8   9
ENDBRANCH   1   8
BRANCH   5  20
ATOM     20  C   UNL     1      -0.784  11.657  21.460  0.00  0.00    +0.000 C 
ATOM     21  O   UNL     1       0.231  11.944  22.076  0.00  0.00    +0.000 OA
BRANCH  20  22
ATOM     22  O   UNL     1      -2.062  11.891  21.876  0.00  0.00    +0.000 OA
BRANCH  22  23
ATOM     23  C   UNL     1      -2.452  13.278  22.015  0.00  0.00    +0.000 C 
ATOM     24  C   UNL     1      -2.550  13.666  23.493  0.00  0.00    +0.000 C 
ATOM     25  C   UNL     1      -3.734  13.019  24.214  0.00  0.00    +0.000 C 
ATOM     26  C   UNL     1      -5.064  13.245  23.489  0.00  0.00    +0.000 C 
ATOM     27  C   UNL     1      -6.204  12.470  24.171  0.00  0.00    +0.000 C 
ATOM     28  C   UNL     1      -7.546  12.715  23.483  0.00  0.00    +0.000 C 
ATOM     29  C   UNL     1      -7.481  12.456  21.980  0.00  0.00    +0.000 C 
ATOM     30  C   UNL     1      -6.317  13.198  21.321  0.00  0.00    +0.000 C 
ATOM     31  C   UNL     1      -4.983  12.847  22.003  0.00  0.00    +0.000 C 
ATOM     32  C   UNL     1      -3.793  13.513  21.299  0.00  0.00    +0.000 C 
ENDBRANCH  22  23
ENDBRANCH  20  22
ENDBRANCH   5  20
BRANCH   3  33
ATOM     33  C   UNL     1      -2.909  10.745  16.971  0.00  0.00    +0.000 C 
BRANCH  33  34
ATOM     34  O   UNL     1      -2.402  10.923  15.656  0.00  0.00    +0.000 OA
ATOM     35  H   UNL     1      -1.597  11.463  15.732  0.00  0.00    +0.000 HD
ENDBRANCH  33  34
ENDBRANCH   3  33
TORSDOF 8
ENDMDL
MODEL 3
REMARK VINA RESULT:      -8.6      1.341      9.681
REMARK  Name = 
REMARK  8 active torsions:
REMARK  status: ('A' for Active; 'I' for Inactive)
REMARK    1  A    between atoms: C_2  and  O_3
REMARK    2  A    between atoms: C_2  and  C_14
REMARK    3  A    between atoms: O_3  and  C_4
REMARK    4  A    between atoms: C_16  and  C_17
REMARK    5  A    between atoms: C_17  and  O_18
REMARK    6  A    between atoms: C_20  and  C_21
REMARK    7  A    between atoms: C_21  and  O_23
REMARK    8  A    between atoms: O_23  and  C_24
REMARK                            x       y       z     vdW  Elec       q    Type
REMARK                         _______ _______ _______ _____ _____    ______ ____
ROOT
ATOM      1  C   UNL     1       1.209   9.214  18.897  0.00  0.00    +0.000 A 
ATOM      2  C   UNL     1       1.319   8.920  20.266  0.00  0.00    +0.000 A 
ATOM      3  C   UNL     1       0.457   9.511  21.206  0.00  0.00    +0.000 A 
ATOM      4  C   UNL     1      -0.496  10.439  20.760  0.00  0.00    +0.000 A 
ATOM      5  C   UNL     1      -0.595  10.778  19.405  0.00  0.00    +0.000 A 
ATOM      6  C   UNL     1       0.255  10.153  18.471  0.00  0.00    +0.000 A 
ENDROOT
BRANCH   1   8
ATOM      7  O   UNL     1       2.712   8.962  17.052  0.00  0.00    +0.000 OA
ATOM      8  C   UNL     1       2.087   8.439  17.958  0.00  0.00    +0.000 C 
BRANCH   8   9
ATOM      9  O   UNL     1       2.116   7.123  18.284  0.00  0.00    +0.000 OA
BRANCH   9  10
ATOM     10  C   UNL     1       3.423   6.523  18.491  0.00  0.00    +0.000 C 
ATOM     11  C   UNL     1       3.745   5.509  17.386  0.00  0.00    +0.000 C 
ATOM     12  C   UNL     1       2.771   4.327  17.377  0.00  0.00    +0.000 C 
ATOM     13  C   UNL     1       2.672   3.653  18.756  0.00  0.00    +0.000 C 
ATOM     14  C   UNL     1       1.638   2.519  18.740  0.00  0.00    +0.000 C 
ATOM     15  C   UNL     1       1.490   1.876  20.118  0.00  0.00    +0.000 C 
ATOM     16  C   UNL     1       1.159   2.911  21.189  0.00  0.00    +0.000 C 
ATOM     17  C   UNL     1       2.199   4.029  21.223  0.00  0.00    +0.000 C 
ATOM     18  C   UNL     1       2.336   4.689  19.847  0.00  0.00    +0.000 C 
ATOM     19  C   UNL     1       3.388   5.809  19.851  0.00  0.00    +0.000 C 
ENDBRANCH   9  10
ENDBRANCH   8   9
ENDBRANCH   1   8
BRANCH   5  20
ATOM     20  C   UNL     1      -1.620  11.758  18.927  0.00  0.00    +0.000 C 
ATOM     21  O   UNL     1      -1.583  12.259  17.815  0.00  0.00    +0.000 OA
BRANCH  20  22
ATOM     22  O   UNL     1      -2.572  11.991  19.877  0.00  0.00    +0.000 OA
BRANCH  22  23
ATOM     23  C   UNL     1      -2.721  13.360  20.319  0.00  0.00    +0.000 C 
ATOM     24  C   UNL     1      -1.814  13.642  21.521  0.00  0.00    +0.000 C 
ATOM     25  C   UNL     1      -2.264  12.935  22.801  0.00  0.00    +0.000 C 
ATOM     26  C   UNL     1      -3.735  13.200  23.137  0.00  0.00    +0.000 C 
ATOM     27  C   UNL     1      -4.183  12.368  24.352  0.00  0.00    +0.000 C 
ATOM     28  C   UNL     1      -5.637  12.649  24.725  0.00  0.00    +0.000 C 
ATOM     29  C   UNL     1      -6.580  12.498  23.533  0.00  0.00    +0.000 C 
ATOM     30  C   UNL     1      -6.101  13.296  22.319  0.00  0.00    +0.000 C 
ATOM     31  C   UNL     1      -4.660  12.909  21.940  0.00  0.00    +0.000 C 
ATOM     32  C   UNL     1      -4.193  13.634  20.670  0.00  0.00    +0.000 C 
ENDBRANCH  22  23
ENDBRANCH  20  22
ENDBRANCH   5  20
BRANCH   3  33
ATOM     33  C   UNL     1       0.461   9.036  22.638  0.00  0.00    +0.000 C 
BRANCH  33  34
ATOM     34  O   UNL     1      -0.730   9.402  23.320  0.00  0.00    +0.000 OA
ATOM     35  H   UNL     1      -1.406   9.571  22.642  0.00  0.00    +0.000 HD
ENDBRANCH  33  34
ENDBRANCH   3  33
TORSDOF 8
ENDMDL
MODEL 4
REMARK VINA RESULT:      -8.5      3.156      5.306
REMARK  Name = 
REMARK  8 active torsions:
REMARK  status: ('A' for Active; 'I' for Inactive)
REMARK    1  A    between atoms: C_2  and  O_3
REMARK    2  A    between atoms: C_2  and  C_14
REMARK    3  A    between atoms: O_3  and  C_4
REMARK    4  A    between atoms: C_16  and  C_17
REMARK    5  A    between atoms: C_17  and  O_18
REMARK    6  A    between atoms: C_20  and  C_21
REMARK    7  A    between atoms: C_21  and  O_23
REMARK    8  A    between atoms: O_23  and  C_24
REMARK                            x       y       z     vdW  Elec       q    Type
REMARK                         _______ _______ _______ _____ _____    ______ ____
ROOT
ATOM      1  C   UNL     1      -0.744  10.953  19.389  0.00  0.00    +0.000 A 
ATOM      2  C   UNL     1      -0.878  10.452  20.694  0.00  0.00    +0.000 A 
ATOM      3  C   UNL     1      -0.024   9.445  21.175  0.00  0.00    +0.000 A 
ATOM      4  C   UNL     1       0.944   8.910  20.312  0.00  0.00    +0.000 A 
ATOM      5  C   UNL     1       1.067   9.365  18.993  0.00  0.00    +0.000 A 
ATOM      6  C   UNL     1       0.224  10.399  18.536  0.00  0.00    +0.000 A 
ENDROOT
BRANCH   1   8
ATOM      7  O   UNL     1      -2.826  12.027  18.902  0.00  0.00    +0.000 OA
ATOM      8  C   UNL     1      -1.616  12.115  19.009  0.00  0.00    +0.000 C 
BRANCH   8   9
ATOM      9  O   UNL     1      -0.887  13.247  18.853  0.00  0.00    +0.000 OA
BRANCH   9  10
ATOM     10  C   UNL     1      -0.457  13.927  20.063  0.00  0.00    +0.000 C 
ATOM     11  C   UNL     1      -0.999  15.362  20.110  0.00  0.00    +0.000 C 
ATOM     12  C   UNL     1      -0.461  16.226  18.965  0.00  0.00    +0.000 C 
ATOM     13  C   UNL     1       1.075  16.201  18.898  0.00  0.00    +0.000 C 
ATOM     14  C   UNL     1       1.585  17.014  17.700  0.00  0.00    +0.000 C 
ATOM     15  C   UNL     1       3.108  16.953  17.590  0.00  0.00    +0.000 C 
ATOM     16  C   UNL     1       3.610  15.513  17.534  0.00  0.00    +0.000 C 
ATOM     17  C   UNL     1       3.123  14.707  18.736  0.00  0.00    +0.000 C 
ATOM     18  C   UNL     1       1.594  14.751  18.838  0.00  0.00    +0.000 C 
ATOM     19  C   UNL     1       1.079  13.958  20.050  0.00  0.00    +0.000 C 
ENDBRANCH   9  10
ENDBRANCH   8   9
ENDBRANCH   1   8
BRANCH   5  20
ATOM     20  C   UNL     1       2.108   8.804  18.077  0.00  0.00    +0.000 C 
ATOM     21  O   UNL     1       2.855   9.511  17.418  0.00  0.00    +0.000 OA
BRANCH  20  22
ATOM     22  O   UNL     1       2.110   7.440  18.094  0.00  0.00    +0.000 OA
BRANCH  22  23
ATOM     23  C   UNL     1       3.336   6.801  18.522  0.00  0.00    +0.000 C 
ATOM     24  C   UNL     1       3.822   5.804  17.466  0.00  0.00    +0.000 C 
ATOM     25  C   UNL     1       2.941   4.560  17.353  0.00  0.00    +0.000 C 
ATOM     26  C   UNL     1       2.709   3.874  18.703  0.00  0.00    +0.000 C 
ATOM     27  C   UNL     1       1.713   2.709  18.568  0.00  0.00    +0.000 C 
ATOM     28  C   UNL     1       1.500   1.989  19.898  0.00  0.00    +0.000 C 
ATOM     29  C   UNL     1       1.125   2.952  21.023  0.00  0.00    +0.000 C 
ATOM     30  C   UNL     1       2.099   4.127  21.119  0.00  0.00    +0.000 C 
ATOM     31  C   UNL     1       2.207   4.863  19.772  0.00  0.00    +0.000 C 
ATOM     32  C   UNL     1       3.111   6.100  19.872  0.00  0.00    +0.000 C 
ENDBRANCH  22  23
ENDBRANCH  20  22
ENDBRANCH   5  20
BRANCH   3  33
ATOM     33  C   UNL     1      -0.053   9.061  22.634  0.00  0.00    +0.000 C 
BRANCH  33  34
ATOM     34  O   UNL     1       0.077  10.194  23.481  0.00  0.00    +0.000 OA
ATOM     35  H   UNL     1       0.540  10.880  22.971  0.00  0.00    +0.000 HD
ENDBRANCH  33  34
ENDBRANCH   3  33
TORSDOF 8
ENDMDL
MODEL 5
REMARK VINA RESULT:      -8.5      1.498      2.278
REMARK  Name = 
REMARK  8 active torsions:
REMARK  status: ('A' for Active; 'I' for Inactive)
REMARK    1  A    between atoms: C_2  and  O_3
REMARK    2  A    between atoms: C_2  and  C_14
REMARK    3  A    between atoms: O_3  and  C_4
REMARK    4  A    between atoms: C_16  and  C_17
REMARK    5  A    between atoms: C_17  and  O_18
REMARK    6  A    between atoms: C_20  and  C_21
REMARK    7  A    between atoms: C_21  and  O_23
REMARK    8  A    between atoms: O_23  and  C_24
REMARK                            x       y       z     vdW  Elec       q    Type
REMARK                         _______ _______ _______ _____ _____    ______ ____
ROOT
ATOM      1  C   UNL     1      -0.196  10.889  20.528  0.00  0.00    +0.000 A 
ATOM      2  C   UNL     1      -1.289  11.284  19.739  0.00  0.00    +0.000 A 
ATOM      3  C   UNL     1      -1.387  10.898  18.392  0.00  0.00    +0.000 A 
ATOM      4  C   UNL     1      -0.348  10.142  17.828  0.00  0.00    +0.000 A 
ATOM      5  C   UNL     1       0.771   9.773  18.585  0.00  0.00    +0.000 A 
ATOM      6  C   UNL     1       0.839  10.141  19.944  0.00  0.00    +0.000 A 
ENDROOT
BRANCH   1   8
ATOM      7  O   UNL     1       0.132  10.483  22.863  0.00  0.00    +0.000 OA
ATOM      8  C   UNL     1      -0.242  11.241  21.987  0.00  0.00    +0.000 C 
BRANCH   8   9
ATOM      9  O   UNL     1      -0.703  12.502  22.175  0.00  0.00    +0.000 OA
BRANCH   9  10
ATOM     10  C   UNL     1      -1.515  12.740  23.355  0.00  0.00    +0.000 C 
ATOM     11  C   UNL     1      -2.926  12.164  23.180  0.00  0.00    +0.000 C 
ATOM     12  C   UNL     1      -3.693  12.837  22.038  0.00  0.00    +0.000 C 
ATOM     13  C   UNL     1      -3.720  14.367  22.186  0.00  0.00    +0.000 C 
ATOM     14  C   UNL     1      -4.430  15.023  20.994  0.00  0.00    +0.000 C 
ATOM     15  C   UNL     1      -4.415  16.547  21.102  0.00  0.00    +0.000 C 
ATOM     16  C   UNL     1      -2.997  17.086  21.264  0.00  0.00    +0.000 C 
ATOM     17  C   UNL     1      -2.295  16.452  22.464  0.00  0.00    +0.000 C 
ATOM     18  C   UNL     1      -2.291  14.924  22.349  0.00  0.00    +0.000 C 
ATOM     19  C   UNL     1      -1.602  14.261  23.552  0.00  0.00    +0.000 C 
ENDBRANCH   9  10
ENDBRANCH   8   9
ENDBRANCH   1   8
BRANCH   5  20
ATOM     20  C   UNL     1       1.872   8.956  17.987  0.00  0.00    +0.000 C 
ATOM     21  O   UNL     1       2.770   9.448  17.321  0.00  0.00    +0.000 OA
BRANCH  20  22
ATOM     22  O   UNL     1       1.739   7.633  18.293  0.00  0.00    +0.000 OA
BRANCH  22  23
ATOM     23  C   UNL     1       2.757   7.064  19.150  0.00  0.00    +0.000 C 
ATOM     24  C   UNL     1       3.895   6.470  18.315  0.00  0.00    +0.000 C 
ATOM     25  C   UNL     1       3.495   5.203  17.556  0.00  0.00    +0.000 C 
ATOM     26  C   UNL     1       2.859   4.146  18.464  0.00  0.00    +0.000 C 
ATOM     27  C   UNL     1       2.351   2.947  17.644  0.00  0.00    +0.000 C 
ATOM     28  C   UNL     1       1.747   1.865  18.538  0.00  0.00    +0.000 C 
ATOM     29  C   UNL     1       0.683   2.422  19.480  0.00  0.00    +0.000 C 
ATOM     30  C   UNL     1       1.186   3.639  20.258  0.00  0.00    +0.000 C 
ATOM     31  C   UNL     1       1.703   4.727  19.300  0.00  0.00    +0.000 C 
ATOM     32  C   UNL     1       2.130   5.993  20.058  0.00  0.00    +0.000 C 
ENDBRANCH  22  23
ENDBRANCH  20  22
ENDBRANCH   5  20
BRANCH   3  33
ATOM     33  C   UNL     1      -2.656  11.163  17.620  0.00  0.00    +0.000 C 
BRANCH  33  34
ATOM     34  O   UNL     1      -2.389  11.575  16.287  0.00  0.00    +0.000 OA
ATOM     35  H   UNL     1      -3.235  11.563  15.809  0.00  0.00    +0.000 HD
ENDBRANCH  33  34
ENDBRANCH   3  33
TORSDOF 8
ENDMDL
MODEL 6
REMARK VINA RESULT:      -8.4      2.904      5.100
REMARK  Name = 
REMARK  8 active torsions:
REMARK  status: ('A' for Active; 'I' for Inactive)
REMARK    1  A    between atoms: C_2  and  O_3
REMARK    2  A    between atoms: C_2  and  C_14
REMARK    3  A    between atoms: O_3  and  C_4
REMARK    4  A    between atoms: C_16  and  C_17
REMARK    5  A    between atoms: C_17  and  O_18
REMARK    6  A    between atoms: C_20  and  C_21
REMARK    7  A    between atoms: C_21  and  O_23
REMARK    8  A    between atoms: O_23  and  C_24
REMARK                            x       y       z     vdW  Elec       q    Type
REMARK                         _______ _______ _______ _____ _____    ______ ____
ROOT
ATOM      1  C   UNL     1      -0.200  11.335  20.213  0.00  0.00    +0.000 A 
ATOM      2  C   UNL     1      -1.439  11.413  19.558  0.00  0.00    +0.000 A 
ATOM      3  C   UNL     1      -1.678  10.698  18.372  0.00  0.00    +0.000 A 
ATOM      4  C   UNL     1      -0.638   9.932  17.823  0.00  0.00    +0.000 A 
ATOM      5  C   UNL     1       0.619   9.874  18.437  0.00  0.00    +0.000 A 
ATOM      6  C   UNL     1       0.832  10.571  19.644  0.00  0.00    +0.000 A 
ENDROOT
BRANCH   1   8
ATOM      7  O   UNL     1      -0.859  11.842  22.457  0.00  0.00    +0.000 OA
ATOM      8  C   UNL     1      -0.081  12.031  21.539  0.00  0.00    +0.000 C 
BRANCH   8   9
ATOM      9  O   UNL     1       1.009  12.835  21.576  0.00  0.00    +0.000 OA
BRANCH   9  10
ATOM     10  C   UNL     1       0.772  14.263  21.698  0.00  0.00    +0.000 C 
ATOM     11  C   UNL     1       0.001  14.800  20.486  0.00  0.00    +0.000 C 
ATOM     12  C   UNL     1       0.787  14.647  19.180  0.00  0.00    +0.000 C 
ATOM     13  C   UNL     1       2.192  15.264  19.278  0.00  0.00    +0.000 C 
ATOM     14  C   UNL     1       2.986  15.034  17.985  0.00  0.00    +0.000 C 
ATOM     15  C   UNL     1       4.403  15.595  18.090  0.00  0.00    +0.000 C 
ATOM     16  C   UNL     1       5.143  15.032  19.299  0.00  0.00    +0.000 C 
ATOM     17  C   UNL     1       4.367  15.280  20.591  0.00  0.00    +0.000 C 
ATOM     18  C   UNL     1       2.951  14.701  20.496  0.00  0.00    +0.000 C 
ATOM     19  C   UNL     1       2.144  14.950  21.780  0.00  0.00    +0.000 C 
ENDBRANCH   9  10
ENDBRANCH   8   9
ENDBRANCH   1   8
BRANCH   5  20
ATOM     20  C   UNL     1       1.723   9.048  17.859  0.00  0.00    +0.000 C 
ATOM     21  O   UNL     1       2.601   9.522  17.156  0.00  0.00    +0.000 OA
BRANCH  20  22
ATOM     22  O   UNL     1       1.617   7.738  18.229  0.00  0.00    +0.000 OA
BRANCH  22  23
ATOM     23  C   UNL     1       2.663   7.223  19.086  0.00  0.00    +0.000 C 
ATOM     24  C   UNL     1       3.807   6.641  18.251  0.00  0.00    +0.000 C 
ATOM     25  C   UNL     1       3.436   5.343  17.532  0.00  0.00    +0.000 C 
ATOM     26  C   UNL     1       2.844   4.292  18.476  0.00  0.00    +0.000 C 
ATOM     27  C   UNL     1       2.362   3.056  17.696  0.00  0.00    +0.000 C 
ATOM     28  C   UNL     1       1.803   1.982  18.627  0.00  0.00    +0.000 C 
ATOM     29  C   UNL     1       0.735   2.531  19.569  0.00  0.00    +0.000 C 
ATOM     30  C   UNL     1       1.211   3.784  20.306  0.00  0.00    +0.000 C 
ATOM     31  C   UNL     1       1.683   4.861  19.313  0.00  0.00    +0.000 C 
ATOM     32  C   UNL     1       2.080   6.158  20.031  0.00  0.00    +0.000 C 
ENDBRANCH  22  23
ENDBRANCH  20  22
ENDBRANCH   5  20
BRANCH   3  33
ATOM     33  C   UNL     1      -3.070  10.637  17.793  0.00  0.00    +0.000 C 
BRANCH  33  34
ATOM     34  O   UNL     1      -3.545  11.923  17.421  0.00  0.00    +0.000 OA
ATOM     35  H   UNL     1      -2.772  12.512  17.382  0.00  0.00    +0.000 HD
ENDBRANCH  33  34
ENDBRANCH   3  33
TORSDOF 8
ENDMDL
MODEL 7
REMARK VINA RESULT:      -8.4      1.092      2.456
REMARK  Name = 
REMARK  8 active torsions:
REMARK  status: ('A' for Active; 'I' for Inactive)
REMARK    1  A    between atoms: C_2  and  O_3
REMARK    2  A    between atoms: C_2  and  C_14
REMARK    3  A    between atoms: O_3  and  C_4
REMARK    4  A    between atoms: C_16  and  C_17
REMARK    5  A    between atoms: C_17  and  O_18
REMARK    6  A    between atoms: C_20  and  C_21
REMARK    7  A    between atoms: C_21  and  O_23
REMARK    8  A    between atoms: O_23  and  C_24
REMARK                            x       y       z     vdW  Elec       q    Type
REMARK                         _______ _______ _______ _____ _____    ______ ____
ROOT
ATOM      1  C   UNL     1      -1.234  10.796  19.368  0.00  0.00    +0.000 A 
ATOM      2  C   UNL     1      -1.092  10.543  20.742  0.00  0.00    +0.000 A 
ATOM      3  C   UNL     1       0.021   9.842  21.238  0.00  0.00    +0.000 A 
ATOM      4  C   UNL     1       0.974   9.357  20.331  0.00  0.00    +0.000 A 
ATOM      5  C   UNL     1       0.831   9.562  18.953  0.00  0.00    +0.000 A 
ATOM      6  C   UNL     1      -0.274  10.294  18.474  0.00  0.00    +0.000 A 
ENDROOT
BRANCH   1   8
ATOM      7  O   UNL     1      -2.603  11.956  17.785  0.00  0.00    +0.000 OA
ATOM      8  C   UNL     1      -2.387  11.661  18.946  0.00  0.00    +0.000 C 
BRANCH   8   9
ATOM      9  O   UNL     1      -3.151  12.014  20.009  0.00  0.00    +0.000 OA
BRANCH   9  10
ATOM     10  C   UNL     1      -3.300  13.435  20.272  0.00  0.00    +0.000 C 
ATOM     11  C   UNL     1      -2.587  13.834  21.570  0.00  0.00    +0.000 C 
ATOM     12  C   UNL     1      -3.186  13.146  22.800  0.00  0.00    +0.000 C 
ATOM     13  C   UNL     1      -4.705  13.362  22.897  0.00  0.00    +0.000 C 
ATOM     14  C   UNL     1      -5.293  12.604  24.095  0.00  0.00    +0.000 C 
ATOM     15  C   UNL     1      -6.811  12.766  24.172  0.00  0.00    +0.000 C 
ATOM     16  C   UNL     1      -7.487  12.351  22.869  0.00  0.00    +0.000 C 
ATOM     17  C   UNL     1      -6.920  13.120  21.678  0.00  0.00    +0.000 C 
ATOM     18  C   UNL     1      -5.401  12.944  21.587  0.00  0.00    +0.000 C 
ATOM     19  C   UNL     1      -4.804  13.721  20.403  0.00  0.00    +0.000 C 
ENDBRANCH   9  10
ENDBRANCH   8   9
ENDBRANCH   1   8
BRANCH   5  20
ATOM     20  C   UNL     1       1.854   9.056  17.986  0.00  0.00    +0.000 C 
ATOM     21  O   UNL     1       2.519   9.799  17.282  0.00  0.00    +0.000 OA
BRANCH  20  22
ATOM     22  O   UNL     1       1.942   7.694  18.016  0.00  0.00    +0.000 OA
BRANCH  22  23
ATOM     23  C   UNL     1       2.992   7.133  18.840  0.00  0.00    +0.000 C 
ATOM     24  C   UNL     1       4.044   6.436  17.973  0.00  0.00    +0.000 C 
ATOM     25  C   UNL     1       3.541   5.144  17.327  0.00  0.00    +0.000 C 
ATOM     26  C   UNL     1       2.925   4.177  18.342  0.00  0.00    +0.000 C 
ATOM     27  C   UNL     1       2.313   2.953  17.638  0.00  0.00    +0.000 C 
ATOM     28  C   UNL     1       1.727   1.958  18.638  0.00  0.00    +0.000 C 
ATOM     29  C   UNL     1       0.753   2.621  19.610  0.00  0.00    +0.000 C 
ATOM     30  C   UNL     1       1.358   3.860  20.271  0.00  0.00    +0.000 C 
ATOM     31  C   UNL     1       1.854   4.862  19.212  0.00  0.00    +0.000 C 
ATOM     32  C   UNL     1       2.384   6.151  19.856  0.00  0.00    +0.000 C 
ENDBRANCH  22  23
ENDBRANCH  20  22
ENDBRANCH   5  20
BRANCH   3  33
ATOM     33  C   UNL     1       0.255   9.752  22.726  0.00  0.00    +0.000 C 
BRANCH  33  34
ATOM     34  O   UNL     1       1.612   9.465  23.032  0.00  0.00    +0.000 OA
ATOM     35  H   UNL     1       2.111  10.291  22.918  0.00  0.00    +0.000 HD
ENDBRANCH  33  34
ENDBRANCH   3  33
TORSDOF 8
ENDMDL
MODEL 8
REMARK VINA RESULT:      -8.4      2.617      9.658
REMARK  Name = 
REMARK  8 active torsions:
REMARK  status: ('A' for Active; 'I' for Inactive)
REMARK    1  A    between atoms: C_2  and  O_3
REMARK    2  A    between atoms: C_2  and  C_14
REMARK    3  A    between atoms: O_3  and  C_4
REMARK    4  A    between atoms: C_16  and  C_17
REMARK    5  A    between atoms: C_17  and  O_18
REMARK    6  A    between atoms: C_20  and  C_21
REMARK    7  A    between atoms: C_21  and  O_23
REMARK    8  A    between atoms: O_23  and  C_24
REMARK                            x       y       z     vdW  Elec       q    Type
REMARK                         _______ _______ _______ _____ _____    ______ ____
ROOT
ATOM      1  C   UNL     1       0.754   9.588  18.516  0.00  0.00    +0.000 A 
ATOM      2  C   UNL     1      -0.440   9.753  17.795  0.00  0.00    +0.000 A 
ATOM      3  C   UNL     1      -1.477  10.563  18.287  0.00  0.00    +0.000 A 
ATOM      4  C   UNL     1      -1.322  11.174  19.540  0.00  0.00    +0.000 A 
ATOM      5  C   UNL     1      -0.157  10.989  20.295  0.00  0.00    +0.000 A 
ATOM      6  C   UNL     1       0.888  10.200  19.773  0.00  0.00    +0.000 A 
ENDROOT
BRANCH   1   8
ATOM      7  O   UNL     1       2.674   9.322  17.112  0.00  0.00    +0.000 OA
ATOM      8  C   UNL     1       1.853   8.809  17.852  0.00  0.00    +0.000 C 
BRANCH   8   9
ATOM      9  O   UNL     1       1.825   7.506  18.222  0.00  0.00    +0.000 OA
BRANCH   9  10
ATOM     10  C   UNL     1       2.900   7.040  19.081  0.00  0.00    +0.000 C 
ATOM     11  C   UNL     1       4.053   6.455  18.254  0.00  0.00    +0.000 C 
ATOM     12  C   UNL     1       3.629   5.219  17.455  0.00  0.00    +0.000 C 
ATOM     13  C   UNL     1       2.975   4.153  18.349  0.00  0.00    +0.000 C 
ATOM     14  C   UNL     1       2.494   2.957  17.516  0.00  0.00    +0.000 C 
ATOM     15  C   UNL     1       1.792   1.914  18.385  0.00  0.00    +0.000 C 
ATOM     16  C   UNL     1       0.646   2.527  19.184  0.00  0.00    +0.000 C 
ATOM     17  C   UNL     1       1.125   3.703  20.031  0.00  0.00    +0.000 C 
ATOM     18  C   UNL     1       1.813   4.760  19.160  0.00  0.00    +0.000 C 
ATOM     19  C   UNL     1       2.318   5.949  19.993  0.00  0.00    +0.000 C 
ENDBRANCH   9  10
ENDBRANCH   8   9
ENDBRANCH   1   8
BRANCH   5  20
ATOM     20  C   UNL     1       0.014  11.652  21.625  0.00  0.00    +0.000 C 
ATOM     21  O   UNL     1      -0.431  11.178  22.658  0.00  0.00    +0.000 OA
BRANCH  20  22
ATOM     22  O   UNL     1       0.725  12.812  21.520  0.00  0.00    +0.000 OA
BRANCH  22  23
ATOM     23  C   UNL     1       0.160  13.975  22.169  0.00  0.00    +0.000 C 
ATOM     24  C   UNL     1      -1.258  14.245  21.657  0.00  0.00    +0.000 C 
ATOM     25  C   UNL     1      -1.299  14.743  20.212  0.00  0.00    +0.000 C 
ATOM     26  C   UNL     1      -0.383  15.948  19.975  0.00  0.00    +0.000 C 
ATOM     27  C   UNL     1      -0.350  16.334  18.486  0.00  0.00    +0.000 C 
ATOM     28  C   UNL     1       0.529  17.558  18.238  0.00  0.00    +0.000 C 
ATOM     29  C   UNL     1       1.927  17.396  18.831  0.00  0.00    +0.000 C 
ATOM     30  C   UNL     1       1.881  16.971  20.299  0.00  0.00    +0.000 C 
ATOM     31  C   UNL     1       1.051  15.686  20.474  0.00  0.00    +0.000 C 
ATOM     32  C   UNL     1       1.068  15.194  21.928  0.00  0.00    +0.000 C 
ENDBRANCH  22  23
ENDBRANCH  20  22
ENDBRANCH   5  20
BRANCH   3  33
ATOM     33  C   UNL     1      -2.664  10.885  17.412  0.00  0.00    +0.000 C 
BRANCH  33  34
ATOM     34  O   UNL     1      -2.309  11.736  16.331  0.00  0.00    +0.000 OA
ATOM     35  H   UNL     1      -3.131  11.963  15.864  0.00  0.00    +0.000 HD
ENDBRANCH  33  34
ENDBRANCH   3  33
TORSDOF 8
ENDMDL
MODEL 9
REMARK VINA RESULT:      -8.4      1.339      9.900
REMARK  Name = 
REMARK  8 active torsions:
REMARK  status: ('A' for Active; 'I' for Inactive)
REMARK    1  A    between atoms: C_2  and  O_3
REMARK    2  A    between atoms: C_2  and  C_14
REMARK    3  A    between atoms: O_3  and  C_4
REMARK    4  A    between atoms: C_16  and  C_17
REMARK    5  A    between atoms: C_17  and  O_18
REMARK    6  A    between atoms: C_20  and  C_21
REMARK    7  A    between atoms: C_21  and  O_23
REMARK    8  A    between atoms: O_23  and  C_24
REMARK                            x       y       z     vdW  Elec       q    Type
REMARK                         _______ _______ _______ _____ _____    ______ ____
ROOT
ATOM      1  C   UNL     1       0.537   9.644  18.497  0.00  0.00    +0.000 A 
ATOM      2  C   UNL     1      -0.579   9.922  17.692  0.00  0.00    +0.000 A 
ATOM      3  C   UNL     1      -1.657  10.677  18.184  0.00  0.00    +0.000 A 
ATOM      4  C   UNL     1      -1.623  11.117  19.516  0.00  0.00    +0.000 A 
ATOM      5  C   UNL     1      -0.539  10.815  20.349  0.00  0.00    +0.000 A 
ATOM      6  C   UNL     1       0.549  10.084  19.830  0.00  0.00    +0.000 A 
ENDROOT
BRANCH   1   8
ATOM      7  O   UNL     1       2.503   9.515  17.138  0.00  0.00    +0.000 OA
ATOM      8  C   UNL     1       1.694   8.942  17.846  0.00  0.00    +0.000 C 
BRANCH   8   9
ATOM      9  O   UNL     1       1.728   7.630  18.187  0.00  0.00    +0.000 OA
BRANCH   9  10
ATOM     10  C   UNL     1       2.812   7.202  19.054  0.00  0.00    +0.000 C 
ATOM     11  C   UNL     1       3.973   6.618  18.240  0.00  0.00    +0.000 C 
ATOM     12  C   UNL     1       3.568   5.357  17.470  0.00  0.00    +0.000 C 
ATOM     13  C   UNL     1       2.933   4.301  18.390  0.00  0.00    +0.000 C 
ATOM     14  C   UNL     1       2.470   3.078  17.586  0.00  0.00    +0.000 C 
ATOM     15  C   UNL     1       1.787   2.045  18.480  0.00  0.00    +0.000 C 
ATOM     16  C   UNL     1       0.632   2.657  19.267  0.00  0.00    +0.000 C 
ATOM     17  C   UNL     1       1.094   3.861  20.086  0.00  0.00    +0.000 C 
ATOM     18  C   UNL     1       1.762   4.908  19.189  0.00  0.00    +0.000 C 
ATOM     19  C   UNL     1       2.249   6.124  19.993  0.00  0.00    +0.000 C 
ENDBRANCH   9  10
ENDBRANCH   8   9
ENDBRANCH   1   8
BRANCH   5  20
ATOM     20  C   UNL     1      -0.497  11.295  21.765  0.00  0.00    +0.000 C 
ATOM     21  O   UNL     1       0.270  10.831  22.594  0.00  0.00    +0.000 OA
BRANCH  20  22
ATOM     22  O   UNL     1      -1.396  12.298  21.982  0.00  0.00    +0.000 OA
BRANCH  22  23
ATOM     23  C   UNL     1      -1.711  12.595  23.362  0.00  0.00    +0.000 C 
ATOM     24  C   UNL     1      -3.159  12.211  23.680  0.00  0.00    +0.000 C 
ATOM     25  C   UNL     1      -4.191  13.117  23.007  0.00  0.00    +0.000 C 
ATOM     26  C   UNL     1      -3.936  14.604  23.276  0.00  0.00    +0.000 C 
ATOM     27  C   UNL     1      -4.912  15.485  22.476  0.00  0.00    +0.000 C 
ATOM     28  C   UNL     1      -4.697  16.970  22.761  0.00  0.00    +0.000 C 
ATOM     29  C   UNL     1      -3.241  17.390  22.573  0.00  0.00    +0.000 C 
ATOM     30  C   UNL     1      -2.279  16.481  23.339  0.00  0.00    +0.000 C 
ATOM     31  C   UNL     1      -2.486  15.007  22.947  0.00  0.00    +0.000 C 
ATOM     32  C   UNL     1      -1.470  14.088  23.639  0.00  0.00    +0.000 C 
ENDBRANCH  22  23
ENDBRANCH  20  22
ENDBRANCH   5  20
BRANCH   3  33
ATOM     33  C   UNL     1      -2.751  11.130  17.249  0.00  0.00    +0.000 C 
BRANCH  33  34
ATOM     34  O   UNL     1      -2.229  11.633  16.027  0.00  0.00    +0.000 OA
ATOM     35  H   UNL     1      -2.928  11.538  15.358  0.00  0.00    +0.000 HD
ENDBRANCH  33  34
ENDBRANCH   3  33
TORSDOF 8
ENDMDL
