MODEL 1
REMARK VINA RESULT:      -6.6      0.000      0.000
REMARK  Name = 
REMARK  9 active torsions:
REMARK  status: ('A' for Active; 'I' for Inactive)
REMARK    1  A    between atoms: C_1  and  O_2
REMARK    2  A    between atoms: O_2  and  C_3
REMARK    3  A    between atoms: C_3  and  C_5
REMARK    4  A    between atoms: C_5  and  C_6
REMARK    5  A    between atoms: C_6  and  N_7
REMARK    6  A    between atoms: N_7  and  S_8
REMARK    7  A    between atoms: S_8  and  N_11
REMARK    8  A    between atoms: N_11  and  C_12
REMARK    9  A    between atoms: C_12  and  C_13
REMARK                            x       y       z     vdW  Elec       q    Type
REMARK                         _______ _______ _______ _____ _____    ______ ____
ROOT
ATOM      1  S   UNL     1       7.306   5.075  18.004  0.00  0.00    +0.000 S 
ATOM      2  O   UNL     1       8.334   4.125  17.656  0.00  0.00    +0.000 OA
ATOM      3  O   UNL     1       7.566   6.321  18.670  0.00  0.00    +0.000 OA
ENDROOT
BRANCH   1   4
ATOM      4  N   UNL     1       6.469   5.419  16.572  0.00  0.00    +0.000 NA
ATOM      5  H   UNL     1       5.609   5.914  16.803  0.00  0.00    +0.000 HD
BRANCH   4   6
ATOM      6  C   UNL     1       6.147   4.154  15.837  0.00  0.00    +0.000 C 
BRANCH   6   7
ATOM      7  C   UNL     1       5.800   4.413  14.378  0.00  0.00    +0.000 C 
BRANCH   7   8
ATOM      8  C   UNL     1       7.069   4.785  13.646  0.00  0.00    +0.000 C 
ATOM      9  O   UNL     1       7.980   5.443  14.125  0.00  0.00    +0.000 OA
BRANCH   8  11
ATOM     10  C   UNL     1       6.067   3.263  12.194  0.00  0.00    +0.000 C 
ATOM     11  O   UNL     1       7.066   4.269  12.387  0.00  0.00    +0.000 OA
ENDBRANCH   8  11
ENDBRANCH   7   8
ENDBRANCH   6   7
ENDBRANCH   4   6
ENDBRANCH   1   4
BRANCH   1  12
ATOM     12  N   UNL     1       6.088   4.285  18.808  0.00  0.00    +0.000 NA
ATOM     13  H   UNL     1       6.371   3.459  19.327  0.00  0.00    +0.000 HD
BRANCH  12  14
ATOM     14  C   UNL     1       4.978   5.105  19.284  0.00  0.00    +0.000 C 
BRANCH  14  15
ATOM     15  C   UNL     1       3.617   4.462  19.184  0.00  0.00    +0.000 A 
ATOM     16  C   UNL     1       2.863   4.296  20.359  0.00  0.00    +0.000 A 
ATOM     17  C   UNL     1       1.579   3.755  20.317  0.00  0.00    +0.000 A 
ATOM     18  C   UNL     1       1.022   3.384  19.097  0.00  0.00    +0.000 A 
ATOM     19  C   UNL     1       1.744   3.571  17.918  0.00  0.00    +0.000 A 
ATOM     20  C   UNL     1       3.030   4.117  17.958  0.00  0.00    +0.000 A 
ENDBRANCH  14  15
ENDBRANCH  12  14
ENDBRANCH   1  12
TORSDOF 8
ENDMDL
MODEL 2
REMARK VINA RESULT:      -6.4      2.218      3.127
REMARK  Name = 
REMARK  9 active torsions:
REMARK  status: ('A' for Active; 'I' for Inactive)
REMARK    1  A    between atoms: C_1  and  O_2
REMARK    2  A    between atoms: O_2  and  C_3
REMARK    3  A    between atoms: C_3  and  C_5
REMARK    4  A    between atoms: C_5  and  C_6
REMARK    5  A    between atoms: C_6  and  N_7
REMARK    6  A    between atoms: N_7  and  S_8
REMARK    7  A    between atoms: S_8  and  N_11
REMARK    8  A    between atoms: N_11  and  C_12
REMARK    9  A    between atoms: C_12  and  C_13
REMARK                            x       y       z     vdW  Elec       q    Type
REMARK                         _______ _______ _______ _____ _____    ______ ____
ROOT
ATOM      1  S   UNL     1       5.284   4.173  18.518  0.00  0.00    +0.000 S 
ATOM      2  O   UNL     1       4.789   5.290  19.285  0.00  0.00    +0.000 OA
ATOM      3  O   UNL     1       4.729   3.763  17.258  0.00  0.00    +0.000 OA
ENDROOT
BRANCH   1   4
ATOM      4  N   UNL     1       6.940   4.448  18.289  0.00  0.00    +0.000 NA
ATOM      5  H   UNL     1       7.465   3.692  18.731  0.00  0.00    +0.000 HD
BRANCH   4   6
ATOM      6  C   UNL     1       7.340   5.762  18.886  0.00  0.00    +0.000 C 
BRANCH   6   7
ATOM      7  C   UNL     1       7.664   6.798  17.819  0.00  0.00    +0.000 C 
BRANCH   7   8
ATOM      8  C   UNL     1       6.917   6.432  16.557  0.00  0.00    +0.000 C 
ATOM      9  O   UNL     1       5.802   6.839  16.268  0.00  0.00    +0.000 OA
BRANCH   8  11
ATOM     10  C   UNL     1       6.906   4.956  14.754  0.00  0.00    +0.000 C 
ATOM     11  O   UNL     1       7.666   5.605  15.778  0.00  0.00    +0.000 OA
ENDBRANCH   8  11
ENDBRANCH   7   8
ENDBRANCH   6   7
ENDBRANCH   4   6
ENDBRANCH   1   4
BRANCH   1  12
ATOM     12  N   UNL     1       5.398   2.845  19.507  0.00  0.00    +0.000 NA
ATOM     13  H   UNL     1       5.859   3.002  20.398  0.00  0.00    +0.000 HD
BRANCH  12  14
ATOM     14  C   UNL     1       4.330   1.855  19.399  0.00  0.00    +0.000 C 
BRANCH  14  15
ATOM     15  C   UNL     1       2.938   2.385  19.641  0.00  0.00    +0.000 A 
ATOM     16  C   UNL     1       1.964   2.196  18.645  0.00  0.00    +0.000 A 
ATOM     17  C   UNL     1       0.650   2.620  18.838  0.00  0.00    +0.000 A 
ATOM     18  C   UNL     1       0.285   3.226  20.035  0.00  0.00    +0.000 A 
ATOM     19  C   UNL     1       1.232   3.392  21.046  0.00  0.00    +0.000 A 
ATOM     20  C   UNL     1       2.549   2.965  20.857  0.00  0.00    +0.000 A 
ENDBRANCH  14  15
ENDBRANCH  12  14
ENDBRANCH   1  12
TORSDOF 8
ENDMDL
MODEL 3
REMARK VINA RESULT:      -6.4      1.729      2.127
REMARK  Name = 
REMARK  9 active torsions:
REMARK  status: ('A' for Active; 'I' for Inactive)
REMARK    1  A    between atoms: C_1  and  O_2
REMARK    2  A    between atoms: O_2  and  C_3
REMARK    3  A    between atoms: C_3  and  C_5
REMARK    4  A    between atoms: C_5  and  C_6
REMARK    5  A    between atoms: C_6  and  N_7
REMARK    6  A    between atoms: N_7  and  S_8
REMARK    7  A    between atoms: S_8  and  N_11
REMARK    8  A    between atoms: N_11  and  C_12
REMARK    9  A    between atoms: C_12  and  C_13
REMARK                            x       y       z     vdW  Elec       q    Type
REMARK                         _______ _______ _______ _____ _____    ______ ____
ROOT
ATOM      1  S   UNL     1       5.862   4.732  19.034  0.00  0.00    +0.000 S 
ATOM      2  O   UNL     1       5.365   3.492  19.578  0.00  0.00    +0.000 OA
ATOM      3  O   UNL     1       7.133   5.302  19.382  0.00  0.00    +0.000 OA
ENDROOT
BRANCH   1   4
ATOM      4  N   UNL     1       5.811   4.569  17.349  0.00  0.00    +0.000 NA
ATOM      5  H   UNL     1       5.295   3.722  17.114  0.00  0.00    +0.000 HD
BRANCH   4   6
ATOM      6  C   UNL     1       7.198   4.492  16.789  0.00  0.00    +0.000 C 
BRANCH   6   7
ATOM      7  C   UNL     1       7.263   4.996  15.354  0.00  0.00    +0.000 C 
BRANCH   7   8
ATOM      8  C   UNL     1       5.862   5.344  14.907  0.00  0.00    +0.000 C 
ATOM      9  O   UNL     1       5.313   6.416  15.115  0.00  0.00    +0.000 OA
BRANCH   8  11
ATOM     10  C   UNL     1       6.183   3.736  13.252  0.00  0.00    +0.000 C 
ATOM     11  O   UNL     1       5.303   4.308  14.225  0.00  0.00    +0.000 OA
ENDBRANCH   8  11
ENDBRANCH   7   8
ENDBRANCH   6   7
ENDBRANCH   4   6
ENDBRANCH   1   4
BRANCH   1  12
ATOM     12  N   UNL     1       4.693   5.900  19.195  0.00  0.00    +0.000 NA
ATOM     13  H   UNL     1       5.030   6.823  19.452  0.00  0.00    +0.000 HD
BRANCH  12  14
ATOM     14  C   UNL     1       3.507   5.760  18.355  0.00  0.00    +0.000 C 
BRANCH  14  15
ATOM     15  C   UNL     1       2.471   4.791  18.865  0.00  0.00    +0.000 A 
ATOM     16  C   UNL     1       2.040   3.757  18.015  0.00  0.00    +0.000 A 
ATOM     17  C   UNL     1       1.122   2.803  18.453  0.00  0.00    +0.000 A 
ATOM     18  C   UNL     1       0.630   2.860  19.753  0.00  0.00    +0.000 A 
ATOM     19  C   UNL     1       1.071   3.861  20.619  0.00  0.00    +0.000 A 
ATOM     20  C   UNL     1       1.994   4.815  20.183  0.00  0.00    +0.000 A 
ENDBRANCH  14  15
ENDBRANCH  12  14
ENDBRANCH   1  12
TORSDOF 8
ENDMDL
MODEL 4
REMARK VINA RESULT:      -6.4      1.440      1.968
REMARK  Name = 
REMARK  9 active torsions:
REMARK  status: ('A' for Active; 'I' for Inactive)
REMARK    1  A    between atoms: C_1  and  O_2
REMARK    2  A    between atoms: O_2  and  C_3
REMARK    3  A    between atoms: C_3  and  C_5
REMARK    4  A    between atoms: C_5  and  C_6
REMARK    5  A    between atoms: C_6  and  N_7
REMARK    6  A    between atoms: N_7  and  S_8
REMARK    7  A    between atoms: S_8  and  N_11
REMARK    8  A    between atoms: N_11  and  C_12
REMARK    9  A    between atoms: C_12  and  C_13
REMARK                            x       y       z     vdW  Elec       q    Type
REMARK                         _______ _______ _______ _____ _____    ______ ____
ROOT
ATOM      1  S   UNL     1       5.958   5.114  18.825  0.00  0.00    +0.000 S 
ATOM      2  O   UNL     1       6.993   5.341  19.803  0.00  0.00    +0.000 OA
ATOM      3  O   UNL     1       4.733   5.861  18.772  0.00  0.00    +0.000 OA
ENDROOT
BRANCH   1   4
ATOM      4  N   UNL     1       6.702   5.232  17.307  0.00  0.00    +0.000 NA
ATOM      5  H   UNL     1       7.587   5.726  17.411  0.00  0.00    +0.000 HD
BRANCH   4   6
ATOM      6  C   UNL     1       5.817   5.966  16.347  0.00  0.00    +0.000 C 
BRANCH   6   7
ATOM      7  C   UNL     1       5.512   5.140  15.106  0.00  0.00    +0.000 C 
BRANCH   7   8
ATOM      8  C   UNL     1       6.807   4.895  14.366  0.00  0.00    +0.000 C 
ATOM      9  O   UNL     1       7.876   5.413  14.648  0.00  0.00    +0.000 OA
BRANCH   8  11
ATOM     10  C   UNL     1       5.244   3.693  13.124  0.00  0.00    +0.000 C 
ATOM     11  O   UNL     1       6.621   4.003  13.355  0.00  0.00    +0.000 OA
ENDBRANCH   8  11
ENDBRANCH   7   8
ENDBRANCH   6   7
ENDBRANCH   4   6
ENDBRANCH   1   4
BRANCH   1  12
ATOM     12  N   UNL     1       5.596   3.495  18.787  0.00  0.00    +0.000 NA
ATOM     13  H   UNL     1       6.031   2.932  19.512  0.00  0.00    +0.000 HD
BRANCH  12  14
ATOM     14  C   UNL     1       4.281   3.130  18.267  0.00  0.00    +0.000 C 
BRANCH  14  15
ATOM     15  C   UNL     1       3.179   3.071  19.295  0.00  0.00    +0.000 A 
ATOM     16  C   UNL     1       1.852   3.256  18.870  0.00  0.00    +0.000 A 
ATOM     17  C   UNL     1       0.791   3.161  19.770  0.00  0.00    +0.000 A 
ATOM     18  C   UNL     1       1.039   2.865  21.107  0.00  0.00    +0.000 A 
ATOM     19  C   UNL     1       2.347   2.647  21.538  0.00  0.00    +0.000 A 
ATOM     20  C   UNL     1       3.412   2.739  20.638  0.00  0.00    +0.000 A 
ENDBRANCH  14  15
ENDBRANCH  12  14
ENDBRANCH   1  12
TORSDOF 8
ENDMDL
MODEL 5
REMARK VINA RESULT:      -6.4      3.382      4.115
REMARK  Name = 
REMARK  9 active torsions:
REMARK  status: ('A' for Active; 'I' for Inactive)
REMARK    1  A    between atoms: C_1  and  O_2
REMARK    2  A    between atoms: O_2  and  C_3
REMARK    3  A    between atoms: C_3  and  C_5
REMARK    4  A    between atoms: C_5  and  C_6
REMARK    5  A    between atoms: C_6  and  N_7
REMARK    6  A    between atoms: N_7  and  S_8
REMARK    7  A    between atoms: S_8  and  N_11
REMARK    8  A    between atoms: N_11  and  C_12
REMARK    9  A    between atoms: C_12  and  C_13
REMARK                            x       y       z     vdW  Elec       q    Type
REMARK                         _______ _______ _______ _____ _____    ______ ____
ROOT
ATOM      1  S   UNL     1       4.474   3.922  18.827  0.00  0.00    +0.000 S 
ATOM      2  O   UNL     1       3.765   3.859  17.573  0.00  0.00    +0.000 OA
ATOM      3  O   UNL     1       4.390   2.908  19.841  0.00  0.00    +0.000 OA
ENDROOT
BRANCH   1   4
ATOM      4  N   UNL     1       6.110   4.132  18.440  0.00  0.00    +0.000 NA
ATOM      5  H   UNL     1       6.622   3.290  18.699  0.00  0.00    +0.000 HD
BRANCH   4   6
ATOM      6  C   UNL     1       6.672   5.314  19.169  0.00  0.00    +0.000 C 
BRANCH   6   7
ATOM      7  C   UNL     1       7.555   6.171  18.272  0.00  0.00    +0.000 C 
BRANCH   7   8
ATOM      8  C   UNL     1       6.998   6.121  16.868  0.00  0.00    +0.000 C 
ATOM      9  O   UNL     1       6.073   6.808  16.463  0.00  0.00    +0.000 OA
BRANCH   8  11
ATOM     10  C   UNL     1       6.921   4.718  15.009  0.00  0.00    +0.000 C 
ATOM     11  O   UNL     1       7.683   5.221  16.111  0.00  0.00    +0.000 OA
ENDBRANCH   8  11
ENDBRANCH   7   8
ENDBRANCH   6   7
ENDBRANCH   4   6
ENDBRANCH   1   4
BRANCH   1  12
ATOM     12  N   UNL     1       4.203   5.401  19.529  0.00  0.00    +0.000 NA
ATOM     13  H   UNL     1       4.831   6.145  19.237  0.00  0.00    +0.000 HD
BRANCH  12  14
ATOM     14  C   UNL     1       2.824   5.708  19.897  0.00  0.00    +0.000 C 
BRANCH  14  15
ATOM     15  C   UNL     1       2.343   7.080  19.493  0.00  0.00    +0.000 A 
ATOM     16  C   UNL     1       2.587   7.518  18.179  0.00  0.00    +0.000 A 
ATOM     17  C   UNL     1       2.119   8.755  17.738  0.00  0.00    +0.000 A 
ATOM     18  C   UNL     1       1.389   9.568  18.598  0.00  0.00    +0.000 A 
ATOM     19  C   UNL     1       1.112   9.135  19.895  0.00  0.00    +0.000 A 
ATOM     20  C   UNL     1       1.576   7.894  20.338  0.00  0.00    +0.000 A 
ENDBRANCH  14  15
ENDBRANCH  12  14
ENDBRANCH   1  12
TORSDOF 8
ENDMDL
MODEL 6
REMARK VINA RESULT:      -6.3      1.257      1.852
REMARK  Name = 
REMARK  9 active torsions:
REMARK  status: ('A' for Active; 'I' for Inactive)
REMARK    1  A    between atoms: C_1  and  O_2
REMARK    2  A    between atoms: O_2  and  C_3
REMARK    3  A    between atoms: C_3  and  C_5
REMARK    4  A    between atoms: C_5  and  C_6
REMARK    5  A    between atoms: C_6  and  N_7
REMARK    6  A    between atoms: N_7  and  S_8
REMARK    7  A    between atoms: S_8  and  N_11
REMARK    8  A    between atoms: N_11  and  C_12
REMARK    9  A    between atoms: C_12  and  C_13
REMARK                            x       y       z     vdW  Elec       q    Type
REMARK                         _______ _______ _______ _____ _____    ______ ____
ROOT
ATOM      1  S   UNL     1       7.202   5.018  18.863  0.00  0.00    +0.000 S 
ATOM      2  O   UNL     1       8.082   4.354  17.933  0.00  0.00    +0.000 OA
ATOM      3  O   UNL     1       7.615   5.483  20.158  0.00  0.00    +0.000 OA
ENDROOT
BRANCH   1   4
ATOM      4  N   UNL     1       6.531   6.332  18.031  0.00  0.00    +0.000 NA
ATOM      5  H   UNL     1       5.517   6.308  18.138  0.00  0.00    +0.000 HD
BRANCH   4   6
ATOM      6  C   UNL     1       6.891   6.270  16.578  0.00  0.00    +0.000 C 
BRANCH   6   7
ATOM      7  C   UNL     1       5.801   5.607  15.748  0.00  0.00    +0.000 C 
BRANCH   7   8
ATOM      8  C   UNL     1       6.457   4.864  14.607  0.00  0.00    +0.000 C 
ATOM      9  O   UNL     1       5.990   3.874  14.064  0.00  0.00    +0.000 OA
BRANCH   8  11
ATOM     10  C   UNL     1       7.998   5.214  12.895  0.00  0.00    +0.000 C 
ATOM     11  O   UNL     1       7.628   5.461  14.254  0.00  0.00    +0.000 OA
ENDBRANCH   8  11
ENDBRANCH   7   8
ENDBRANCH   6   7
ENDBRANCH   4   6
ENDBRANCH   1   4
BRANCH   1  12
ATOM     12  N   UNL     1       5.820   4.116  19.037  0.00  0.00    +0.000 NA
ATOM     13  H   UNL     1       5.953   3.176  19.400  0.00  0.00    +0.000 HD
BRANCH  12  14
ATOM     14  C   UNL     1       4.593   4.849  19.338  0.00  0.00    +0.000 C 
BRANCH  14  15
ATOM     15  C   UNL     1       3.317   4.065  19.154  0.00  0.00    +0.000 A 
ATOM     16  C   UNL     1       3.268   3.087  18.145  0.00  0.00    +0.000 A 
ATOM     17  C   UNL     1       2.132   2.300  17.965  0.00  0.00    +0.000 A 
ATOM     18  C   UNL     1       1.031   2.467  18.800  0.00  0.00    +0.000 A 
ATOM     19  C   UNL     1       1.076   3.411  19.825  0.00  0.00    +0.000 A 
ATOM     20  C   UNL     1       2.215   4.199  20.010  0.00  0.00    +0.000 A 
ENDBRANCH  14  15
ENDBRANCH  12  14
ENDBRANCH   1  12
TORSDOF 8
ENDMDL
MODEL 7
REMARK VINA RESULT:      -6.2      1.471      1.714
REMARK  Name = 
REMARK  9 active torsions:
REMARK  status: ('A' for Active; 'I' for Inactive)
REMARK    1  A    between atoms: C_1  and  O_2
REMARK    2  A    between atoms: O_2  and  C_3
REMARK    3  A    between atoms: C_3  and  C_5
REMARK    4  A    between atoms: C_5  and  C_6
REMARK    5  A    between atoms: C_6  and  N_7
REMARK    6  A    between atoms: N_7  and  S_8
REMARK    7  A    between atoms: S_8  and  N_11
REMARK    8  A    between atoms: N_11  and  C_12
REMARK    9  A    between atoms: C_12  and  C_13
REMARK                            x       y       z     vdW  Elec       q    Type
REMARK                         _______ _______ _______ _____ _____    ______ ____
ROOT
ATOM      1  S   UNL     1       7.180   6.645  17.386  0.00  0.00    +0.000 S 
ATOM      2  O   UNL     1       7.815   5.821  18.386  0.00  0.00    +0.000 OA
ATOM      3  O   UNL     1       7.489   8.032  17.184  0.00  0.00    +0.000 OA
ENDROOT
BRANCH   1   4
ATOM      4  N   UNL     1       7.388   5.846  15.907  0.00  0.00    +0.000 NA
ATOM      5  H   UNL     1       6.840   6.325  15.193  0.00  0.00    +0.000 HD
BRANCH   4   6
ATOM      6  C   UNL     1       6.946   4.419  16.016  0.00  0.00    +0.000 C 
BRANCH   6   7
ATOM      7  C   UNL     1       5.772   4.113  15.097  0.00  0.00    +0.000 C 
BRANCH   7   8
ATOM      8  C   UNL     1       6.258   4.172  13.667  0.00  0.00    +0.000 C 
ATOM      9  O   UNL     1       7.324   4.656  13.315  0.00  0.00    +0.000 OA
BRANCH   8  11
ATOM     10  C   UNL     1       5.961   2.741  11.852  0.00  0.00    +0.000 C 
ATOM     11  O   UNL     1       5.355   3.594  12.828  0.00  0.00    +0.000 OA
ENDBRANCH   8  11
ENDBRANCH   7   8
ENDBRANCH   6   7
ENDBRANCH   4   6
ENDBRANCH   1   4
BRANCH   1  12
ATOM     12  N   UNL     1       5.534   6.480  17.516  0.00  0.00    +0.000 NA
ATOM     13  H   UNL     1       5.031   6.399  16.636  0.00  0.00    +0.000 HD
BRANCH  12  14
ATOM     14  C   UNL     1       5.035   5.800  18.708  0.00  0.00    +0.000 C 
BRANCH  14  15
ATOM     15  C   UNL     1       4.024   4.711  18.450  0.00  0.00    +0.000 A 
ATOM     16  C   UNL     1       2.745   5.075  17.993  0.00  0.00    +0.000 A 
ATOM     17  C   UNL     1       1.790   4.106  17.690  0.00  0.00    +0.000 A 
ATOM     18  C   UNL     1       2.102   2.757  17.826  0.00  0.00    +0.000 A 
ATOM     19  C   UNL     1       3.377   2.378  18.248  0.00  0.00    +0.000 A 
ATOM     20  C   UNL     1       4.337   3.348  18.548  0.00  0.00    +0.000 A 
ENDBRANCH  14  15
ENDBRANCH  12  14
ENDBRANCH   1  12
TORSDOF 8
ENDMDL
MODEL 8
REMARK VINA RESULT:      -6.2      1.434      1.603
REMARK  Name = 
REMARK  9 active torsions:
REMARK  status: ('A' for Active; 'I' for Inactive)
REMARK    1  A    between atoms: C_1  and  O_2
REMARK    2  A    between atoms: O_2  and  C_3
REMARK    3  A    between atoms: C_3  and  C_5
REMARK    4  A    between atoms: C_5  and  C_6
REMARK    5  A    between atoms: C_6  and  N_7
REMARK    6  A    between atoms: N_7  and  S_8
REMARK    7  A    between atoms: S_8  and  N_11
REMARK    8  A    between atoms: N_11  and  C_12
REMARK    9  A    between atoms: C_12  and  C_13
REMARK                            x       y       z     vdW  Elec       q    Type
REMARK                         _______ _______ _______ _____ _____    ______ ____
ROOT
ATOM      1  S   UNL     1       5.923   5.087  19.035  0.00  0.00    +0.000 S 
ATOM      2  O   UNL     1       7.055   5.256  19.913  0.00  0.00    +0.000 OA
ATOM      3  O   UNL     1       4.689   5.808  19.178  0.00  0.00    +0.000 OA
ENDROOT
BRANCH   1   4
ATOM      4  N   UNL     1       6.496   5.347  17.462  0.00  0.00    +0.000 NA
ATOM      5  H   UNL     1       7.038   6.210  17.447  0.00  0.00    +0.000 HD
BRANCH   4   6
ATOM      6  C   UNL     1       5.353   5.444  16.499  0.00  0.00    +0.000 C 
BRANCH   6   7
ATOM      7  C   UNL     1       5.281   4.238  15.574  0.00  0.00    +0.000 C 
BRANCH   7   8
ATOM      8  C   UNL     1       6.110   4.530  14.345  0.00  0.00    +0.000 C 
ATOM      9  O   UNL     1       7.079   5.273  14.322  0.00  0.00    +0.000 OA
BRANCH   8  11
ATOM     10  C   UNL     1       6.646   3.581  12.285  0.00  0.00    +0.000 C 
ATOM     11  O   UNL     1       5.642   3.834  13.273  0.00  0.00    +0.000 OA
ENDBRANCH   8  11
ENDBRANCH   7   8
ENDBRANCH   6   7
ENDBRANCH   4   6
ENDBRANCH   1   4
BRANCH   1  12
ATOM     12  N   UNL     1       5.581   3.469  18.900  0.00  0.00    +0.000 NA
ATOM     13  H   UNL     1       6.276   2.914  18.408  0.00  0.00    +0.000 HD
BRANCH  12  14
ATOM     14  C   UNL     1       4.799   2.872  19.978  0.00  0.00    +0.000 C 
BRANCH  14  15
ATOM     15  C   UNL     1       3.304   2.904  19.779  0.00  0.00    +0.000 A 
ATOM     16  C   UNL     1       2.475   2.961  20.913  0.00  0.00    +0.000 A 
ATOM     17  C   UNL     1       1.089   3.044  20.785  0.00  0.00    +0.000 A 
ATOM     18  C   UNL     1       0.510   3.086  19.521  0.00  0.00    +0.000 A 
ATOM     19  C   UNL     1       1.320   3.063  18.386  0.00  0.00    +0.000 A 
ATOM     20  C   UNL     1       2.710   2.983  18.512  0.00  0.00    +0.000 A 
ENDBRANCH  14  15
ENDBRANCH  12  14
ENDBRANCH   1  12
TORSDOF 8
ENDMDL
MODEL 9
REMARK VINA RESULT:      -6.1      1.286      1.850
REMARK  Name = 
REMARK  9 active torsions:
REMARK  status: ('A' for Active; 'I' for Inactive)
REMARK    1  A    between atoms: C_1  and  O_2
REMARK    2  A    between atoms: O_2  and  C_3
REMARK    3  A    between atoms: C_3  and  C_5
REMARK    4  A    between atoms: C_5  and  C_6
REMARK    5  A    between atoms: C_6  and  N_7
REMARK    6  A    between atoms: N_7  and  S_8
REMARK    7  A    between atoms: S_8  and  N_11
REMARK    8  A    between atoms: N_11  and  C_12
REMARK    9  A    between atoms: C_12  and  C_13
REMARK                            x       y       z     vdW  Elec       q    Type
REMARK                         _______ _______ _______ _____ _____    ______ ____
ROOT
ATOM      1  S   UNL     1       6.996   5.591  18.817  0.00  0.00    +0.000 S 
ATOM      2  O   UNL     1       7.935   5.360  19.887  0.00  0.00    +0.000 OA
ATOM      3  O   UNL     1       6.952   6.800  18.044  0.00  0.00    +0.000 OA
ENDROOT
BRANCH   1   4
ATOM      4  N   UNL     1       7.169   4.294  17.742  0.00  0.00    +0.000 NA
ATOM      5  H   UNL     1       8.076   3.855  17.896  0.00  0.00    +0.000 HD
BRANCH   4   6
ATOM      6  C   UNL     1       7.067   4.771  16.325  0.00  0.00    +0.000 C 
BRANCH   6   7
ATOM      7  C   UNL     1       6.101   3.928  15.506  0.00  0.00    +0.000 C 
BRANCH   7   8
ATOM      8  C   UNL     1       6.337   4.219  14.042  0.00  0.00    +0.000 C 
ATOM      9  O   UNL     1       5.744   3.677  13.122  0.00  0.00    +0.000 OA
BRANCH   8  11
ATOM     10  C   UNL     1       7.860   5.206  12.581  0.00  0.00    +0.000 C 
ATOM     11  O   UNL     1       7.286   5.184  13.891  0.00  0.00    +0.000 OA
ENDBRANCH   8  11
ENDBRANCH   7   8
ENDBRANCH   6   7
ENDBRANCH   4   6
ENDBRANCH   1   4
BRANCH   1  12
ATOM     12  N   UNL     1       5.465   5.249  19.358  0.00  0.00    +0.000 NA
ATOM     13  H   UNL     1       4.785   5.996  19.248  0.00  0.00    +0.000 HD
BRANCH  12  14
ATOM     14  C   UNL     1       5.039   3.855  19.281  0.00  0.00    +0.000 C 
BRANCH  14  15
ATOM     15  C   UNL     1       3.557   3.647  19.092  0.00  0.00    +0.000 A 
ATOM     16  C   UNL     1       2.930   4.242  17.984  0.00  0.00    +0.000 A 
ATOM     17  C   UNL     1       1.573   4.040  17.733  0.00  0.00    +0.000 A 
ATOM     18  C   UNL     1       0.825   3.228  18.580  0.00  0.00    +0.000 A 
ATOM     19  C   UNL     1       1.438   2.605  19.666  0.00  0.00    +0.000 A 
ATOM     20  C   UNL     1       2.799   2.803  19.917  0.00  0.00    +0.000 A 
ENDBRANCH  14  15
ENDBRANCH  12  14
ENDBRANCH   1  12
TORSDOF 8
ENDMDL
