MODEL 1
REMARK VINA RESULT:      -7.5      0.000      0.000
REMARK  Name = 
REMARK  6 active torsions:
REMARK  status: ('A' for Active; 'I' for Inactive)
REMARK    1  A    between atoms: C_1  and  C_2
REMARK    2  A    between atoms: C_2  and  O_3
REMARK    3  A    between atoms: O_3  and  C_4
REMARK    4  A    between atoms: C_7  and  C_8
REMARK    5  A    between atoms: C_17  and  O_18
REMARK    6  A    between atoms: O_18  and  C_19
REMARK                            x       y       z     vdW  Elec       q    Type
REMARK                         _______ _______ _______ _____ _____    ______ ____
ROOT
ATOM      1  C   UNL     1       6.319   5.329  15.714  0.00  0.00    +0.000 A 
ATOM      2  C   UNL     1       5.402   4.264  15.628  0.00  0.00    +0.000 A 
ATOM      3  C   UNL     1       4.323   4.164  16.507  0.00  0.00    +0.000 A 
ATOM      4  C   UNL     1       4.173   5.105  17.519  0.00  0.00    +0.000 A 
ATOM      5  C   UNL     1       5.147   6.093  17.685  0.00  0.00    +0.000 A 
ATOM      6  C   UNL     1       6.222   6.222  16.792  0.00  0.00    +0.000 A 
ENDROOT
BRANCH   4   7
ATOM      7  C   UNL     1       2.987   5.111  18.370  0.00  0.00    +0.000 C 
ATOM      8  C   UNL     1       2.819   4.299  19.423  0.00  0.00    +0.000 C 
ATOM      9  S   UNL     1       1.359   4.261  20.355  0.00  0.00    +0.000 S 
ATOM     10  C   UNL     1       1.942   2.964  21.376  0.00  0.00    +0.000 C 
ATOM     11  O   UNL     1       1.308   2.478  22.297  0.00  0.00    +0.000 OA
ATOM     12  N   UNL     1       3.189   2.604  20.993  0.00  0.00    +0.000 N 
ATOM     13  C   UNL     1       3.776   3.296  19.974  0.00  0.00    +0.000 C 
ATOM     14  O   UNL     1       4.925   3.111  19.609  0.00  0.00    +0.000 OA
ATOM     15  H   UNL     1       3.697   1.894  21.493  0.00  0.00    +0.000 HD
ENDBRANCH   4   7
BRANCH   6  16
ATOM     16  O   UNL     1       7.021   7.280  17.128  0.00  0.00    +0.000 OA
ATOM     17  C   UNL     1       7.895   7.174  18.237  0.00  0.00    +0.000 C 
ENDBRANCH   6  16
BRANCH   1  18
ATOM     18  O   UNL     1       7.291   5.509  14.761  0.00  0.00    +0.000 OA
BRANCH  18  20
ATOM     19  C   UNL     1       7.891   5.304  12.433  0.00  0.00    +0.000 C 
ATOM     20  C   UNL     1       7.161   4.672  13.603  0.00  0.00    +0.000 C 
ENDBRANCH  18  20
ENDBRANCH   1  18
TORSDOF 4
ENDMDL
MODEL 2
REMARK VINA RESULT:      -6.8      1.242      2.760
REMARK  Name = 
REMARK  6 active torsions:
REMARK  status: ('A' for Active; 'I' for Inactive)
REMARK    1  A    between atoms: C_1  and  C_2
REMARK    2  A    between atoms: C_2  and  O_3
REMARK    3  A    between atoms: O_3  and  C_4
REMARK    4  A    between atoms: C_7  and  C_8
REMARK    5  A    between atoms: C_17  and  O_18
REMARK    6  A    between atoms: O_18  and  C_19
REMARK                            x       y       z     vdW  Elec       q    Type
REMARK                         _______ _______ _______ _____ _____    ______ ____
ROOT
ATOM      1  C   UNL     1       5.670   6.194  16.622  0.00  0.00    +0.000 A 
ATOM      2  C   UNL     1       4.649   6.963  17.213  0.00  0.00    +0.000 A 
ATOM      3  C   UNL     1       3.470   6.374  17.671  0.00  0.00    +0.000 A 
ATOM      4  C   UNL     1       3.273   5.009  17.498  0.00  0.00    +0.000 A 
ATOM      5  C   UNL     1       4.228   4.262  16.803  0.00  0.00    +0.000 A 
ATOM      6  C   UNL     1       5.430   4.835  16.362  0.00  0.00    +0.000 A 
ENDROOT
BRANCH   4   7
ATOM      7  C   UNL     1       2.116   4.337  18.082  0.00  0.00    +0.000 C 
ATOM      8  C   UNL     1       2.072   3.888  19.344  0.00  0.00    +0.000 C 
ATOM      9  S   UNL     1       0.723   3.006  19.979  0.00  0.00    +0.000 S 
ATOM     10  C   UNL     1       1.500   2.764  21.530  0.00  0.00    +0.000 C 
ATOM     11  O   UNL     1       0.993   2.172  22.467  0.00  0.00    +0.000 OA
ATOM     12  N   UNL     1       2.726   3.340  21.523  0.00  0.00    +0.000 N 
ATOM     13  C   UNL     1       3.115   4.015  20.404  0.00  0.00    +0.000 C 
ATOM     14  O   UNL     1       4.159   4.641  20.324  0.00  0.00    +0.000 OA
ATOM     15  H   UNL     1       3.303   3.331  22.346  0.00  0.00    +0.000 HD
ENDBRANCH   4   7
BRANCH   6  16
ATOM     16  O   UNL     1       6.225   3.908  15.746  0.00  0.00    +0.000 OA
ATOM     17  C   UNL     1       6.407   3.963  14.343  0.00  0.00    +0.000 C 
ENDBRANCH   6  16
BRANCH   1  18
ATOM     18  O   UNL     1       6.886   6.747  16.308  0.00  0.00    +0.000 OA
BRANCH  18  20
ATOM     19  C   UNL     1       7.892   6.621  18.497  0.00  0.00    +0.000 C 
ATOM     20  C   UNL     1       7.479   7.529  17.354  0.00  0.00    +0.000 C 
ENDBRANCH  18  20
ENDBRANCH   1  18
TORSDOF 4
ENDMDL
MODEL 3
REMARK VINA RESULT:      -6.4      3.392      3.990
REMARK  Name = 
REMARK  6 active torsions:
REMARK  status: ('A' for Active; 'I' for Inactive)
REMARK    1  A    between atoms: C_1  and  C_2
REMARK    2  A    between atoms: C_2  and  O_3
REMARK    3  A    between atoms: O_3  and  C_4
REMARK    4  A    between atoms: C_7  and  C_8
REMARK    5  A    between atoms: C_17  and  O_18
REMARK    6  A    between atoms: O_18  and  C_19
REMARK                            x       y       z     vdW  Elec       q    Type
REMARK                         _______ _______ _______ _____ _____    ______ ____
ROOT
ATOM      1  C   UNL     1       5.195   4.129  17.144  0.00  0.00    +0.000 A 
ATOM      2  C   UNL     1       3.798   4.002  17.028  0.00  0.00    +0.000 A 
ATOM      3  C   UNL     1       2.938   4.580  17.963  0.00  0.00    +0.000 A 
ATOM      4  C   UNL     1       3.466   5.255  19.057  0.00  0.00    +0.000 A 
ATOM      5  C   UNL     1       4.852   5.279  19.242  0.00  0.00    +0.000 A 
ATOM      6  C   UNL     1       5.729   4.726  18.298  0.00  0.00    +0.000 A 
ENDROOT
BRANCH   4   7
ATOM      7  C   UNL     1       2.602   5.986  19.979  0.00  0.00    +0.000 C 
ATOM      8  C   UNL     1       2.129   7.217  19.741  0.00  0.00    +0.000 C 
ATOM      9  S   UNL     1       1.187   8.100  20.897  0.00  0.00    +0.000 S 
ATOM     10  C   UNL     1       1.091   9.513  19.869  0.00  0.00    +0.000 C 
ATOM     11  O   UNL     1       0.498  10.537  20.164  0.00  0.00    +0.000 OA
ATOM     12  N   UNL     1       1.758   9.286  18.713  0.00  0.00    +0.000 N 
ATOM     13  C   UNL     1       2.318   8.057  18.522  0.00  0.00    +0.000 C 
ATOM     14  O   UNL     1       2.864   7.720  17.485  0.00  0.00    +0.000 OA
ATOM     15  H   UNL     1       1.777   9.979  17.984  0.00  0.00    +0.000 HD
ENDBRANCH   4   7
BRANCH   6  16
ATOM     16  O   UNL     1       7.033   4.904  18.669  0.00  0.00    +0.000 OA
ATOM     17  C   UNL     1       7.652   6.162  18.474  0.00  0.00    +0.000 C 
ENDBRANCH   6  16
BRANCH   1  18
ATOM     18  O   UNL     1       6.034   3.689  16.151  0.00  0.00    +0.000 OA
BRANCH  18  20
ATOM     19  C   UNL     1       6.169   3.938  13.755  0.00  0.00    +0.000 C 
ATOM     20  C   UNL     1       6.268   4.636  15.098  0.00  0.00    +0.000 C 
ENDBRANCH  18  20
ENDBRANCH   1  18
TORSDOF 4
ENDMDL
MODEL 4
REMARK VINA RESULT:      -6.3      3.276      7.034
REMARK  Name = 
REMARK  6 active torsions:
REMARK  status: ('A' for Active; 'I' for Inactive)
REMARK    1  A    between atoms: C_1  and  C_2
REMARK    2  A    between atoms: C_2  and  O_3
REMARK    3  A    between atoms: O_3  and  C_4
REMARK    4  A    between atoms: C_7  and  C_8
REMARK    5  A    between atoms: C_17  and  O_18
REMARK    6  A    between atoms: O_18  and  C_19
REMARK                            x       y       z     vdW  Elec       q    Type
REMARK                         _______ _______ _______ _____ _____    ______ ____
ROOT
ATOM      1  C   UNL     1       2.124   6.242  20.098  0.00  0.00    +0.000 A 
ATOM      2  C   UNL     1       2.445   7.052  18.993  0.00  0.00    +0.000 A 
ATOM      3  C   UNL     1       3.109   6.531  17.881  0.00  0.00    +0.000 A 
ATOM      4  C   UNL     1       3.506   5.199  17.881  0.00  0.00    +0.000 A 
ATOM      5  C   UNL     1       3.298   4.422  19.025  0.00  0.00    +0.000 A 
ATOM      6  C   UNL     1       2.608   4.925  20.138  0.00  0.00    +0.000 A 
ENDROOT
BRANCH   4   7
ATOM      7  C   UNL     1       4.079   4.585  16.687  0.00  0.00    +0.000 C 
ATOM      8  C   UNL     1       5.268   4.926  16.170  0.00  0.00    +0.000 C 
ATOM      9  S   UNL     1       5.878   4.251  14.696  0.00  0.00    +0.000 S 
ATOM     10  C   UNL     1       7.316   5.249  14.732  0.00  0.00    +0.000 C 
ATOM     11  O   UNL     1       8.199   5.210  13.892  0.00  0.00    +0.000 OA
ATOM     12  N   UNL     1       7.294   6.045  15.826  0.00  0.00    +0.000 N 
ATOM     13  C   UNL     1       6.252   5.917  16.696  0.00  0.00    +0.000 C 
ATOM     14  O   UNL     1       6.178   6.522  17.753  0.00  0.00    +0.000 OA
ATOM     15  H   UNL     1       8.061   6.662  16.030  0.00  0.00    +0.000 HD
ENDBRANCH   4   7
BRANCH   6  16
ATOM     16  O   UNL     1       2.490   3.977  21.117  0.00  0.00    +0.000 OA
ATOM     17  C   UNL     1       1.374   3.105  21.116  0.00  0.00    +0.000 C 
ENDBRANCH   6  16
BRANCH   1  18
ATOM     18  O   UNL     1       1.343   6.715  21.124  0.00  0.00    +0.000 OA
BRANCH  18  20
ATOM     19  C   UNL     1      -0.182   8.496  21.693  0.00  0.00    +0.000 C 
ATOM     20  C   UNL     1       1.192   8.142  21.154  0.00  0.00    +0.000 C 
ENDBRANCH  18  20
ENDBRANCH   1  18
TORSDOF 4
ENDMDL
MODEL 5
REMARK VINA RESULT:      -6.2      2.144      3.590
REMARK  Name = 
REMARK  6 active torsions:
REMARK  status: ('A' for Active; 'I' for Inactive)
REMARK    1  A    between atoms: C_1  and  C_2
REMARK    2  A    between atoms: C_2  and  O_3
REMARK    3  A    between atoms: O_3  and  C_4
REMARK    4  A    between atoms: C_7  and  C_8
REMARK    5  A    between atoms: C_17  and  O_18
REMARK    6  A    between atoms: O_18  and  C_19
REMARK                            x       y       z     vdW  Elec       q    Type
REMARK                         _______ _______ _______ _____ _____    ______ ____
ROOT
ATOM      1  C   UNL     1       7.340   6.593  17.451  0.00  0.00    +0.000 A 
ATOM      2  C   UNL     1       6.794   6.416  18.737  0.00  0.00    +0.000 A 
ATOM      3  C   UNL     1       5.957   5.338  19.027  0.00  0.00    +0.000 A 
ATOM      4  C   UNL     1       5.614   4.446  18.018  0.00  0.00    +0.000 A 
ATOM      5  C   UNL     1       6.053   4.685  16.713  0.00  0.00    +0.000 A 
ATOM      6  C   UNL     1       6.917   5.749  16.413  0.00  0.00    +0.000 A 
ENDROOT
BRANCH   4   7
ATOM      7  C   UNL     1       4.854   3.234  18.312  0.00  0.00    +0.000 C 
ATOM      8  C   UNL     1       3.515   3.185  18.352  0.00  0.00    +0.000 C 
ATOM      9  S   UNL     1       2.643   1.757  18.801  0.00  0.00    +0.000 S 
ATOM     10  C   UNL     1       1.092   2.560  18.679  0.00  0.00    +0.000 C 
ATOM     11  O   UNL     1       0.020   2.018  18.885  0.00  0.00    +0.000 OA
ATOM     12  N   UNL     1       1.273   3.851  18.314  0.00  0.00    +0.000 N 
ATOM     13  C   UNL     1       2.543   4.280  18.067  0.00  0.00    +0.000 C 
ATOM     14  O   UNL     1       2.808   5.396  17.650  0.00  0.00    +0.000 OA
ATOM     15  H   UNL     1       0.485   4.458  18.159  0.00  0.00    +0.000 HD
ENDBRANCH   4   7
BRANCH   6  16
ATOM     16  O   UNL     1       7.244   5.762  15.085  0.00  0.00    +0.000 OA
ATOM     17  C   UNL     1       6.817   4.703  14.248  0.00  0.00    +0.000 C 
ENDBRANCH   6  16
BRANCH   1  18
ATOM     18  O   UNL     1       8.277   7.566  17.204  0.00  0.00    +0.000 OA
BRANCH  18  20
ATOM     19  C   UNL     1       8.840   9.433  18.624  0.00  0.00    +0.000 C 
ATOM     20  C   UNL     1       7.881   8.892  17.581  0.00  0.00    +0.000 C 
ENDBRANCH  18  20
ENDBRANCH   1  18
TORSDOF 4
ENDMDL
MODEL 6
REMARK VINA RESULT:      -6.2      1.804      2.701
REMARK  Name = 
REMARK  6 active torsions:
REMARK  status: ('A' for Active; 'I' for Inactive)
REMARK    1  A    between atoms: C_1  and  C_2
REMARK    2  A    between atoms: C_2  and  O_3
REMARK    3  A    between atoms: O_3  and  C_4
REMARK    4  A    between atoms: C_7  and  C_8
REMARK    5  A    between atoms: C_17  and  O_18
REMARK    6  A    between atoms: O_18  and  C_19
REMARK                            x       y       z     vdW  Elec       q    Type
REMARK                         _______ _______ _______ _____ _____    ______ ____
ROOT
ATOM      1  C   UNL     1       5.667   6.754  16.841  0.00  0.00    +0.000 A 
ATOM      2  C   UNL     1       4.414   7.337  17.109  0.00  0.00    +0.000 A 
ATOM      3  C   UNL     1       3.308   6.554  17.448  0.00  0.00    +0.000 A 
ATOM      4  C   UNL     1       3.429   5.170  17.473  0.00  0.00    +0.000 A 
ATOM      5  C   UNL     1       4.637   4.581  17.089  0.00  0.00    +0.000 A 
ATOM      6  C   UNL     1       5.764   5.355  16.774  0.00  0.00    +0.000 A 
ENDROOT
BRANCH   4   7
ATOM      7  C   UNL     1       2.337   4.329  17.952  0.00  0.00    +0.000 C 
ATOM      8  C   UNL     1       2.183   3.961  19.232  0.00  0.00    +0.000 C 
ATOM      9  S   UNL     1       0.933   2.881  19.753  0.00  0.00    +0.000 S 
ATOM     10  C   UNL     1       1.497   2.890  21.411  0.00  0.00    +0.000 C 
ATOM     11  O   UNL     1       0.967   2.273  22.320  0.00  0.00    +0.000 OA
ATOM     12  N   UNL     1       2.586   3.686  21.520  0.00  0.00    +0.000 N 
ATOM     13  C   UNL     1       3.013   4.351  20.409  0.00  0.00    +0.000 C 
ATOM     14  O   UNL     1       3.929   5.157  20.416  0.00  0.00    +0.000 OA
ATOM     15  H   UNL     1       3.025   3.840  22.412  0.00  0.00    +0.000 HD
ENDBRANCH   4   7
BRANCH   6  16
ATOM     16  O   UNL     1       6.838   4.565  16.468  0.00  0.00    +0.000 OA
ATOM     17  C   UNL     1       7.819   4.304  17.455  0.00  0.00    +0.000 C 
ENDBRANCH   6  16
BRANCH   1  18
ATOM     18  O   UNL     1       6.785   7.528  16.655  0.00  0.00    +0.000 OA
BRANCH  18  20
ATOM     19  C   UNL     1       8.110   9.125  17.885  0.00  0.00    +0.000 C 
ATOM     20  C   UNL     1       7.601   7.697  17.823  0.00  0.00    +0.000 C 
ENDBRANCH  18  20
ENDBRANCH   1  18
TORSDOF 4
ENDMDL
MODEL 7
REMARK VINA RESULT:      -6.2      2.015      2.752
REMARK  Name = 
REMARK  6 active torsions:
REMARK  status: ('A' for Active; 'I' for Inactive)
REMARK    1  A    between atoms: C_1  and  C_2
REMARK    2  A    between atoms: C_2  and  O_3
REMARK    3  A    between atoms: O_3  and  C_4
REMARK    4  A    between atoms: C_7  and  C_8
REMARK    5  A    between atoms: C_17  and  O_18
REMARK    6  A    between atoms: O_18  and  C_19
REMARK                            x       y       z     vdW  Elec       q    Type
REMARK                         _______ _______ _______ _____ _____    ______ ____
ROOT
ATOM      1  C   UNL     1       6.745   6.455  16.980  0.00  0.00    +0.000 A 
ATOM      2  C   UNL     1       5.543   6.398  16.248  0.00  0.00    +0.000 A 
ATOM      3  C   UNL     1       4.604   5.390  16.473  0.00  0.00    +0.000 A 
ATOM      4  C   UNL     1       4.877   4.394  17.403  0.00  0.00    +0.000 A 
ATOM      5  C   UNL     1       6.119   4.376  18.043  0.00  0.00    +0.000 A 
ATOM      6  C   UNL     1       7.061   5.397  17.847  0.00  0.00    +0.000 A 
ENDROOT
BRANCH   4   7
ATOM      7  C   UNL     1       3.866   3.404  17.763  0.00  0.00    +0.000 C 
ATOM      8  C   UNL     1       3.138   3.455  18.887  0.00  0.00    +0.000 C 
ATOM      9  S   UNL     1       2.016   2.214  19.335  0.00  0.00    +0.000 S 
ATOM     10  C   UNL     1       1.623   2.995  20.851  0.00  0.00    +0.000 C 
ATOM     11  O   UNL     1       0.818   2.562  21.658  0.00  0.00    +0.000 OA
ATOM     12  N   UNL     1       2.333   4.141  20.974  0.00  0.00    +0.000 N 
ATOM     13  C   UNL     1       3.149   4.507  19.945  0.00  0.00    +0.000 C 
ATOM     14  O   UNL     1       3.766   5.560  19.916  0.00  0.00    +0.000 OA
ATOM     15  H   UNL     1       2.208   4.742  21.771  0.00  0.00    +0.000 HD
ENDBRANCH   4   7
BRANCH   6  16
ATOM     16  O   UNL     1       8.181   5.191  18.605  0.00  0.00    +0.000 OA
ATOM     17  C   UNL     1       8.193   5.602  19.960  0.00  0.00    +0.000 C 
ENDBRANCH   6  16
BRANCH   1  18
ATOM     18  O   UNL     1       7.598   7.524  16.864  0.00  0.00    +0.000 OA
BRANCH  18  20
ATOM     19  C   UNL     1       8.541   9.487  17.900  0.00  0.00    +0.000 C 
ATOM     20  C   UNL     1       7.305   8.625  17.736  0.00  0.00    +0.000 C 
ENDBRANCH  18  20
ENDBRANCH   1  18
TORSDOF 4
ENDMDL
MODEL 8
REMARK VINA RESULT:      -6.2      3.158      3.582
REMARK  Name = 
REMARK  6 active torsions:
REMARK  status: ('A' for Active; 'I' for Inactive)
REMARK    1  A    between atoms: C_1  and  C_2
REMARK    2  A    between atoms: C_2  and  O_3
REMARK    3  A    between atoms: O_3  and  C_4
REMARK    4  A    between atoms: C_7  and  C_8
REMARK    5  A    between atoms: C_17  and  O_18
REMARK    6  A    between atoms: O_18  and  C_19
REMARK                            x       y       z     vdW  Elec       q    Type
REMARK                         _______ _______ _______ _____ _____    ______ ____
ROOT
ATOM      1  C   UNL     1       5.889   5.042  15.672  0.00  0.00    +0.000 A 
ATOM      2  C   UNL     1       4.724   4.302  15.953  0.00  0.00    +0.000 A 
ATOM      3  C   UNL     1       3.948   4.573  17.081  0.00  0.00    +0.000 A 
ATOM      4  C   UNL     1       4.355   5.559  17.973  0.00  0.00    +0.000 A 
ATOM      5  C   UNL     1       5.573   6.211  17.763  0.00  0.00    +0.000 A 
ATOM      6  C   UNL     1       6.349   5.969  16.620  0.00  0.00    +0.000 A 
ENDROOT
BRANCH   4   7
ATOM      7  C   UNL     1       3.503   5.962  19.087  0.00  0.00    +0.000 C 
ATOM      8  C   UNL     1       2.737   7.062  19.082  0.00  0.00    +0.000 C 
ATOM      9  S   UNL     1       1.813   7.569  20.456  0.00  0.00    +0.000 S 
ATOM     10  C   UNL     1       1.248   9.018  19.652  0.00  0.00    +0.000 C 
ATOM     11  O   UNL     1       0.495   9.833  20.157  0.00  0.00    +0.000 OA
ATOM     12  N   UNL     1       1.763   9.077  18.402  0.00  0.00    +0.000 N 
ATOM     13  C   UNL     1       2.545   8.045  17.976  0.00  0.00    +0.000 C 
ATOM     14  O   UNL     1       2.986   7.958  16.842  0.00  0.00    +0.000 OA
ATOM     15  H   UNL     1       1.515   9.828  17.778  0.00  0.00    +0.000 HD
ENDBRANCH   4   7
BRANCH   6  16
ATOM     16  O   UNL     1       7.473   6.749  16.609  0.00  0.00    +0.000 OA
ATOM     17  C   UNL     1       7.686   7.684  17.651  0.00  0.00    +0.000 C 
ENDBRANCH   6  16
BRANCH   1  18
ATOM     18  O   UNL     1       6.569   4.876  14.491  0.00  0.00    +0.000 OA
BRANCH  18  20
ATOM     19  C   UNL     1       6.607   3.840  12.312  0.00  0.00    +0.000 C 
ATOM     20  C   UNL     1       6.250   3.673  13.777  0.00  0.00    +0.000 C 
ENDBRANCH  18  20
ENDBRANCH   1  18
TORSDOF 4
ENDMDL
MODEL 9
REMARK VINA RESULT:      -6.1      3.015      6.656
REMARK  Name = 
REMARK  6 active torsions:
REMARK  status: ('A' for Active; 'I' for Inactive)
REMARK    1  A    between atoms: C_1  and  C_2
REMARK    2  A    between atoms: C_2  and  O_3
REMARK    3  A    between atoms: O_3  and  C_4
REMARK    4  A    between atoms: C_7  and  C_8
REMARK    5  A    between atoms: C_17  and  O_18
REMARK    6  A    between atoms: O_18  and  C_19
REMARK                            x       y       z     vdW  Elec       q    Type
REMARK                         _______ _______ _______ _____ _____    ______ ____
ROOT
ATOM      1  C   UNL     1       3.147   4.139  19.872  0.00  0.00    +0.000 A 
ATOM      2  C   UNL     1       3.742   2.935  19.449  0.00  0.00    +0.000 A 
ATOM      3  C   UNL     1       4.171   2.762  18.132  0.00  0.00    +0.000 A 
ATOM      4  C   UNL     1       3.965   3.776  17.205  0.00  0.00    +0.000 A 
ATOM      5  C   UNL     1       3.266   4.924  17.589  0.00  0.00    +0.000 A 
ATOM      6  C   UNL     1       2.854   5.123  18.915  0.00  0.00    +0.000 A 
ENDROOT
BRANCH   4   7
ATOM      7  C   UNL     1       4.518   3.686  15.857  0.00  0.00    +0.000 C 
ATOM      8  C   UNL     1       5.647   4.297  15.471  0.00  0.00    +0.000 C 
ATOM      9  S   UNL     1       6.227   4.253  13.839  0.00  0.00    +0.000 S 
ATOM     10  C   UNL     1       7.584   5.298  14.201  0.00  0.00    +0.000 C 
ATOM     11  O   UNL     1       8.421   5.643  13.385  0.00  0.00    +0.000 OA
ATOM     12  N   UNL     1       7.560   5.643  15.510  0.00  0.00    +0.000 N 
ATOM     13  C   UNL     1       6.580   5.118  16.298  0.00  0.00    +0.000 C 
ATOM     14  O   UNL     1       6.517   5.295  17.503  0.00  0.00    +0.000 OA
ATOM     15  H   UNL     1       8.288   6.214  15.905  0.00  0.00    +0.000 HD
ENDBRANCH   4   7
BRANCH   6  16
ATOM     16  O   UNL     1       2.228   6.330  19.063  0.00  0.00    +0.000 OA
ATOM     17  C   UNL     1       2.519   7.385  18.165  0.00  0.00    +0.000 C 
ENDBRANCH   6  16
BRANCH   1  18
ATOM     18  O   UNL     1       2.862   4.365  21.196  0.00  0.00    +0.000 OA
BRANCH  18  20
ATOM     19  C   UNL     1       0.936   2.926  20.991  0.00  0.00    +0.000 C 
ATOM     20  C   UNL     1       2.132   3.312  21.841  0.00  0.00    +0.000 C 
ENDBRANCH  18  20
ENDBRANCH   1  18
TORSDOF 4
ENDMDL
