MODEL 1
REMARK VINA RESULT:      -7.4      0.000      0.000
REMARK  Name = 
REMARK  2 active torsions:
REMARK  status: ('A' for Active; 'I' for Inactive)
REMARK    1  A    between atoms: C_1  and  N_2
REMARK    2  A    between atoms: C_6  and  C_8
REMARK                            x       y       z     vdW  Elec       q    Type
REMARK                         _______ _______ _______ _____ _____    ______ ____
ROOT
ATOM      1  C   UNL     1       1.173   2.766  21.307  0.00  0.00    +0.000 C 
ATOM      2  N   UNL     1       1.465   3.773  20.286  0.00  0.00    +0.000 NA
ATOM      3  C   UNL     1       2.114   3.119  19.127  0.00  0.00    +0.000 C 
ATOM      4  C   UNL     1       2.252   4.027  17.895  0.00  0.00    +0.000 C 
ATOM      5  N   UNL     1       3.187   5.140  18.068  0.00  0.00    +0.000 N 
ATOM      6  C   UNL     1       4.559   4.908  17.900  0.00  0.00    +0.000 C 
ATOM      7  O   UNL     1       4.953   3.775  17.578  0.00  0.00    +0.000 OA
ATOM      8  C   UNL     1       2.670   6.264  18.746  0.00  0.00    +0.000 A 
ATOM      9  C   UNL     1       2.522   7.465  18.047  0.00  0.00    +0.000 A 
ATOM     10  C   UNL     1       1.931   8.566  18.667  0.00  0.00    +0.000 A 
ATOM     11  C   UNL     1       1.504   8.473  19.991  0.00  0.00    +0.000 A 
ATOM     12  C   UNL     1       1.634   7.270  20.686  0.00  0.00    +0.000 A 
ATOM     13  C   UNL     1       2.199   6.141  20.065  0.00  0.00    +0.000 A 
ATOM     14  C   UNL     1       2.310   4.842  20.837  0.00  0.00    +0.000 C 
ENDROOT
BRANCH   6  15
ATOM     15  C   UNL     1       5.556   6.090  18.089  0.00  0.00    +0.000 C 
ATOM     16  C   UNL     1       7.064   5.821  18.329  0.00  0.00    +0.000 C 
ATOM     17  C   UNL     1       7.396   6.965  17.356  0.00  0.00    +0.000 C 
ATOM     18  C   UNL     1       5.986   6.817  16.776  0.00  0.00    +0.000 C 
ENDBRANCH   6  15
TORSDOF 1
ENDMDL
MODEL 2
REMARK VINA RESULT:      -6.9      1.644      4.689
REMARK  Name = 
REMARK  2 active torsions:
REMARK  status: ('A' for Active; 'I' for Inactive)
REMARK    1  A    between atoms: C_1  and  N_2
REMARK    2  A    between atoms: C_6  and  C_8
REMARK                            x       y       z     vdW  Elec       q    Type
REMARK                         _______ _______ _______ _____ _____    ______ ____
ROOT
ATOM      1  C   UNL     1       7.058   5.540  15.874  0.00  0.00    +0.000 C 
ATOM      2  N   UNL     1       6.183   5.785  17.020  0.00  0.00    +0.000 NA
ATOM      3  C   UNL     1       6.515   4.830  18.102  0.00  0.00    +0.000 C 
ATOM      4  C   UNL     1       5.830   5.142  19.441  0.00  0.00    +0.000 C 
ATOM      5  N   UNL     1       4.377   4.961  19.431  0.00  0.00    +0.000 N 
ATOM      6  C   UNL     1       3.851   3.672  19.600  0.00  0.00    +0.000 C 
ATOM      7  O   UNL     1       4.621   2.716  19.785  0.00  0.00    +0.000 OA
ATOM      8  C   UNL     1       3.638   6.033  18.889  0.00  0.00    +0.000 A 
ATOM      9  C   UNL     1       2.800   6.769  19.731  0.00  0.00    +0.000 A 
ATOM     10  C   UNL     1       2.126   7.888  19.242  0.00  0.00    +0.000 A 
ATOM     11  C   UNL     1       2.277   8.263  17.908  0.00  0.00    +0.000 A 
ATOM     12  C   UNL     1       3.127   7.541  17.069  0.00  0.00    +0.000 A 
ATOM     13  C   UNL     1       3.838   6.428  17.555  0.00  0.00    +0.000 A 
ATOM     14  C   UNL     1       4.770   5.674  16.627  0.00  0.00    +0.000 C 
ENDROOT
BRANCH   6  15
ATOM     15  C   UNL     1       2.305   3.478  19.585  0.00  0.00    +0.000 C 
ATOM     16  C   UNL     1       1.520   3.501  18.247  0.00  0.00    +0.000 C 
ATOM     17  C   UNL     1       0.696   2.300  18.742  0.00  0.00    +0.000 C 
ATOM     18  C   UNL     1       1.816   2.004  19.743  0.00  0.00    +0.000 C 
ENDBRANCH   6  15
TORSDOF 1
ENDMDL
MODEL 3
REMARK VINA RESULT:      -6.8      1.064      1.125
REMARK  Name = 
REMARK  2 active torsions:
REMARK  status: ('A' for Active; 'I' for Inactive)
REMARK    1  A    between atoms: C_1  and  N_2
REMARK    2  A    between atoms: C_6  and  C_8
REMARK                            x       y       z     vdW  Elec       q    Type
REMARK                         _______ _______ _______ _____ _____    ______ ____
ROOT
ATOM      1  C   UNL     1       1.807   1.841  19.640  0.00  0.00    +0.000 C 
ATOM      2  N   UNL     1       2.128   3.116  18.997  0.00  0.00    +0.000 NA
ATOM      3  C   UNL     1       3.006   2.868  17.831  0.00  0.00    +0.000 C 
ATOM      4  C   UNL     1       3.217   4.099  16.936  0.00  0.00    +0.000 C 
ATOM      5  N   UNL     1       3.986   5.175  17.562  0.00  0.00    +0.000 N 
ATOM      6  C   UNL     1       5.386   5.094  17.573  0.00  0.00    +0.000 C 
ATOM      7  O   UNL     1       5.947   4.130  17.026  0.00  0.00    +0.000 OA
ATOM      8  C   UNL     1       3.254   6.019  18.423  0.00  0.00    +0.000 A 
ATOM      9  C   UNL     1       3.074   7.358  18.063  0.00  0.00    +0.000 A 
ATOM     10  C   UNL     1       2.281   8.192  18.851  0.00  0.00    +0.000 A 
ATOM     11  C   UNL     1       1.681   7.695  20.006  0.00  0.00    +0.000 A 
ATOM     12  C   UNL     1       1.844   6.354  20.359  0.00  0.00    +0.000 A 
ATOM     13  C   UNL     1       2.615   5.492  19.559  0.00  0.00    +0.000 A 
ATOM     14  C   UNL     1       2.760   4.036  19.955  0.00  0.00    +0.000 C 
ENDROOT
BRANCH   6  15
ATOM     15  C   UNL     1       6.205   6.236  18.243  0.00  0.00    +0.000 C 
ATOM     16  C   UNL     1       7.639   5.973  18.773  0.00  0.00    +0.000 C 
ATOM     17  C   UNL     1       8.079   7.320  18.177  0.00  0.00    +0.000 C 
ATOM     18  C   UNL     1       6.855   7.259  17.258  0.00  0.00    +0.000 C 
ENDBRANCH   6  15
TORSDOF 1
ENDMDL
MODEL 4
REMARK VINA RESULT:      -6.5      1.922      2.475
REMARK  Name = 
REMARK  2 active torsions:
REMARK  status: ('A' for Active; 'I' for Inactive)
REMARK    1  A    between atoms: C_1  and  N_2
REMARK    2  A    between atoms: C_6  and  C_8
REMARK                            x       y       z     vdW  Elec       q    Type
REMARK                         _______ _______ _______ _____ _____    ______ ____
ROOT
ATOM      1  C   UNL     1       3.385   1.745  18.205  0.00  0.00    +0.000 C 
ATOM      2  N   UNL     1       3.571   3.116  17.730  0.00  0.00    +0.000 NA
ATOM      3  C   UNL     1       4.700   3.153  16.773  0.00  0.00    +0.000 C 
ATOM      4  C   UNL     1       4.841   4.488  16.026  0.00  0.00    +0.000 C 
ATOM      5  N   UNL     1       5.237   5.614  16.872  0.00  0.00    +0.000 N 
ATOM      6  C   UNL     1       6.593   5.786  17.186  0.00  0.00    +0.000 C 
ATOM      7  O   UNL     1       7.434   5.001  16.716  0.00  0.00    +0.000 OA
ATOM      8  C   UNL     1       4.192   6.219  17.601  0.00  0.00    +0.000 A 
ATOM      9  C   UNL     1       3.828   7.533  17.295  0.00  0.00    +0.000 A 
ATOM     10  C   UNL     1       2.741   8.125  17.939  0.00  0.00    +0.000 A 
ATOM     11  C   UNL     1       2.028   7.410  18.900  0.00  0.00    +0.000 A 
ATOM     12  C   UNL     1       2.379   6.091  19.195  0.00  0.00    +0.000 A 
ATOM     13  C   UNL     1       3.453   5.470  18.533  0.00  0.00    +0.000 A 
ATOM     14  C   UNL     1       3.799   4.031  18.859  0.00  0.00    +0.000 C 
ENDROOT
BRANCH   6  15
ATOM     15  C   UNL     1       7.015   6.982  18.090  0.00  0.00    +0.000 C 
ATOM     16  C   UNL     1       8.348   6.939  18.883  0.00  0.00    +0.000 C 
ATOM     17  C   UNL     1       8.598   8.404  18.488  0.00  0.00    +0.000 C 
ATOM     18  C   UNL     1       7.607   8.214  17.336  0.00  0.00    +0.000 C 
ENDBRANCH   6  15
TORSDOF 1
ENDMDL
MODEL 5
REMARK VINA RESULT:      -6.3      1.887      4.876
REMARK  Name = 
REMARK  2 active torsions:
REMARK  status: ('A' for Active; 'I' for Inactive)
REMARK    1  A    between atoms: C_1  and  N_2
REMARK    2  A    between atoms: C_6  and  C_8
REMARK                            x       y       z     vdW  Elec       q    Type
REMARK                         _______ _______ _______ _____ _____    ______ ____
ROOT
ATOM      1  C   UNL     1       7.840   4.769  18.237  0.00  0.00    +0.000 C 
ATOM      2  N   UNL     1       6.425   4.714  17.870  0.00  0.00    +0.000 NA
ATOM      3  C   UNL     1       6.064   5.944  17.128  0.00  0.00    +0.000 C 
ATOM      4  C   UNL     1       4.670   5.897  16.484  0.00  0.00    +0.000 C 
ATOM      5  N   UNL     1       3.563   5.889  17.442  0.00  0.00    +0.000 N 
ATOM      6  C   UNL     1       3.133   7.103  17.995  0.00  0.00    +0.000 C 
ATOM      7  O   UNL     1       3.676   8.163  17.641  0.00  0.00    +0.000 OA
ATOM      8  C   UNL     1       3.262   4.632  18.007  0.00  0.00    +0.000 A 
ATOM      9  C   UNL     1       2.035   4.034  17.708  0.00  0.00    +0.000 A 
ATOM     10  C   UNL     1       1.748   2.753  18.181  0.00  0.00    +0.000 A 
ATOM     11  C   UNL     1       2.679   2.077  18.966  0.00  0.00    +0.000 A 
ATOM     12  C   UNL     1       3.913   2.664  19.252  0.00  0.00    +0.000 A 
ATOM     13  C   UNL     1       4.230   3.942  18.757  0.00  0.00    +0.000 A 
ATOM     14  C   UNL     1       5.585   4.547  19.066  0.00  0.00    +0.000 C 
ENDROOT
BRANCH   6  15
ATOM     15  C   UNL     1       1.958   7.095  19.018  0.00  0.00    +0.000 C 
ATOM     16  C   UNL     1       2.191   6.644  20.484  0.00  0.00    +0.000 C 
ATOM     17  C   UNL     1       1.318   7.818  20.956  0.00  0.00    +0.000 C 
ATOM     18  C   UNL     1       1.574   8.490  19.604  0.00  0.00    +0.000 C 
ENDBRANCH   6  15
TORSDOF 1
ENDMDL
MODEL 6
REMARK VINA RESULT:      -6.3      4.622      7.207
REMARK  Name = 
REMARK  2 active torsions:
REMARK  status: ('A' for Active; 'I' for Inactive)
REMARK    1  A    between atoms: C_1  and  N_2
REMARK    2  A    between atoms: C_6  and  C_8
REMARK                            x       y       z     vdW  Elec       q    Type
REMARK                         _______ _______ _______ _____ _____    ______ ____
ROOT
ATOM      1  C   UNL     1       0.245   9.489  23.676  0.00  0.00    +0.000 C 
ATOM      2  N   UNL     1       0.562   9.831  22.289  0.00  0.00    +0.000 NA
ATOM      3  C   UNL     1      -0.114  11.099  21.932  0.00  0.00    +0.000 C 
ATOM      4  C   UNL     1       0.332  11.684  20.583  0.00  0.00    +0.000 C 
ATOM      5  N   UNL     1      -0.067  10.891  19.420  0.00  0.00    +0.000 N 
ATOM      6  C   UNL     1      -1.367  11.031  18.913  0.00  0.00    +0.000 C 
ATOM      7  O   UNL     1      -2.143  11.845  19.439  0.00  0.00    +0.000 OA
ATOM      8  C   UNL     1       0.761   9.786  19.129  0.00  0.00    +0.000 A 
ATOM      9  C   UNL     1       1.503   9.793  17.945  0.00  0.00    +0.000 A 
ATOM     10  C   UNL     1       2.397   8.756  17.674  0.00  0.00    +0.000 A 
ATOM     11  C   UNL     1       2.537   7.705  18.579  0.00  0.00    +0.000 A 
ATOM     12  C   UNL     1       1.810   7.705  19.771  0.00  0.00    +0.000 A 
ATOM     13  C   UNL     1       0.928   8.758  20.073  0.00  0.00    +0.000 A 
ATOM     14  C   UNL     1       0.167   8.742  21.383  0.00  0.00    +0.000 C 
ENDROOT
BRANCH   6  15
ATOM     15  C   UNL     1      -1.794  10.183  17.678  0.00  0.00    +0.000 C 
ATOM     16  C   UNL     1      -3.200   9.531  17.617  0.00  0.00    +0.000 C 
ATOM     17  C   UNL     1      -3.306   9.960  16.144  0.00  0.00    +0.000 C 
ATOM     18  C   UNL     1      -2.219  11.004  16.420  0.00  0.00    +0.000 C 
ENDBRANCH   6  15
TORSDOF 1
ENDMDL
MODEL 7
REMARK VINA RESULT:      -6.3      1.877      4.205
REMARK  Name = 
REMARK  2 active torsions:
REMARK  status: ('A' for Active; 'I' for Inactive)
REMARK    1  A    between atoms: C_1  and  N_2
REMARK    2  A    between atoms: C_6  and  C_8
REMARK                            x       y       z     vdW  Elec       q    Type
REMARK                         _______ _______ _______ _____ _____    ______ ____
ROOT
ATOM      1  C   UNL     1       0.606   1.926  18.799  0.00  0.00    +0.000 C 
ATOM      2  N   UNL     1       1.660   2.893  19.106  0.00  0.00    +0.000 NA
ATOM      3  C   UNL     1       1.302   3.630  20.340  0.00  0.00    +0.000 C 
ATOM      4  C   UNL     1       2.437   4.504  20.895  0.00  0.00    +0.000 C 
ATOM      5  N   UNL     1       2.786   5.648  20.052  0.00  0.00    +0.000 N 
ATOM      6  C   UNL     1       2.012   6.814  20.134  0.00  0.00    +0.000 C 
ATOM      7  O   UNL     1       1.068   6.867  20.940  0.00  0.00    +0.000 OA
ATOM      8  C   UNL     1       3.639   5.361  18.966  0.00  0.00    +0.000 A 
ATOM      9  C   UNL     1       4.927   5.904  18.959  0.00  0.00    +0.000 A 
ATOM     10  C   UNL     1       5.822   5.565  17.942  0.00  0.00    +0.000 A 
ATOM     11  C   UNL     1       5.424   4.698  16.926  0.00  0.00    +0.000 A 
ATOM     12  C   UNL     1       4.145   4.141  16.941  0.00  0.00    +0.000 A 
ATOM     13  C   UNL     1       3.242   4.447  17.975  0.00  0.00    +0.000 A 
ATOM     14  C   UNL     1       1.866   3.812  17.977  0.00  0.00    +0.000 C 
ENDROOT
BRANCH   6  15
ATOM     15  C   UNL     1       2.379   8.031  19.234  0.00  0.00    +0.000 C 
ATOM     16  C   UNL     1       2.051   8.019  17.718  0.00  0.00    +0.000 C 
ATOM     17  C   UNL     1       1.582   9.479  17.835  0.00  0.00    +0.000 C 
ATOM     18  C   UNL     1       1.416   9.255  19.341  0.00  0.00    +0.000 C 
ENDBRANCH   6  15
TORSDOF 1
ENDMDL
MODEL 8
REMARK VINA RESULT:      -6.0      2.758      6.015
REMARK  Name = 
REMARK  2 active torsions:
REMARK  status: ('A' for Active; 'I' for Inactive)
REMARK    1  A    between atoms: C_1  and  N_2
REMARK    2  A    between atoms: C_6  and  C_8
REMARK                            x       y       z     vdW  Elec       q    Type
REMARK                         _______ _______ _______ _____ _____    ______ ____
ROOT
ATOM      1  C   UNL     1       7.950   8.362  17.729  0.00  0.00    +0.000 C 
ATOM      2  N   UNL     1       6.934   7.539  17.072  0.00  0.00    +0.000 NA
ATOM      3  C   UNL     1       5.649   7.682  17.793  0.00  0.00    +0.000 C 
ATOM      4  C   UNL     1       4.451   7.056  17.063  0.00  0.00    +0.000 C 
ATOM      5  N   UNL     1       4.491   5.596  16.979  0.00  0.00    +0.000 N 
ATOM      6  C   UNL     1       4.060   4.839  18.078  0.00  0.00    +0.000 C 
ATOM      7  O   UNL     1       3.625   5.418  19.087  0.00  0.00    +0.000 OA
ATOM      8  C   UNL     1       5.298   5.071  15.948  0.00  0.00    +0.000 A 
ATOM      9  C   UNL     1       4.687   4.377  14.900  0.00  0.00    +0.000 A 
ATOM     10  C   UNL     1       5.451   3.925  13.823  0.00  0.00    +0.000 A 
ATOM     11  C   UNL     1       6.826   4.152  13.801  0.00  0.00    +0.000 A 
ATOM     12  C   UNL     1       7.436   4.860  14.838  0.00  0.00    +0.000 A 
ATOM     13  C   UNL     1       6.676   5.349  15.915  0.00  0.00    +0.000 A 
ATOM     14  C   UNL     1       7.361   6.132  17.018  0.00  0.00    +0.000 C 
ENDROOT
BRANCH   6  15
ATOM     15  C   UNL     1       4.107   3.284  17.992  0.00  0.00    +0.000 C 
ATOM     16  C   UNL     1       4.075   2.421  19.281  0.00  0.00    +0.000 C 
ATOM     17  C   UNL     1       3.092   1.465  18.584  0.00  0.00    +0.000 C 
ATOM     18  C   UNL     1       2.761   2.596  17.605  0.00  0.00    +0.000 C 
ENDBRANCH   6  15
TORSDOF 1
ENDMDL
MODEL 9
REMARK VINA RESULT:      -5.9      2.544      4.472
REMARK  Name = 
REMARK  2 active torsions:
REMARK  status: ('A' for Active; 'I' for Inactive)
REMARK    1  A    between atoms: C_1  and  N_2
REMARK    2  A    between atoms: C_6  and  C_8
REMARK                            x       y       z     vdW  Elec       q    Type
REMARK                         _______ _______ _______ _____ _____    ______ ____
ROOT
ATOM      1  C   UNL     1       1.919   4.112  18.696  0.00  0.00    +0.000 C 
ATOM      2  N   UNL     1       3.288   3.956  18.205  0.00  0.00    +0.000 NA
ATOM      3  C   UNL     1       4.212   3.859  19.358  0.00  0.00    +0.000 C 
ATOM      4  C   UNL     1       5.645   3.455  18.977  0.00  0.00    +0.000 C 
ATOM      5  N   UNL     1       6.369   4.463  18.202  0.00  0.00    +0.000 N 
ATOM      6  C   UNL     1       6.980   5.530  18.876  0.00  0.00    +0.000 C 
ATOM      7  O   UNL     1       6.922   5.585  20.115  0.00  0.00    +0.000 OA
ATOM      8  C   UNL     1       6.087   4.481  16.820  0.00  0.00    +0.000 A 
ATOM      9  C   UNL     1       7.097   4.131  15.920  0.00  0.00    +0.000 A 
ATOM     10  C   UNL     1       6.820   4.055  14.554  0.00  0.00    +0.000 A 
ATOM     11  C   UNL     1       5.540   4.345  14.087  0.00  0.00    +0.000 A 
ATOM     12  C   UNL     1       4.525   4.678  14.985  0.00  0.00    +0.000 A 
ATOM     13  C   UNL     1       4.779   4.728  16.367  0.00  0.00    +0.000 A 
ATOM     14  C   UNL     1       3.653   5.073  17.322  0.00  0.00    +0.000 C 
ENDROOT
BRANCH   6  15
ATOM     15  C   UNL     1       7.748   6.606  18.052  0.00  0.00    +0.000 C 
ATOM     16  C   UNL     1       6.983   7.765  17.360  0.00  0.00    +0.000 C 
ATOM     17  C   UNL     1       8.081   8.734  17.828  0.00  0.00    +0.000 C 
ATOM     18  C   UNL     1       8.468   7.705  18.895  0.00  0.00    +0.000 C 
ENDBRANCH   6  15
TORSDOF 1
ENDMDL
