MODEL 1
REMARK VINA RESULT:      -8.7      0.000      0.000
REMARK  Name = 
REMARK  6 active torsions:
REMARK  status: ('A' for Active; 'I' for Inactive)
REMARK    1  A    between atoms: C_2  and  C_15
REMARK    2  A    between atoms: N_3  and  C_4
REMARK    3  A    between atoms: C_4  and  C_5
REMARK    4  A    between atoms: C_4  and  C_11
REMARK    5  A    between atoms: C_17  and  C_18
REMARK    6  A    between atoms: C_18  and  C_19
REMARK                            x       y       z     vdW  Elec       q    Type
REMARK                         _______ _______ _______ _____ _____    ______ ____
ROOT
ATOM      1  O   UNL     1       2.339   8.577  17.297  0.00  0.00    +0.000 OA
ATOM      2  C   UNL     1       2.183   8.141  18.438  0.00  0.00    +0.000 C 
ATOM      3  N   UNL     1       2.637   6.902  18.831  0.00  0.00    +0.000 N 
ATOM      4  H   UNL     1       2.476   6.625  19.799  0.00  0.00    +0.000 HD
ENDROOT
BRANCH   2   5
ATOM      5  C   UNL     1       1.434   8.935  19.459  0.00  0.00    +0.000 A 
ATOM      6  C   UNL     1       0.786  10.095  19.046  0.00  0.00    +0.000 A 
ATOM      7  C   UNL     1      -0.019  10.805  19.946  0.00  0.00    +0.000 A 
ATOM      8  C   UNL     1      -0.084  10.338  21.264  0.00  0.00    +0.000 A 
ATOM      9 CL   UNL     1      -1.011  11.128  22.482  0.00  0.00    +0.000 Cl
ATOM     10  C   UNL     1       0.612   9.173  21.595  0.00  0.00    +0.000 A 
ATOM     11  N   UNL     1       1.362   8.443  20.725  0.00  0.00    +0.000 NA
BRANCH   7  12
ATOM     12  C   UNL     1      -0.782  12.010  19.437  0.00  0.00    +0.000 C 
BRANCH  12  13
ATOM     13  C   UNL     1      -2.182  11.707  18.958  0.00  0.00    +0.000 A 
ATOM     14  C   UNL     1      -2.403  10.861  17.857  0.00  0.00    +0.000 A 
ATOM     15  C   UNL     1      -3.697  10.635  17.386  0.00  0.00    +0.000 A 
ATOM     16  C   UNL     1      -4.773  11.232  18.030  0.00  0.00    +0.000 A 
ATOM     17  F   UNL     1      -6.012  11.035  17.562  0.00  0.00    +0.000 F 
ATOM     18  C   UNL     1      -4.582  12.031  19.149  0.00  0.00    +0.000 A 
ATOM     19  C   UNL     1      -3.288  12.267  19.616  0.00  0.00    +0.000 A 
ENDBRANCH  12  13
ENDBRANCH   7  12
ENDBRANCH   2   5
BRANCH   3  20
ATOM     20  C   UNL     1       3.302   5.995  17.882  0.00  0.00    +0.000 C 
BRANCH  20  21
ATOM     21  C   UNL     1       4.792   5.953  18.149  0.00  0.00    +0.000 A 
ATOM     22  C   UNL     1       5.708   6.512  17.247  0.00  0.00    +0.000 A 
ATOM     23  C   UNL     1       7.073   6.440  17.511  0.00  0.00    +0.000 A 
ATOM     24  C   UNL     1       7.483   5.815  18.676  0.00  0.00    +0.000 A 
ATOM     25  N   UNL     1       6.634   5.272  19.573  0.00  0.00    +0.000 NA
ATOM     26  C   UNL     1       5.314   5.353  19.291  0.00  0.00    +0.000 A 
ENDBRANCH  20  21
BRANCH  20  27
ATOM     27  C   UNL     1       2.653   4.588  17.771  0.00  0.00    +0.000 C 
ATOM     28  F   UNL     1       1.370   4.675  17.336  0.00  0.00    +0.000 F 
ATOM     29  F   UNL     1       3.323   3.816  16.882  0.00  0.00    +0.000 F 
ATOM     30  F   UNL     1       2.622   3.914  18.941  0.00  0.00    +0.000 F 
ENDBRANCH  20  27
ENDBRANCH   3  20
TORSDOF 6
ENDMDL
MODEL 2
REMARK VINA RESULT:      -8.7      1.343      1.897
REMARK  Name = 
REMARK  6 active torsions:
REMARK  status: ('A' for Active; 'I' for Inactive)
REMARK    1  A    between atoms: C_2  and  C_15
REMARK    2  A    between atoms: N_3  and  C_4
REMARK    3  A    between atoms: C_4  and  C_5
REMARK    4  A    between atoms: C_4  and  C_11
REMARK    5  A    between atoms: C_17  and  C_18
REMARK    6  A    between atoms: C_18  and  C_19
REMARK                            x       y       z     vdW  Elec       q    Type
REMARK                         _______ _______ _______ _____ _____    ______ ____
ROOT
ATOM      1  O   UNL     1       3.520   7.072  17.338  0.00  0.00    +0.000 OA
ATOM      2  C   UNL     1       2.894   6.690  18.326  0.00  0.00    +0.000 C 
ATOM      3  N   UNL     1       2.788   5.361  18.672  0.00  0.00    +0.000 N 
ATOM      4  H   UNL     1       2.260   5.134  19.515  0.00  0.00    +0.000 HD
ENDROOT
BRANCH   2   5
ATOM      5  C   UNL     1       2.165   7.668  19.189  0.00  0.00    +0.000 A 
ATOM      6  C   UNL     1       1.723   8.854  18.611  0.00  0.00    +0.000 A 
ATOM      7  C   UNL     1       0.938   9.745  19.355  0.00  0.00    +0.000 A 
ATOM      8  C   UNL     1       0.683   9.421  20.693  0.00  0.00    +0.000 A 
ATOM      9 CL   UNL     1      -0.241  10.437  21.732  0.00  0.00    +0.000 Cl
ATOM     10  C   UNL     1       1.179   8.216  21.195  0.00  0.00    +0.000 A 
ATOM     11  N   UNL     1       1.905   7.315  20.476  0.00  0.00    +0.000 NA
BRANCH   7  12
ATOM     12  C   UNL     1       0.399  10.980  18.666  0.00  0.00    +0.000 C 
BRANCH  12  13
ATOM     13  C   UNL     1      -1.072  10.915  18.326  0.00  0.00    +0.000 A 
ATOM     14  C   UNL     1      -1.987  11.816  18.898  0.00  0.00    +0.000 A 
ATOM     15  C   UNL     1      -3.351  11.710  18.624  0.00  0.00    +0.000 A 
ATOM     16  C   UNL     1      -3.800  10.720  17.759  0.00  0.00    +0.000 A 
ATOM     17  F   UNL     1      -5.111  10.603  17.516  0.00  0.00    +0.000 F 
ATOM     18  C   UNL     1      -2.909   9.850  17.145  0.00  0.00    +0.000 A 
ATOM     19  C   UNL     1      -1.545   9.948  17.425  0.00  0.00    +0.000 A 
ENDBRANCH  12  13
ENDBRANCH   7  12
ENDBRANCH   2   5
BRANCH   3  20
ATOM     20  C   UNL     1       3.383   4.304  17.842  0.00  0.00    +0.000 C 
BRANCH  20  21
ATOM     21  C   UNL     1       4.891   4.449  17.804  0.00  0.00    +0.000 A 
ATOM     22  C   UNL     1       5.594   4.407  16.592  0.00  0.00    +0.000 A 
ATOM     23  C   UNL     1       6.981   4.523  16.592  0.00  0.00    +0.000 A 
ATOM     24  C   UNL     1       7.625   4.686  17.806  0.00  0.00    +0.000 A 
ATOM     25  N   UNL     1       6.985   4.740  18.992  0.00  0.00    +0.000 NA
ATOM     26  C   UNL     1       5.638   4.621  18.965  0.00  0.00    +0.000 A 
ENDBRANCH  20  21
BRANCH  20  27
ATOM     27  C   UNL     1       2.908   2.866  18.187  0.00  0.00    +0.000 C 
ATOM     28  F   UNL     1       2.938   2.650  19.526  0.00  0.00    +0.000 F 
ATOM     29  F   UNL     1       1.631   2.668  17.781  0.00  0.00    +0.000 F 
ATOM     30  F   UNL     1       3.662   1.898  17.620  0.00  0.00    +0.000 F 
ENDBRANCH  20  27
ENDBRANCH   3  20
TORSDOF 6
ENDMDL
MODEL 3
REMARK VINA RESULT:      -8.6      0.782      1.423
REMARK  Name = 
REMARK  6 active torsions:
REMARK  status: ('A' for Active; 'I' for Inactive)
REMARK    1  A    between atoms: C_2  and  C_15
REMARK    2  A    between atoms: N_3  and  C_4
REMARK    3  A    between atoms: C_4  and  C_5
REMARK    4  A    between atoms: C_4  and  C_11
REMARK    5  A    between atoms: C_17  and  C_18
REMARK    6  A    between atoms: C_18  and  C_19
REMARK                            x       y       z     vdW  Elec       q    Type
REMARK                         _______ _______ _______ _____ _____    ______ ____
ROOT
ATOM      1  O   UNL     1       2.287   8.484  17.559  0.00  0.00    +0.000 OA
ATOM      2  C   UNL     1       2.210   7.982  18.680  0.00  0.00    +0.000 C 
ATOM      3  N   UNL     1       2.759   6.757  18.986  0.00  0.00    +0.000 N 
ATOM      4  H   UNL     1       2.658   6.420  19.944  0.00  0.00    +0.000 HD
ENDROOT
BRANCH   2   5
ATOM      5  C   UNL     1       1.458   8.671  19.772  0.00  0.00    +0.000 A 
ATOM      6  C   UNL     1       0.680   9.776  19.439  0.00  0.00    +0.000 A 
ATOM      7  C   UNL     1      -0.128  10.381  20.412  0.00  0.00    +0.000 A 
ATOM      8  C   UNL     1      -0.065   9.872  21.714  0.00  0.00    +0.000 A 
ATOM      9 CL   UNL     1      -0.981  10.534  23.013  0.00  0.00    +0.000 Cl
ATOM     10  C   UNL     1       0.756   8.768  21.961  0.00  0.00    +0.000 A 
ATOM     11  N   UNL     1       1.513   8.138  21.022  0.00  0.00    +0.000 NA
BRANCH   7  12
ATOM     12  C   UNL     1      -1.030  11.521  19.992  0.00  0.00    +0.000 C 
BRANCH  12  13
ATOM     13  C   UNL     1      -1.891  11.227  18.785  0.00  0.00    +0.000 A 
ATOM     14  C   UNL     1      -3.169  11.795  18.653  0.00  0.00    +0.000 A 
ATOM     15  C   UNL     1      -3.980  11.471  17.565  0.00  0.00    +0.000 A 
ATOM     16  C   UNL     1      -3.504  10.599  16.594  0.00  0.00    +0.000 A 
ATOM     17  F   UNL     1      -4.292  10.268  15.563  0.00  0.00    +0.000 F 
ATOM     18  C   UNL     1      -2.226  10.064  16.679  0.00  0.00    +0.000 A 
ATOM     19  C   UNL     1      -1.417  10.379  17.772  0.00  0.00    +0.000 A 
ENDBRANCH  12  13
ENDBRANCH   7  12
ENDBRANCH   2   5
BRANCH   3  20
ATOM     20  C   UNL     1       3.438   5.945  17.965  0.00  0.00    +0.000 C 
BRANCH  20  21
ATOM     21  C   UNL     1       4.934   5.940  18.203  0.00  0.00    +0.000 A 
ATOM     22  C   UNL     1       5.813   6.569  17.312  0.00  0.00    +0.000 A 
ATOM     23  C   UNL     1       7.185   6.530  17.548  0.00  0.00    +0.000 A 
ATOM     24  C   UNL     1       7.637   5.866  18.675  0.00  0.00    +0.000 A 
ATOM     25  N   UNL     1       6.823   5.255  19.561  0.00  0.00    +0.000 NA
ATOM     26  C   UNL     1       5.496   5.305  19.306  0.00  0.00    +0.000 A 
ENDBRANCH  20  21
BRANCH  20  27
ATOM     27  C   UNL     1       2.838   4.526  17.763  0.00  0.00    +0.000 C 
ATOM     28  F   UNL     1       2.818   3.834  18.929  0.00  0.00    +0.000 F 
ATOM     29  F   UNL     1       1.559   4.601  17.322  0.00  0.00    +0.000 F 
ATOM     30  F   UNL     1       3.523   3.773  16.875  0.00  0.00    +0.000 F 
ENDBRANCH  20  27
ENDBRANCH   3  20
TORSDOF 6
ENDMDL
MODEL 4
REMARK VINA RESULT:      -8.5      1.193      1.579
REMARK  Name = 
REMARK  6 active torsions:
REMARK  status: ('A' for Active; 'I' for Inactive)
REMARK    1  A    between atoms: C_2  and  C_15
REMARK    2  A    between atoms: N_3  and  C_4
REMARK    3  A    between atoms: C_4  and  C_5
REMARK    4  A    between atoms: C_4  and  C_11
REMARK    5  A    between atoms: C_17  and  C_18
REMARK    6  A    between atoms: C_18  and  C_19
REMARK                            x       y       z     vdW  Elec       q    Type
REMARK                         _______ _______ _______ _____ _____    ______ ____
ROOT
ATOM      1  O   UNL     1       3.238   7.535  17.244  0.00  0.00    +0.000 OA
ATOM      2  C   UNL     1       2.741   7.130  18.294  0.00  0.00    +0.000 C 
ATOM      3  N   UNL     1       2.798   5.811  18.685  0.00  0.00    +0.000 N 
ATOM      4  H   UNL     1       2.369   5.564  19.577  0.00  0.00    +0.000 HD
ENDROOT
BRANCH   2   5
ATOM      5  C   UNL     1       1.993   8.063  19.190  0.00  0.00    +0.000 A 
ATOM      6  C   UNL     1       1.453   9.218  18.635  0.00  0.00    +0.000 A 
ATOM      7  C   UNL     1       0.649  10.061  19.415  0.00  0.00    +0.000 A 
ATOM      8  C   UNL     1       0.477   9.725  20.763  0.00  0.00    +0.000 A 
ATOM      9 CL   UNL     1      -0.460  10.684  21.844  0.00  0.00    +0.000 Cl
ATOM     10  C   UNL     1       1.069   8.553  21.240  0.00  0.00    +0.000 A 
ATOM     11  N   UNL     1       1.815   7.698  20.489  0.00  0.00    +0.000 NA
BRANCH   7  12
ATOM     12  C   UNL     1       0.003  11.259  18.753  0.00  0.00    +0.000 C 
BRANCH  12  13
ATOM     13  C   UNL     1      -1.462  11.081  18.430  0.00  0.00    +0.000 A 
ATOM     14  C   UNL     1      -1.890  10.081  17.539  0.00  0.00    +0.000 A 
ATOM     15  C   UNL     1      -3.238   9.963  17.202  0.00  0.00    +0.000 A 
ATOM     16  C   UNL     1      -4.164  10.826  17.773  0.00  0.00    +0.000 A 
ATOM     17  F   UNL     1      -5.455  10.728  17.430  0.00  0.00    +0.000 F 
ATOM     18  C   UNL     1      -3.771  11.789  18.693  0.00  0.00    +0.000 A 
ATOM     19  C   UNL     1      -2.421  11.916  19.024  0.00  0.00    +0.000 A 
ENDBRANCH  12  13
ENDBRANCH   7  12
ENDBRANCH   2   5
BRANCH   3  20
ATOM     20  C   UNL     1       3.424   4.787  17.835  0.00  0.00    +0.000 C 
BRANCH  20  21
ATOM     21  C   UNL     1       4.933   4.848  17.960  0.00  0.00    +0.000 A 
ATOM     22  C   UNL     1       5.546   5.283  19.143  0.00  0.00    +0.000 A 
ATOM     23  C   UNL     1       6.935   5.347  19.220  0.00  0.00    +0.000 A 
ATOM     24  C   UNL     1       7.671   4.966  18.112  0.00  0.00    +0.000 A 
ATOM     25  N   UNL     1       7.119   4.533  16.959  0.00  0.00    +0.000 NA
ATOM     26  C   UNL     1       5.768   4.484  16.909  0.00  0.00    +0.000 A 
ENDBRANCH  20  21
BRANCH  20  27
ATOM     27  C   UNL     1       2.844   3.357  18.012  0.00  0.00    +0.000 C 
ATOM     28  F   UNL     1       3.761   2.523  18.564  0.00  0.00    +0.000 F 
ATOM     29  F   UNL     1       1.770   3.370  18.837  0.00  0.00    +0.000 F 
ATOM     30  F   UNL     1       2.450   2.788  16.852  0.00  0.00    +0.000 F 
ENDBRANCH  20  27
ENDBRANCH   3  20
TORSDOF 6
ENDMDL
MODEL 5
REMARK VINA RESULT:      -8.5      0.974      1.462
REMARK  Name = 
REMARK  6 active torsions:
REMARK  status: ('A' for Active; 'I' for Inactive)
REMARK    1  A    between atoms: C_2  and  C_15
REMARK    2  A    between atoms: N_3  and  C_4
REMARK    3  A    between atoms: C_4  and  C_5
REMARK    4  A    between atoms: C_4  and  C_11
REMARK    5  A    between atoms: C_17  and  C_18
REMARK    6  A    between atoms: C_18  and  C_19
REMARK                            x       y       z     vdW  Elec       q    Type
REMARK                         _______ _______ _______ _____ _____    ______ ____
ROOT
ATOM      1  O   UNL     1       2.376   8.580  17.462  0.00  0.00    +0.000 OA
ATOM      2  C   UNL     1       2.213   8.034  18.552  0.00  0.00    +0.000 C 
ATOM      3  N   UNL     1       2.648   6.754  18.816  0.00  0.00    +0.000 N 
ATOM      4  H   UNL     1       2.482   6.382  19.751  0.00  0.00    +0.000 HD
ENDROOT
BRANCH   2   5
ATOM      5  C   UNL     1       1.477   8.731  19.650  0.00  0.00    +0.000 A 
ATOM      6  C   UNL     1       0.660   9.806  19.315  0.00  0.00    +0.000 A 
ATOM      7  C   UNL     1      -0.134  10.414  20.297  0.00  0.00    +0.000 A 
ATOM      8  C   UNL     1      -0.017   9.940  21.609  0.00  0.00    +0.000 A 
ATOM      9 CL   UNL     1      -0.909  10.612  22.920  0.00  0.00    +0.000 Cl
ATOM     10  C   UNL     1       0.841   8.866  21.857  0.00  0.00    +0.000 A 
ATOM     11  N   UNL     1       1.586   8.232  20.910  0.00  0.00    +0.000 NA
BRANCH   7  12
ATOM     12  C   UNL     1      -1.079  11.520  19.878  0.00  0.00    +0.000 C 
BRANCH  12  13
ATOM     13  C   UNL     1      -1.966  11.174  18.705  0.00  0.00    +0.000 A 
ATOM     14  C   UNL     1      -1.530  10.287  17.706  0.00  0.00    +0.000 A 
ATOM     15  C   UNL     1      -2.333  10.019  16.597  0.00  0.00    +0.000 A 
ATOM     16  C   UNL     1      -3.582  10.617  16.497  0.00  0.00    +0.000 A 
ATOM     17  F   UNL     1      -4.342  10.380  15.421  0.00  0.00    +0.000 F 
ATOM     18  C   UNL     1      -4.054  11.458  17.496  0.00  0.00    +0.000 A 
ATOM     19  C   UNL     1      -3.248  11.735  18.602  0.00  0.00    +0.000 A 
ENDBRANCH  12  13
ENDBRANCH   7  12
ENDBRANCH   2   5
BRANCH   3  20
ATOM     20  C   UNL     1       3.298   5.937  17.780  0.00  0.00    +0.000 C 
BRANCH  20  21
ATOM     21  C   UNL     1       4.805   6.036  17.899  0.00  0.00    +0.000 A 
ATOM     22  C   UNL     1       5.491   5.423  18.957  0.00  0.00    +0.000 A 
ATOM     23  C   UNL     1       6.874   5.549  19.050  0.00  0.00    +0.000 A 
ATOM     24  C   UNL     1       7.534   6.280  18.077  0.00  0.00    +0.000 A 
ATOM     25  N   UNL     1       6.911   6.878  17.040  0.00  0.00    +0.000 NA
ATOM     26  C   UNL     1       5.567   6.743  16.975  0.00  0.00    +0.000 A 
ENDBRANCH  20  21
BRANCH  20  27
ATOM     27  C   UNL     1       2.778   4.477  17.686  0.00  0.00    +0.000 C 
ATOM     28  F   UNL     1       2.809   3.869  18.899  0.00  0.00    +0.000 F 
ATOM     29  F   UNL     1       1.493   4.448  17.259  0.00  0.00    +0.000 F 
ATOM     30  F   UNL     1       3.496   3.701  16.845  0.00  0.00    +0.000 F 
ENDBRANCH  20  27
ENDBRANCH   3  20
TORSDOF 6
ENDMDL
MODEL 6
REMARK VINA RESULT:      -8.3      1.448      1.687
REMARK  Name = 
REMARK  6 active torsions:
REMARK  status: ('A' for Active; 'I' for Inactive)
REMARK    1  A    between atoms: C_2  and  C_15
REMARK    2  A    between atoms: N_3  and  C_4
REMARK    3  A    between atoms: C_4  and  C_5
REMARK    4  A    between atoms: C_4  and  C_11
REMARK    5  A    between atoms: C_17  and  C_18
REMARK    6  A    between atoms: C_18  and  C_19
REMARK                            x       y       z     vdW  Elec       q    Type
REMARK                         _______ _______ _______ _____ _____    ______ ____
ROOT
ATOM      1  O   UNL     1       2.237   6.586  17.809  0.00  0.00    +0.000 OA
ATOM      2  C   UNL     1       2.395   6.675  19.026  0.00  0.00    +0.000 C 
ATOM      3  N   UNL     1       3.050   5.714  19.765  0.00  0.00    +0.000 N 
ATOM      4  H   UNL     1       3.146   5.874  20.767  0.00  0.00    +0.000 HD
ENDROOT
BRANCH   2   5
ATOM      5  C   UNL     1       1.830   7.833  19.784  0.00  0.00    +0.000 A 
ATOM      6  C   UNL     1       1.411   8.948  19.066  0.00  0.00    +0.000 A 
ATOM      7  C   UNL     1       0.772  10.006  19.726  0.00  0.00    +0.000 A 
ATOM      8  C   UNL     1       0.639   9.915  21.117  0.00  0.00    +0.000 A 
ATOM      9 CL   UNL     1      -0.099  11.154  22.060  0.00  0.00    +0.000 Cl
ATOM     10  C   UNL     1       1.102   8.764  21.758  0.00  0.00    +0.000 A 
ATOM     11  N   UNL     1       1.684   7.706  21.131  0.00  0.00    +0.000 NA
BRANCH   7  12
ATOM     12  C   UNL     1       0.247  11.161  18.900  0.00  0.00    +0.000 C 
BRANCH  12  13
ATOM     13  C   UNL     1      -1.202  11.031  18.492  0.00  0.00    +0.000 A 
ATOM     14  C   UNL     1      -1.603  10.073  17.546  0.00  0.00    +0.000 A 
ATOM     15  C   UNL     1      -2.934  10.001  17.132  0.00  0.00    +0.000 A 
ATOM     16  C   UNL     1      -3.869  10.868  17.681  0.00  0.00    +0.000 A 
ATOM     17  F   UNL     1      -5.141  10.815  17.266  0.00  0.00    +0.000 F 
ATOM     18  C   UNL     1      -3.504  11.789  18.654  0.00  0.00    +0.000 A 
ATOM     19  C   UNL     1      -2.172  11.871  19.062  0.00  0.00    +0.000 A 
ENDBRANCH  12  13
ENDBRANCH   7  12
ENDBRANCH   2   5
BRANCH   3  20
ATOM     20  C   UNL     1       3.562   4.486  19.139  0.00  0.00    +0.000 C 
BRANCH  20  21
ATOM     21  C   UNL     1       4.995   4.681  18.690  0.00  0.00    +0.000 A 
ATOM     22  C   UNL     1       5.420   4.274  17.418  0.00  0.00    +0.000 A 
ATOM     23  C   UNL     1       6.749   4.449  17.042  0.00  0.00    +0.000 A 
ATOM     24  C   UNL     1       7.615   5.034  17.949  0.00  0.00    +0.000 A 
ATOM     25  N   UNL     1       7.244   5.447  19.179  0.00  0.00    +0.000 NA
ATOM     26  C   UNL     1       5.949   5.262  19.520  0.00  0.00    +0.000 A 
ENDBRANCH  20  21
BRANCH  20  27
ATOM     27  C   UNL     1       3.345   3.195  19.976  0.00  0.00    +0.000 C 
ATOM     28  F   UNL     1       2.483   2.351  19.357  0.00  0.00    +0.000 F 
ATOM     29  F   UNL     1       4.511   2.524  20.140  0.00  0.00    +0.000 F 
ATOM     30  F   UNL     1       2.843   3.430  21.208  0.00  0.00    +0.000 F 
ENDBRANCH  20  27
ENDBRANCH   3  20
TORSDOF 6
ENDMDL
MODEL 7
REMARK VINA RESULT:      -8.2      0.842      1.131
REMARK  Name = 
REMARK  6 active torsions:
REMARK  status: ('A' for Active; 'I' for Inactive)
REMARK    1  A    between atoms: C_2  and  C_15
REMARK    2  A    between atoms: N_3  and  C_4
REMARK    3  A    between atoms: C_4  and  C_5
REMARK    4  A    between atoms: C_4  and  C_11
REMARK    5  A    between atoms: C_17  and  C_18
REMARK    6  A    between atoms: C_18  and  C_19
REMARK                            x       y       z     vdW  Elec       q    Type
REMARK                         _______ _______ _______ _____ _____    ______ ____
ROOT
ATOM      1  O   UNL     1       2.030   8.578  17.457  0.00  0.00    +0.000 OA
ATOM      2  C   UNL     1       2.074   8.130  18.602  0.00  0.00    +0.000 C 
ATOM      3  N   UNL     1       2.675   6.929  18.909  0.00  0.00    +0.000 N 
ATOM      4  H   UNL     1       2.676   6.639  19.887  0.00  0.00    +0.000 HD
ENDROOT
BRANCH   2   5
ATOM      5  C   UNL     1       1.422   8.861  19.731  0.00  0.00    +0.000 A 
ATOM      6  C   UNL     1       0.922  10.136  19.487  0.00  0.00    +0.000 A 
ATOM      7  C   UNL     1       0.204  10.809  20.485  0.00  0.00    +0.000 A 
ATOM      8  C   UNL     1       0.075  10.177  21.727  0.00  0.00    +0.000 A 
ATOM      9 CL   UNL     1      -0.756  10.898  23.052  0.00  0.00    +0.000 Cl
ATOM     10  C   UNL     1       0.622   8.901  21.888  0.00  0.00    +0.000 A 
ATOM     11  N   UNL     1       1.283   8.212  20.918  0.00  0.00    +0.000 NA
BRANCH   7  12
ATOM     12  C   UNL     1      -0.403  12.155  20.154  0.00  0.00    +0.000 C 
BRANCH  12  13
ATOM     13  C   UNL     1      -1.861  12.104  19.758  0.00  0.00    +0.000 A 
ATOM     14  C   UNL     1      -2.270  11.428  18.595  0.00  0.00    +0.000 A 
ATOM     15  C   UNL     1      -3.610  11.436  18.206  0.00  0.00    +0.000 A 
ATOM     16  C   UNL     1      -4.546  12.097  18.991  0.00  0.00    +0.000 A 
ATOM     17  F   UNL     1      -5.828  12.126  18.604  0.00  0.00    +0.000 F 
ATOM     18  C   UNL     1      -4.172  12.730  20.169  0.00  0.00    +0.000 A 
ATOM     19  C   UNL     1      -2.830  12.731  20.555  0.00  0.00    +0.000 A 
ENDBRANCH  12  13
ENDBRANCH   7  12
ENDBRANCH   2   5
BRANCH   3  20
ATOM     20  C   UNL     1       3.264   6.078  17.864  0.00  0.00    +0.000 C 
BRANCH  20  21
ATOM     21  C   UNL     1       4.776   6.115  17.944  0.00  0.00    +0.000 A 
ATOM     22  C   UNL     1       5.464   5.482  18.987  0.00  0.00    +0.000 A 
ATOM     23  C   UNL     1       6.853   5.551  19.044  0.00  0.00    +0.000 A 
ATOM     24  C   UNL     1       7.516   6.248  18.049  0.00  0.00    +0.000 A 
ATOM     25  N   UNL     1       6.891   6.865  17.024  0.00  0.00    +0.000 NA
ATOM     26  C   UNL     1       5.541   6.785  16.995  0.00  0.00    +0.000 A 
ENDBRANCH  20  21
BRANCH  20  27
ATOM     27  C   UNL     1       2.681   4.640  17.798  0.00  0.00    +0.000 C 
ATOM     28  F   UNL     1       1.412   4.648  17.319  0.00  0.00    +0.000 F 
ATOM     29  F   UNL     1       3.414   3.859  16.967  0.00  0.00    +0.000 F 
ATOM     30  F   UNL     1       2.641   4.019  18.997  0.00  0.00    +0.000 F 
ENDBRANCH  20  27
ENDBRANCH   3  20
TORSDOF 6
ENDMDL
MODEL 8
REMARK VINA RESULT:      -8.1      2.406      3.214
REMARK  Name = 
REMARK  6 active torsions:
REMARK  status: ('A' for Active; 'I' for Inactive)
REMARK    1  A    between atoms: C_2  and  C_15
REMARK    2  A    between atoms: N_3  and  C_4
REMARK    3  A    between atoms: C_4  and  C_5
REMARK    4  A    between atoms: C_4  and  C_11
REMARK    5  A    between atoms: C_17  and  C_18
REMARK    6  A    between atoms: C_18  and  C_19
REMARK                            x       y       z     vdW  Elec       q    Type
REMARK                         _______ _______ _______ _____ _____    ______ ____
ROOT
ATOM      1  O   UNL     1       2.304   8.509  17.612  0.00  0.00    +0.000 OA
ATOM      2  C   UNL     1       2.185   7.992  18.722  0.00  0.00    +0.000 C 
ATOM      3  N   UNL     1       2.674   6.739  19.017  0.00  0.00    +0.000 N 
ATOM      4  H   UNL     1       2.542   6.392  19.967  0.00  0.00    +0.000 HD
ENDROOT
BRANCH   2   5
ATOM      5  C   UNL     1       1.446   8.696  19.814  0.00  0.00    +0.000 A 
ATOM      6  C   UNL     1       0.735   9.847  19.490  0.00  0.00    +0.000 A 
ATOM      7  C   UNL     1      -0.063  10.473  20.459  0.00  0.00    +0.000 A 
ATOM      8  C   UNL     1      -0.056   9.932  21.750  0.00  0.00    +0.000 A 
ATOM      9 CL   UNL     1      -0.965  10.614  23.044  0.00  0.00    +0.000 Cl
ATOM     10  C   UNL     1       0.700   8.782  21.989  0.00  0.00    +0.000 A 
ATOM     11  N   UNL     1       1.445   8.133  21.052  0.00  0.00    +0.000 NA
BRANCH   7  12
ATOM     12  C   UNL     1      -0.894  11.669  20.047  0.00  0.00    +0.000 C 
BRANCH  12  13
ATOM     13  C   UNL     1      -0.113  12.956  19.912  0.00  0.00    +0.000 A 
ATOM     14  C   UNL     1      -0.502  13.943  18.990  0.00  0.00    +0.000 A 
ATOM     15  C   UNL     1       0.259  15.102  18.831  0.00  0.00    +0.000 A 
ATOM     16  C   UNL     1       1.394  15.287  19.609  0.00  0.00    +0.000 A 
ATOM     17  F   UNL     1       2.138  16.387  19.439  0.00  0.00    +0.000 F 
ATOM     18  C   UNL     1       1.769  14.347  20.560  0.00  0.00    +0.000 A 
ATOM     19  C   UNL     1       1.016  13.183  20.714  0.00  0.00    +0.000 A 
ENDBRANCH  12  13
ENDBRANCH   7  12
ENDBRANCH   2   5
BRANCH   3  20
ATOM     20  C   UNL     1       3.334   5.915  17.992  0.00  0.00    +0.000 C 
BRANCH  20  21
ATOM     21  C   UNL     1       4.833   5.906  18.208  0.00  0.00    +0.000 A 
ATOM     22  C   UNL     1       5.701   6.525  17.298  0.00  0.00    +0.000 A 
ATOM     23  C   UNL     1       7.076   6.482  17.513  0.00  0.00    +0.000 A 
ATOM     24  C   UNL     1       7.543   5.825  18.639  0.00  0.00    +0.000 A 
ATOM     25  N   UNL     1       6.741   5.224  19.542  0.00  0.00    +0.000 NA
ATOM     26  C   UNL     1       5.410   5.278  19.307  0.00  0.00    +0.000 A 
ENDBRANCH  20  21
BRANCH  20  27
ATOM     27  C   UNL     1       2.725   4.497  17.813  0.00  0.00    +0.000 C 
ATOM     28  F   UNL     1       2.630   3.852  19.003  0.00  0.00    +0.000 F 
ATOM     29  F   UNL     1       1.474   4.569  17.299  0.00  0.00    +0.000 F 
ATOM     30  F   UNL     1       3.447   3.699  16.996  0.00  0.00    +0.000 F 
ENDBRANCH  20  27
ENDBRANCH   3  20
TORSDOF 6
ENDMDL
MODEL 9
REMARK VINA RESULT:      -8.0      3.688      8.123
REMARK  Name = 
REMARK  6 active torsions:
REMARK  status: ('A' for Active; 'I' for Inactive)
REMARK    1  A    between atoms: C_2  and  C_15
REMARK    2  A    between atoms: N_3  and  C_4
REMARK    3  A    between atoms: C_4  and  C_5
REMARK    4  A    between atoms: C_4  and  C_11
REMARK    5  A    between atoms: C_17  and  C_18
REMARK    6  A    between atoms: C_18  and  C_19
REMARK                            x       y       z     vdW  Elec       q    Type
REMARK                         _______ _______ _______ _____ _____    ______ ____
ROOT
ATOM      1  O   UNL     1       1.940   8.018  20.184  0.00  0.00    +0.000 OA
ATOM      2  C   UNL     1       2.106   8.202  18.979  0.00  0.00    +0.000 C 
ATOM      3  N   UNL     1       1.454   9.193  18.280  0.00  0.00    +0.000 N 
ATOM      4  H   UNL     1       1.660   9.283  17.285  0.00  0.00    +0.000 HD
ENDROOT
BRANCH   2   5
ATOM      5  C   UNL     1       3.007   7.308  18.191  0.00  0.00    +0.000 A 
ATOM      6  C   UNL     1       2.888   5.933  18.368  0.00  0.00    +0.000 A 
ATOM      7  C   UNL     1       3.634   5.057  17.566  0.00  0.00    +0.000 A 
ATOM      8  C   UNL     1       4.528   5.622  16.649  0.00  0.00    +0.000 A 
ATOM      9 CL   UNL     1       5.527   4.667  15.622  0.00  0.00    +0.000 Cl
ATOM     10  C   UNL     1       4.592   7.014  16.549  0.00  0.00    +0.000 A 
ATOM     11  N   UNL     1       3.845   7.881  17.286  0.00  0.00    +0.000 NA
BRANCH   7  12
ATOM     12  C   UNL     1       3.410   3.568  17.723  0.00  0.00    +0.000 C 
BRANCH  12  13
ATOM     13  C   UNL     1       2.716   3.172  19.005  0.00  0.00    +0.000 A 
ATOM     14  C   UNL     1       1.315   3.067  19.066  0.00  0.00    +0.000 A 
ATOM     15  C   UNL     1       0.680   2.759  20.269  0.00  0.00    +0.000 A 
ATOM     16  C   UNL     1       1.443   2.530  21.407  0.00  0.00    +0.000 A 
ATOM     17  F   UNL     1       0.832   2.259  22.567  0.00  0.00    +0.000 F 
ATOM     18  C   UNL     1       2.830   2.580  21.359  0.00  0.00    +0.000 A 
ATOM     19  C   UNL     1       3.467   2.899  20.159  0.00  0.00    +0.000 A 
ENDBRANCH  12  13
ENDBRANCH   7  12
ENDBRANCH   2   5
BRANCH   3  20
ATOM     20  C   UNL     1       0.471  10.071  18.933  0.00  0.00    +0.000 C 
BRANCH  20  21
ATOM     21  C   UNL     1       1.126  11.366  19.365  0.00  0.00    +0.000 A 
ATOM     22  C   UNL     1       1.952  12.088  18.494  0.00  0.00    +0.000 A 
ATOM     23  C   UNL     1       2.556  13.265  18.928  0.00  0.00    +0.000 A 
ATOM     24  C   UNL     1       2.310  13.691  20.221  0.00  0.00    +0.000 A 
ATOM     25  N   UNL     1       1.515  13.029  21.088  0.00  0.00    +0.000 NA
ATOM     26  C   UNL     1       0.943  11.887  20.642  0.00  0.00    +0.000 A 
ENDBRANCH  20  21
BRANCH  20  27
ATOM     27  C   UNL     1      -0.844  10.278  18.132  0.00  0.00    +0.000 C 
ATOM     28  F   UNL     1      -0.836   9.553  16.985  0.00  0.00    +0.000 F 
ATOM     29  F   UNL     1      -1.918   9.873  18.852  0.00  0.00    +0.000 F 
ATOM     30  F   UNL     1      -1.062  11.564  17.778  0.00  0.00    +0.000 F 
ENDBRANCH  20  27
ENDBRANCH   3  20
TORSDOF 6
ENDMDL
