MODEL 1
REMARK VINA RESULT:      -7.8      0.000      0.000
REMARK  Name = 
REMARK  5 active torsions:
REMARK  status: ('A' for Active; 'I' for Inactive)
REMARK    1  A    between atoms: C_1  and  C_2
REMARK    2  A    between atoms: C_6  and  C_7
REMARK    3  A    between atoms: C_10  and  O_11
REMARK    4  A    between atoms: C_12  and  O_13
REMARK    5  A    between atoms: C_19  and  C_20
REMARK                            x       y       z     vdW  Elec       q    Type
REMARK                         _______ _______ _______ _____ _____    ______ ____
ROOT
ATOM      1  C   UNL     1      -0.870  11.614  21.737  0.00  0.00    +0.000 C 
ATOM      2  C   UNL     1      -0.077  10.515  21.109  0.00  0.00    +0.000 A 
ATOM      3  S   UNL     1       0.263   9.102  22.010  0.00  0.00    +0.000 S 
ATOM      4  C   UNL     1       1.127   8.401  20.724  0.00  0.00    +0.000 A 
ATOM      5  N   UNL     1       1.681   7.170  20.844  0.00  0.00    +0.000 NA
ATOM      6  C   UNL     1       2.373   6.785  19.808  0.00  0.00    +0.000 A 
ATOM      7  N   UNL     1       2.519   7.540  18.664  0.00  0.00    +0.000 N 
ATOM      8  C   UNL     1       1.915   8.757  18.470  0.00  0.00    +0.000 A 
ATOM      9  O   UNL     1       2.013   9.348  17.398  0.00  0.00    +0.000 OA
ATOM     10  C   UNL     1       1.175   9.233  19.625  0.00  0.00    +0.000 A 
ATOM     11  C   UNL     1       0.453  10.465  19.825  0.00  0.00    +0.000 A 
ATOM     12  C   UNL     1       0.283  11.560  18.819  0.00  0.00    +0.000 C 
ATOM     13  H   UNL     1       3.020   7.185  17.866  0.00  0.00    +0.000 HD
ENDROOT
BRANCH   6  14
ATOM     14  C   UNL     1       3.040   5.471  19.791  0.00  0.00    +0.000 A 
ATOM     15  C   UNL     1       2.398   4.366  20.367  0.00  0.00    +0.000 A 
ATOM     16  C   UNL     1       2.996   3.108  20.315  0.00  0.00    +0.000 A 
ATOM     17  C   UNL     1       4.250   2.982  19.729  0.00  0.00    +0.000 A 
ATOM     18  C   UNL     1       4.897   4.090  19.186  0.00  0.00    +0.000 A 
ATOM     19  C   UNL     1       4.298   5.336  19.196  0.00  0.00    +0.000 A 
BRANCH  17  20
ATOM     20  O   UNL     1       4.900   1.780  19.664  0.00  0.00    +0.000 OA
ATOM     21  H   UNL     1       5.391   1.743  18.826  0.00  0.00    +0.000 HD
ENDBRANCH  17  20
BRANCH  18  22
ATOM     22  O   UNL     1       6.147   3.964  18.653  0.00  0.00    +0.000 OA
ATOM     23  H   UNL     1       6.745   4.306  19.348  0.00  0.00    +0.000 HD
ENDBRANCH  18  22
ENDBRANCH   6  14
TORSDOF 3
ENDMDL
MODEL 2
REMARK VINA RESULT:      -7.4      4.433      6.318
REMARK  Name = 
REMARK  5 active torsions:
REMARK  status: ('A' for Active; 'I' for Inactive)
REMARK    1  A    between atoms: C_1  and  C_2
REMARK    2  A    between atoms: C_6  and  C_7
REMARK    3  A    between atoms: C_10  and  O_11
REMARK    4  A    between atoms: C_12  and  O_13
REMARK    5  A    between atoms: C_19  and  C_20
REMARK                            x       y       z     vdW  Elec       q    Type
REMARK                         _______ _______ _______ _____ _____    ______ ____
ROOT
ATOM      1  C   UNL     1       1.893   2.728  21.569  0.00  0.00    +0.000 C 
ATOM      2  C   UNL     1       2.519   3.320  20.348  0.00  0.00    +0.000 A 
ATOM      3  S   UNL     1       3.348   2.304  19.251  0.00  0.00    +0.000 S 
ATOM      4  C   UNL     1       3.740   3.604  18.229  0.00  0.00    +0.000 A 
ATOM      5  N   UNL     1       4.446   3.406  17.089  0.00  0.00    +0.000 NA
ATOM      6  C   UNL     1       4.737   4.498  16.437  0.00  0.00    +0.000 A 
ATOM      7  N   UNL     1       4.342   5.756  16.840  0.00  0.00    +0.000 N 
ATOM      8  C   UNL     1       3.564   5.994  17.945  0.00  0.00    +0.000 A 
ATOM      9  O   UNL     1       3.174   7.129  18.210  0.00  0.00    +0.000 OA
ATOM     10  C   UNL     1       3.264   4.802  18.717  0.00  0.00    +0.000 A 
ATOM     11  C   UNL     1       2.524   4.650  19.946  0.00  0.00    +0.000 A 
ATOM     12  C   UNL     1       1.851   5.747  20.710  0.00  0.00    +0.000 C 
ATOM     13  H   UNL     1       4.543   6.569  16.281  0.00  0.00    +0.000 HD
ENDROOT
BRANCH   6  14
ATOM     14  C   UNL     1       5.504   4.446  15.180  0.00  0.00    +0.000 A 
ATOM     15  C   UNL     1       5.038   3.655  14.120  0.00  0.00    +0.000 A 
ATOM     16  C   UNL     1       5.729   3.634  12.910  0.00  0.00    +0.000 A 
ATOM     17  C   UNL     1       6.904   4.369  12.792  0.00  0.00    +0.000 A 
ATOM     18  C   UNL     1       7.379   5.127  13.860  0.00  0.00    +0.000 A 
ATOM     19  C   UNL     1       6.683   5.188  15.052  0.00  0.00    +0.000 A 
BRANCH  17  20
ATOM     20  O   UNL     1       7.639   4.374  11.639  0.00  0.00    +0.000 OA
ATOM     21  H   UNL     1       7.045   4.589  10.900  0.00  0.00    +0.000 HD
ENDBRANCH  17  20
BRANCH  18  22
ATOM     22  O   UNL     1       8.556   5.808  13.749  0.00  0.00    +0.000 OA
ATOM     23  H   UNL     1       8.619   6.327  14.575  0.00  0.00    +0.000 HD
ENDBRANCH  18  22
ENDBRANCH   6  14
TORSDOF 3
ENDMDL
MODEL 3
REMARK VINA RESULT:      -7.4      1.292      1.451
REMARK  Name = 
REMARK  5 active torsions:
REMARK  status: ('A' for Active; 'I' for Inactive)
REMARK    1  A    between atoms: C_1  and  C_2
REMARK    2  A    between atoms: C_6  and  C_7
REMARK    3  A    between atoms: C_10  and  O_11
REMARK    4  A    between atoms: C_12  and  O_13
REMARK    5  A    between atoms: C_19  and  C_20
REMARK                            x       y       z     vdW  Elec       q    Type
REMARK                         _______ _______ _______ _____ _____    ______ ____
ROOT
ATOM      1  C   UNL     1       0.052  10.999  21.914  0.00  0.00    +0.000 C 
ATOM      2  C   UNL     1       0.620   9.884  21.096  0.00  0.00    +0.000 A 
ATOM      3  S   UNL     1       0.710   8.313  21.764  0.00  0.00    +0.000 S 
ATOM      4  C   UNL     1       1.409   7.673  20.352  0.00  0.00    +0.000 A 
ATOM      5  N   UNL     1       1.729   6.359  20.266  0.00  0.00    +0.000 NA
ATOM      6  C   UNL     1       2.321   6.019  19.155  0.00  0.00    +0.000 A 
ATOM      7  N   UNL     1       2.583   6.901  18.128  0.00  0.00    +0.000 N 
ATOM      8  C   UNL     1       2.210   8.221  18.142  0.00  0.00    +0.000 A 
ATOM      9  O   UNL     1       2.396   8.942  17.165  0.00  0.00    +0.000 OA
ATOM     10  C   UNL     1       1.589   8.641  19.386  0.00  0.00    +0.000 A 
ATOM     11  C   UNL     1       1.109   9.937  19.797  0.00  0.00    +0.000 A 
ATOM     12  C   UNL     1       1.126  11.185  18.971  0.00  0.00    +0.000 C 
ATOM     13  H   UNL     1       2.997   6.588  17.265  0.00  0.00    +0.000 HD
ENDROOT
BRANCH   6  14
ATOM     14  C   UNL     1       2.734   4.625  18.914  0.00  0.00    +0.000 A 
ATOM     15  C   UNL     1       2.040   3.854  17.972  0.00  0.00    +0.000 A 
ATOM     16  C   UNL     1       2.450   2.549  17.701  0.00  0.00    +0.000 A 
ATOM     17  C   UNL     1       3.520   2.018  18.412  0.00  0.00    +0.000 A 
ATOM     18  C   UNL     1       4.186   2.780  19.370  0.00  0.00    +0.000 A 
ATOM     19  C   UNL     1       3.814   4.087  19.621  0.00  0.00    +0.000 A 
BRANCH  17  20
ATOM     20  O   UNL     1       3.959   0.739  18.208  0.00  0.00    +0.000 OA
ATOM     21  H   UNL     1       3.399   0.138  18.730  0.00  0.00    +0.000 HD
ENDBRANCH  17  20
BRANCH  18  22
ATOM     22  O   UNL     1       5.206   2.234  20.095  0.00  0.00    +0.000 OA
ATOM     23  H   UNL     1       5.080   2.584  20.999  0.00  0.00    +0.000 HD
ENDBRANCH  18  22
ENDBRANCH   6  14
TORSDOF 3
ENDMDL
MODEL 4
REMARK VINA RESULT:      -7.3      0.986      1.623
REMARK  Name = 
REMARK  5 active torsions:
REMARK  status: ('A' for Active; 'I' for Inactive)
REMARK    1  A    between atoms: C_1  and  C_2
REMARK    2  A    between atoms: C_6  and  C_7
REMARK    3  A    between atoms: C_10  and  O_11
REMARK    4  A    between atoms: C_12  and  O_13
REMARK    5  A    between atoms: C_19  and  C_20
REMARK                            x       y       z     vdW  Elec       q    Type
REMARK                         _______ _______ _______ _____ _____    ______ ____
ROOT
ATOM      1  C   UNL     1      -0.247  11.449  21.953  0.00  0.00    +0.000 C 
ATOM      2  C   UNL     1       0.390  10.336  21.187  0.00  0.00    +0.000 A 
ATOM      3  S   UNL     1       0.666   8.834  21.957  0.00  0.00    +0.000 S 
ATOM      4  C   UNL     1       1.360   8.161  20.559  0.00  0.00    +0.000 A 
ATOM      5  N   UNL     1       1.804   6.881  20.549  0.00  0.00    +0.000 NA
ATOM      6  C   UNL     1       2.377   6.517  19.435  0.00  0.00    +0.000 A 
ATOM      7  N   UNL     1       2.505   7.340  18.337  0.00  0.00    +0.000 N 
ATOM      8  C   UNL     1       2.004   8.616  18.278  0.00  0.00    +0.000 A 
ATOM      9  O   UNL     1       2.074   9.276  17.244  0.00  0.00    +0.000 OA
ATOM     10  C   UNL     1       1.401   9.066  19.520  0.00  0.00    +0.000 A 
ATOM     11  C   UNL     1       0.814  10.338  19.864  0.00  0.00    +0.000 A 
ATOM     12  C   UNL     1       0.670  11.517  18.952  0.00  0.00    +0.000 C 
ATOM     13  H   UNL     1       2.908   7.005  17.477  0.00  0.00    +0.000 HD
ENDROOT
BRANCH   6  14
ATOM     14  C   UNL     1       2.915   5.154  19.272  0.00  0.00    +0.000 A 
ATOM     15  C   UNL     1       4.304   4.956  19.283  0.00  0.00    +0.000 A 
ATOM     16  C   UNL     1       4.824   3.667  19.176  0.00  0.00    +0.000 A 
ATOM     17  C   UNL     1       3.949   2.599  19.013  0.00  0.00    +0.000 A 
ATOM     18  C   UNL     1       2.572   2.806  18.971  0.00  0.00    +0.000 A 
ATOM     19  C   UNL     1       2.041   4.074  19.114  0.00  0.00    +0.000 A 
BRANCH  17  20
ATOM     20  O   UNL     1       4.396   1.313  18.883  0.00  0.00    +0.000 OA
ATOM     21  H   UNL     1       3.990   0.928  18.088  0.00  0.00    +0.000 HD
ENDBRANCH  17  20
BRANCH  18  22
ATOM     22  O   UNL     1       1.725   1.756  18.765  0.00  0.00    +0.000 OA
ATOM     23  H   UNL     1       1.959   1.111  19.461  0.00  0.00    +0.000 HD
ENDBRANCH  18  22
ENDBRANCH   6  14
TORSDOF 3
ENDMDL
MODEL 5
REMARK VINA RESULT:      -7.2      2.806      6.819
REMARK  Name = 
REMARK  5 active torsions:
REMARK  status: ('A' for Active; 'I' for Inactive)
REMARK    1  A    between atoms: C_1  and  C_2
REMARK    2  A    between atoms: C_6  and  C_7
REMARK    3  A    between atoms: C_10  and  O_11
REMARK    4  A    between atoms: C_12  and  O_13
REMARK    5  A    between atoms: C_19  and  C_20
REMARK                            x       y       z     vdW  Elec       q    Type
REMARK                         _______ _______ _______ _____ _____    ______ ____
ROOT
ATOM      1  C   UNL     1       3.662   1.550  18.360  0.00  0.00    +0.000 C 
ATOM      2  C   UNL     1       3.388   3.006  18.557  0.00  0.00    +0.000 A 
ATOM      3  S   UNL     1       2.383   3.505  19.847  0.00  0.00    +0.000 S 
ATOM      4  C   UNL     1       2.543   5.146  19.433  0.00  0.00    +0.000 A 
ATOM      5  N   UNL     1       1.927   6.112  20.158  0.00  0.00    +0.000 NA
ATOM      6  C   UNL     1       2.077   7.319  19.688  0.00  0.00    +0.000 A 
ATOM      7  N   UNL     1       2.822   7.615  18.566  0.00  0.00    +0.000 N 
ATOM      8  C   UNL     1       3.523   6.680  17.847  0.00  0.00    +0.000 A 
ATOM      9  O   UNL     1       4.236   7.012  16.904  0.00  0.00    +0.000 OA
ATOM     10  C   UNL     1       3.337   5.319  18.319  0.00  0.00    +0.000 A 
ATOM     11  C   UNL     1       3.860   4.076  17.808  0.00  0.00    +0.000 A 
ATOM     12  C   UNL     1       4.779   3.923  16.636  0.00  0.00    +0.000 C 
ATOM     13  H   UNL     1       2.956   8.567  18.265  0.00  0.00    +0.000 HD
ENDROOT
BRANCH   6  14
ATOM     14  C   UNL     1       1.463   8.475  20.365  0.00  0.00    +0.000 A 
ATOM     15  C   UNL     1       1.024   9.567  19.601  0.00  0.00    +0.000 A 
ATOM     16  C   UNL     1       0.399  10.646  20.224  0.00  0.00    +0.000 A 
ATOM     17  C   UNL     1       0.264  10.639  21.608  0.00  0.00    +0.000 A 
ATOM     18  C   UNL     1       0.731   9.566  22.364  0.00  0.00    +0.000 A 
ATOM     19  C   UNL     1       1.318   8.473  21.755  0.00  0.00    +0.000 A 
BRANCH  17  20
ATOM     20  O   UNL     1      -0.321  11.676  22.281  0.00  0.00    +0.000 OA
ATOM     21  H   UNL     1      -0.912  12.144  21.667  0.00  0.00    +0.000 HD
ENDBRANCH  17  20
BRANCH  18  22
ATOM     22  O   UNL     1       0.634   9.590  23.725  0.00  0.00    +0.000 OA
ATOM     23  H   UNL     1       0.753  10.531  23.963  0.00  0.00    +0.000 HD
ENDBRANCH  18  22
ENDBRANCH   6  14
TORSDOF 3
ENDMDL
MODEL 6
REMARK VINA RESULT:      -7.2      0.724      1.526
REMARK  Name = 
REMARK  5 active torsions:
REMARK  status: ('A' for Active; 'I' for Inactive)
REMARK    1  A    between atoms: C_1  and  C_2
REMARK    2  A    between atoms: C_6  and  C_7
REMARK    3  A    between atoms: C_10  and  O_11
REMARK    4  A    between atoms: C_12  and  O_13
REMARK    5  A    between atoms: C_19  and  C_20
REMARK                            x       y       z     vdW  Elec       q    Type
REMARK                         _______ _______ _______ _____ _____    ______ ____
ROOT
ATOM      1  C   UNL     1      -1.156  11.793  21.786  0.00  0.00    +0.000 C 
ATOM      2  C   UNL     1      -0.326  10.732  21.138  0.00  0.00    +0.000 A 
ATOM      3  S   UNL     1       0.028   9.298  22.000  0.00  0.00    +0.000 S 
ATOM      4  C   UNL     1       0.932   8.659  20.710  0.00  0.00    +0.000 A 
ATOM      5  N   UNL     1       1.511   7.437  20.802  0.00  0.00    +0.000 NA
ATOM      6  C   UNL     1       2.232   7.101  19.769  0.00  0.00    +0.000 A 
ATOM      7  N   UNL     1       2.383   7.896  18.653  0.00  0.00    +0.000 N 
ATOM      8  C   UNL     1       1.757   9.104  18.486  0.00  0.00    +0.000 A 
ATOM      9  O   UNL     1       1.863   9.732  17.435  0.00  0.00    +0.000 OA
ATOM     10  C   UNL     1       0.983   9.527  19.640  0.00  0.00    +0.000 A 
ATOM     11  C   UNL     1       0.230  10.736  19.865  0.00  0.00    +0.000 A 
ATOM     12  C   UNL     1       0.055  11.859  18.891  0.00  0.00    +0.000 C 
ATOM     13  H   UNL     1       2.908   7.578  17.854  0.00  0.00    +0.000 HD
ENDROOT
BRANCH   6  14
ATOM     14  C   UNL     1       2.928   5.803  19.722  0.00  0.00    +0.000 A 
ATOM     15  C   UNL     1       4.069   5.661  18.920  0.00  0.00    +0.000 A 
ATOM     16  C   UNL     1       4.763   4.452  18.904  0.00  0.00    +0.000 A 
ATOM     17  C   UNL     1       4.279   3.387  19.654  0.00  0.00    +0.000 A 
ATOM     18  C   UNL     1       3.126   3.525  20.424  0.00  0.00    +0.000 A 
ATOM     19  C   UNL     1       2.450   4.729  20.480  0.00  0.00    +0.000 A 
BRANCH  17  20
ATOM     20  O   UNL     1       4.902   2.169  19.665  0.00  0.00    +0.000 OA
ATOM     21  H   UNL     1       4.741   1.752  20.528  0.00  0.00    +0.000 HD
ENDBRANCH  17  20
BRANCH  18  22
ATOM     22  O   UNL     1       2.634   2.459  21.121  0.00  0.00    +0.000 OA
ATOM     23  H   UNL     1       3.362   2.199  21.719  0.00  0.00    +0.000 HD
ENDBRANCH  18  22
ENDBRANCH   6  14
TORSDOF 3
ENDMDL
MODEL 7
REMARK VINA RESULT:      -7.2      2.894      7.150
REMARK  Name = 
REMARK  5 active torsions:
REMARK  status: ('A' for Active; 'I' for Inactive)
REMARK    1  A    between atoms: C_1  and  C_2
REMARK    2  A    between atoms: C_6  and  C_7
REMARK    3  A    between atoms: C_10  and  O_11
REMARK    4  A    between atoms: C_12  and  O_13
REMARK    5  A    between atoms: C_19  and  C_20
REMARK                            x       y       z     vdW  Elec       q    Type
REMARK                         _______ _______ _______ _____ _____    ______ ____
ROOT
ATOM      1  C   UNL     1       5.442   4.074  16.406  0.00  0.00    +0.000 C 
ATOM      2  C   UNL     1       4.544   4.766  17.378  0.00  0.00    +0.000 A 
ATOM      3  S   UNL     1       4.185   6.423  17.159  0.00  0.00    +0.000 S 
ATOM      4  C   UNL     1       3.201   6.469  18.545  0.00  0.00    +0.000 A 
ATOM      5  N   UNL     1       2.576   7.612  18.919  0.00  0.00    +0.000 NA
ATOM      6  C   UNL     1       1.913   7.524  20.038  0.00  0.00    +0.000 A 
ATOM      7  N   UNL     1       1.817   6.366  20.779  0.00  0.00    +0.000 N 
ATOM      8  C   UNL     1       2.370   5.169  20.400  0.00  0.00    +0.000 A 
ATOM      9  O   UNL     1       2.183   4.149  21.059  0.00  0.00    +0.000 OA
ATOM     10  C   UNL     1       3.155   5.247  19.182  0.00  0.00    +0.000 A 
ATOM     11  C   UNL     1       3.916   4.231  18.497  0.00  0.00    +0.000 A 
ATOM     12  C   UNL     1       4.041   2.797  18.907  0.00  0.00    +0.000 C 
ATOM     13  H   UNL     1       1.252   6.325  21.612  0.00  0.00    +0.000 HD
ENDROOT
BRANCH   6  14
ATOM     14  C   UNL     1       1.183   8.685  20.578  0.00  0.00    +0.000 A 
ATOM     15  C   UNL     1       0.756   9.697  19.705  0.00  0.00    +0.000 A 
ATOM     16  C   UNL     1       0.024  10.777  20.196  0.00  0.00    +0.000 A 
ATOM     17  C   UNL     1      -0.230  10.854  21.561  0.00  0.00    +0.000 A 
ATOM     18  C   UNL     1       0.225   9.862  22.427  0.00  0.00    +0.000 A 
ATOM     19  C   UNL     1       0.919   8.766  21.948  0.00  0.00    +0.000 A 
BRANCH  17  20
ATOM     20  O   UNL     1      -0.924  11.898  22.109  0.00  0.00    +0.000 OA
ATOM     21  H   UNL     1      -1.493  12.280  21.419  0.00  0.00    +0.000 HD
ENDBRANCH  17  20
BRANCH  18  22
ATOM     22  O   UNL     1       0.010   9.970  23.770  0.00  0.00    +0.000 OA
ATOM     23  H   UNL     1      -0.240  10.906  23.904  0.00  0.00    +0.000 HD
ENDBRANCH  18  22
ENDBRANCH   6  14
TORSDOF 3
ENDMDL
MODEL 8
REMARK VINA RESULT:      -7.0      1.642      2.234
REMARK  Name = 
REMARK  5 active torsions:
REMARK  status: ('A' for Active; 'I' for Inactive)
REMARK    1  A    between atoms: C_1  and  C_2
REMARK    2  A    between atoms: C_6  and  C_7
REMARK    3  A    between atoms: C_10  and  O_11
REMARK    4  A    between atoms: C_12  and  O_13
REMARK    5  A    between atoms: C_19  and  C_20
REMARK                            x       y       z     vdW  Elec       q    Type
REMARK                         _______ _______ _______ _____ _____    ______ ____
ROOT
ATOM      1  C   UNL     1       0.292  12.555  18.428  0.00  0.00    +0.000 C 
ATOM      2  C   UNL     1       0.721  11.228  18.963  0.00  0.00    +0.000 A 
ATOM      3  S   UNL     1       1.481  10.106  17.920  0.00  0.00    +0.000 S 
ATOM      4  C   UNL     1       1.643   8.952  19.158  0.00  0.00    +0.000 A 
ATOM      5  N   UNL     1       2.229   7.753  18.922  0.00  0.00    +0.000 NA
ATOM      6  C   UNL     1       2.223   6.939  19.940  0.00  0.00    +0.000 A 
ATOM      7  N   UNL     1       1.697   7.262  21.173  0.00  0.00    +0.000 N 
ATOM      8  C   UNL     1       1.164   8.488  21.477  0.00  0.00    +0.000 A 
ATOM      9  O   UNL     1       0.784   8.747  22.617  0.00  0.00    +0.000 OA
ATOM     10  C   UNL     1       1.113   9.401  20.350  0.00  0.00    +0.000 A 
ATOM     11  C   UNL     1       0.591  10.742  20.259  0.00  0.00    +0.000 A 
ATOM     12  C   UNL     1      -0.017  11.528  21.378  0.00  0.00    +0.000 C 
ATOM     13  H   UNL     1       1.759   6.623  21.949  0.00  0.00    +0.000 HD
ENDROOT
BRANCH   6  14
ATOM     14  C   UNL     1       2.820   5.595  19.837  0.00  0.00    +0.000 A 
ATOM     15  C   UNL     1       2.078   4.478  20.247  0.00  0.00    +0.000 A 
ATOM     16  C   UNL     1       2.613   3.199  20.111  0.00  0.00    +0.000 A 
ATOM     17  C   UNL     1       3.903   3.057  19.610  0.00  0.00    +0.000 A 
ATOM     18  C   UNL     1       4.647   4.173  19.234  0.00  0.00    +0.000 A 
ATOM     19  C   UNL     1       4.114   5.445  19.328  0.00  0.00    +0.000 A 
BRANCH  17  20
ATOM     20  O   UNL     1       4.493   1.831  19.471  0.00  0.00    +0.000 OA
ATOM     21  H   UNL     1       4.814   1.546  20.343  0.00  0.00    +0.000 HD
ENDBRANCH  17  20
BRANCH  18  22
ATOM     22  O   UNL     1       5.928   4.027  18.787  0.00  0.00    +0.000 OA
ATOM     23  H   UNL     1       6.123   3.076  18.909  0.00  0.00    +0.000 HD
ENDBRANCH  18  22
ENDBRANCH   6  14
TORSDOF 3
ENDMDL
MODEL 9
REMARK VINA RESULT:      -7.0      2.125      2.463
REMARK  Name = 
REMARK  5 active torsions:
REMARK  status: ('A' for Active; 'I' for Inactive)
REMARK    1  A    between atoms: C_1  and  C_2
REMARK    2  A    between atoms: C_6  and  C_7
REMARK    3  A    between atoms: C_10  and  O_11
REMARK    4  A    between atoms: C_12  and  O_13
REMARK    5  A    between atoms: C_19  and  C_20
REMARK                            x       y       z     vdW  Elec       q    Type
REMARK                         _______ _______ _______ _____ _____    ______ ____
ROOT
ATOM      1  C   UNL     1      -0.392   9.663  22.497  0.00  0.00    +0.000 C 
ATOM      2  C   UNL     1       0.416   9.145  21.352  0.00  0.00    +0.000 A 
ATOM      3  S   UNL     1       1.112   7.586  21.451  0.00  0.00    +0.000 S 
ATOM      4  C   UNL     1       1.810   7.720  19.906  0.00  0.00    +0.000 A 
ATOM      5  N   UNL     1       2.542   6.707  19.382  0.00  0.00    +0.000 NA
ATOM      6  C   UNL     1       3.076   6.971  18.222  0.00  0.00    +0.000 A 
ATOM      7  N   UNL     1       2.899   8.163  17.553  0.00  0.00    +0.000 N 
ATOM      8  C   UNL     1       2.106   9.185  18.011  0.00  0.00    +0.000 A 
ATOM      9  O   UNL     1       1.918  10.192  17.333  0.00  0.00    +0.000 OA
ATOM     10  C   UNL     1       1.535   8.939  19.323  0.00  0.00    +0.000 A 
ATOM     11  C   UNL     1       0.698   9.776  20.147  0.00  0.00    +0.000 A 
ATOM     12  C   UNL     1       0.192  11.139  19.790  0.00  0.00    +0.000 C 
ATOM     13  H   UNL     1       3.287   8.308  16.635  0.00  0.00    +0.000 HD
ENDROOT
BRANCH   6  14
ATOM     14  C   UNL     1       3.904   5.970  17.526  0.00  0.00    +0.000 A 
ATOM     15  C   UNL     1       3.575   4.611  17.629  0.00  0.00    +0.000 A 
ATOM     16  C   UNL     1       4.321   3.658  16.938  0.00  0.00    +0.000 A 
ATOM     17  C   UNL     1       5.417   4.075  16.190  0.00  0.00    +0.000 A 
ATOM     18  C   UNL     1       5.759   5.423  16.117  0.00  0.00    +0.000 A 
ATOM     19  C   UNL     1       5.004   6.382  16.766  0.00  0.00    +0.000 A 
BRANCH  17  20
ATOM     20  O   UNL     1       6.202   3.188  15.505  0.00  0.00    +0.000 OA
ATOM     21  H   UNL     1       5.623   2.540  15.071  0.00  0.00    +0.000 HD
ENDBRANCH  17  20
BRANCH  18  22
ATOM     22  O   UNL     1       6.863   5.816  15.418  0.00  0.00    +0.000 OA
ATOM     23  H   UNL     1       6.604   5.726  14.479  0.00  0.00    +0.000 HD
ENDBRANCH  18  22
ENDBRANCH   6  14
TORSDOF 3
ENDMDL
