MODEL 1
REMARK VINA RESULT:      -8.3      0.000      0.000
REMARK  Name = 
REMARK  8 active torsions:
REMARK  status: ('A' for Active; 'I' for Inactive)
REMARK    1  A    between atoms: C_1  and  O_2
REMARK    2  A    between atoms: O_2  and  C_3
REMARK    3  A    between atoms: C_6  and  C_7
REMARK    4  A    between atoms: C_9  and  O_10
REMARK    5  A    between atoms: O_10  and  C_11
REMARK    6  A    between atoms: C_21  and  C_22
REMARK    7  A    between atoms: C_25  and  O_26
REMARK    8  A    between atoms: O_26  and  C_27
REMARK                            x       y       z     vdW  Elec       q    Type
REMARK                         _______ _______ _______ _____ _____    ______ ____
ROOT
ATOM      1  C   UNL     1       4.404   4.865  16.893  0.00  0.00    +0.000 A 
ATOM      2  C   UNL     1       5.274   4.254  15.968  0.00  0.00    +0.000 A 
ATOM      3  C   UNL     1       5.947   5.026  15.042  0.00  0.00    +0.000 A 
ATOM      4  N   UNL     1       5.840   6.365  15.014  0.00  0.00    +0.000 NA
ATOM      5  N   UNL     1       5.017   6.987  15.915  0.00  0.00    +0.000 NA
ATOM      6  C   UNL     1       4.320   6.278  16.842  0.00  0.00    +0.000 A 
ENDROOT
BRANCH   1  10
ATOM      7  C   UNL     1       2.105   2.493  19.690  0.00  0.00    +0.000 A 
ATOM      8  C   UNL     1       3.436   2.810  19.954  0.00  0.00    +0.000 A 
ATOM      9  C   UNL     1       4.183   3.571  19.045  0.00  0.00    +0.000 A 
ATOM     10  C   UNL     1       3.634   3.996  17.823  0.00  0.00    +0.000 A 
ATOM     11  C   UNL     1       2.320   3.578  17.539  0.00  0.00    +0.000 A 
ATOM     12  C   UNL     1       1.550   2.872  18.474  0.00  0.00    +0.000 A 
BRANCH   7  14
ATOM     13  C   UNL     1       1.420   2.386  21.953  0.00  0.00    +0.000 C 
ATOM     14  O   UNL     1       1.469   1.779  20.667  0.00  0.00    +0.000 OA
ENDBRANCH   7  14
ENDBRANCH   1  10
BRANCH   6  15
ATOM     15  C   UNL     1       3.478   7.129  17.723  0.00  0.00    +0.000 A 
ATOM     16  C   UNL     1       2.945   8.348  17.258  0.00  0.00    +0.000 A 
ATOM     17  C   UNL     1       2.035   9.082  18.027  0.00  0.00    +0.000 A 
ATOM     18  C   UNL     1       1.606   8.603  19.263  0.00  0.00    +0.000 A 
ATOM     19  C   UNL     1       2.185   7.449  19.779  0.00  0.00    +0.000 A 
ATOM     20  C   UNL     1       3.140   6.749  19.031  0.00  0.00    +0.000 A 
BRANCH  18  21
ATOM     21  O   UNL     1       0.658   9.350  19.904  0.00  0.00    +0.000 OA
ATOM     22  C   UNL     1       0.458   9.020  21.276  0.00  0.00    +0.000 C 
ENDBRANCH  18  21
ENDBRANCH   6  15
BRANCH   3  23
ATOM     23  O   UNL     1       6.781   4.370  14.147  0.00  0.00    +0.000 OA
BRANCH  23  24
ATOM     24  C   UNL     1       6.194   3.730  13.079  0.00  0.00    +0.000 A 
ATOM     25  C   UNL     1       6.956   2.755  12.433  0.00  0.00    +0.000 A 
ATOM     26  C   UNL     1       6.405   2.037  11.377  0.00  0.00    +0.000 A 
ATOM     27  F   UNL     1       7.138   1.109  10.755  0.00  0.00    +0.000 F 
ATOM     28  C   UNL     1       5.098   2.265  10.961  0.00  0.00    +0.000 A 
ATOM     29  C   UNL     1       4.341   3.215  11.630  0.00  0.00    +0.000 A 
ATOM     30  F   UNL     1       3.071   3.431  11.252  0.00  0.00    +0.000 F 
ATOM     31  C   UNL     1       4.870   3.941  12.694  0.00  0.00    +0.000 A 
ENDBRANCH  23  24
ENDBRANCH   3  23
TORSDOF 6
ENDMDL
MODEL 2
REMARK VINA RESULT:      -8.3      0.348      1.485
REMARK  Name = 
REMARK  8 active torsions:
REMARK  status: ('A' for Active; 'I' for Inactive)
REMARK    1  A    between atoms: C_1  and  O_2
REMARK    2  A    between atoms: O_2  and  C_3
REMARK    3  A    between atoms: C_6  and  C_7
REMARK    4  A    between atoms: C_9  and  O_10
REMARK    5  A    between atoms: O_10  and  C_11
REMARK    6  A    between atoms: C_21  and  C_22
REMARK    7  A    between atoms: C_25  and  O_26
REMARK    8  A    between atoms: O_26  and  C_27
REMARK                            x       y       z     vdW  Elec       q    Type
REMARK                         _______ _______ _______ _____ _____    ______ ____
ROOT
ATOM      1  C   UNL     1       4.473   4.720  16.774  0.00  0.00    +0.000 A 
ATOM      2  C   UNL     1       5.297   4.100  15.814  0.00  0.00    +0.000 A 
ATOM      3  C   UNL     1       5.921   4.862  14.846  0.00  0.00    +0.000 A 
ATOM      4  N   UNL     1       5.808   6.200  14.807  0.00  0.00    +0.000 NA
ATOM      5  N   UNL     1       5.029   6.832  15.740  0.00  0.00    +0.000 NA
ATOM      6  C   UNL     1       4.382   6.133  16.710  0.00  0.00    +0.000 A 
ENDROOT
BRANCH   1  10
ATOM      7  C   UNL     1       2.332   2.377  19.717  0.00  0.00    +0.000 A 
ATOM      8  C   UNL     1       3.688   2.652  19.878  0.00  0.00    +0.000 A 
ATOM      9  C   UNL     1       4.384   3.403  18.921  0.00  0.00    +0.000 A 
ATOM     10  C   UNL     1       3.752   3.861  17.752  0.00  0.00    +0.000 A 
ATOM     11  C   UNL     1       2.408   3.486  17.568  0.00  0.00    +0.000 A 
ATOM     12  C   UNL     1       1.694   2.789  18.553  0.00  0.00    +0.000 A 
BRANCH   7  14
ATOM     13  C   UNL     1       1.297   2.430  21.845  0.00  0.00    +0.000 C 
ATOM     14  O   UNL     1       1.753   1.669  20.733  0.00  0.00    +0.000 OA
ENDBRANCH   7  14
ENDBRANCH   1  10
BRANCH   6  15
ATOM     15  C   UNL     1       3.582   6.992  17.621  0.00  0.00    +0.000 A 
ATOM     16  C   UNL     1       3.067   8.229  17.183  0.00  0.00    +0.000 A 
ATOM     17  C   UNL     1       2.194   8.975  17.984  0.00  0.00    +0.000 A 
ATOM     18  C   UNL     1       1.785   8.491  19.225  0.00  0.00    +0.000 A 
ATOM     19  C   UNL     1       2.349   7.318  19.713  0.00  0.00    +0.000 A 
ATOM     20  C   UNL     1       3.269   6.605  18.933  0.00  0.00    +0.000 A 
BRANCH  18  21
ATOM     21  O   UNL     1       0.871   9.253  19.897  0.00  0.00    +0.000 OA
ATOM     22  C   UNL     1       0.884   9.095  21.314  0.00  0.00    +0.000 C 
ENDBRANCH  18  21
ENDBRANCH   6  15
BRANCH   3  23
ATOM     23  O   UNL     1       6.711   4.196  13.919  0.00  0.00    +0.000 OA
BRANCH  23  24
ATOM     24  C   UNL     1       6.071   3.480  12.933  0.00  0.00    +0.000 A 
ATOM     25  C   UNL     1       4.895   4.030  12.419  0.00  0.00    +0.000 A 
ATOM     26  C   UNL     1       4.226   3.381  11.387  0.00  0.00    +0.000 A 
ATOM     27  F   UNL     1       3.096   3.904  10.900  0.00  0.00    +0.000 F 
ATOM     28  C   UNL     1       4.717   2.198  10.846  0.00  0.00    +0.000 A 
ATOM     29  C   UNL     1       5.901   1.677  11.346  0.00  0.00    +0.000 A 
ATOM     30  F   UNL     1       6.398   0.547  10.820  0.00  0.00    +0.000 F 
ATOM     31  C   UNL     1       6.593   2.313  12.374  0.00  0.00    +0.000 A 
ENDBRANCH  23  24
ENDBRANCH   3  23
TORSDOF 6
ENDMDL
MODEL 3
REMARK VINA RESULT:      -8.2      1.501      2.022
REMARK  Name = 
REMARK  8 active torsions:
REMARK  status: ('A' for Active; 'I' for Inactive)
REMARK    1  A    between atoms: C_1  and  O_2
REMARK    2  A    between atoms: O_2  and  C_3
REMARK    3  A    between atoms: C_6  and  C_7
REMARK    4  A    between atoms: C_9  and  O_10
REMARK    5  A    between atoms: O_10  and  C_11
REMARK    6  A    between atoms: C_21  and  C_22
REMARK    7  A    between atoms: C_25  and  O_26
REMARK    8  A    between atoms: O_26  and  C_27
REMARK                            x       y       z     vdW  Elec       q    Type
REMARK                         _______ _______ _______ _____ _____    ______ ____
ROOT
ATOM      1  C   UNL     1       4.273   5.301  17.744  0.00  0.00    +0.000 A 
ATOM      2  C   UNL     1       5.383   4.732  17.090  0.00  0.00    +0.000 A 
ATOM      3  C   UNL     1       6.190   5.518  16.291  0.00  0.00    +0.000 A 
ATOM      4  N   UNL     1       5.982   6.837  16.144  0.00  0.00    +0.000 NA
ATOM      5  N   UNL     1       4.923   7.421  16.785  0.00  0.00    +0.000 NA
ATOM      6  C   UNL     1       4.088   6.696  17.576  0.00  0.00    +0.000 A 
ENDROOT
BRANCH   1  10
ATOM      7  C   UNL     1       1.606   2.861  20.125  0.00  0.00    +0.000 A 
ATOM      8  C   UNL     1       2.893   3.152  20.573  0.00  0.00    +0.000 A 
ATOM      9  C   UNL     1       3.760   3.935  19.799  0.00  0.00    +0.000 A 
ATOM     10  C   UNL     1       3.380   4.410  18.532  0.00  0.00    +0.000 A 
ATOM     11  C   UNL     1       2.112   4.020  18.062  0.00  0.00    +0.000 A 
ATOM     12  C   UNL     1       1.219   3.291  18.862  0.00  0.00    +0.000 A 
BRANCH   7  14
ATOM     13  C   UNL     1       1.137   2.265  22.367  0.00  0.00    +0.000 C 
ATOM     14  O   UNL     1       0.840   2.122  20.983  0.00  0.00    +0.000 OA
ENDBRANCH   7  14
ENDBRANCH   1  10
BRANCH   6  15
ATOM     15  C   UNL     1       2.996   7.504  18.177  0.00  0.00    +0.000 A 
ATOM     16  C   UNL     1       2.566   7.272  19.499  0.00  0.00    +0.000 A 
ATOM     17  C   UNL     1       1.642   8.120  20.121  0.00  0.00    +0.000 A 
ATOM     18  C   UNL     1       1.150   9.241  19.454  0.00  0.00    +0.000 A 
ATOM     19  C   UNL     1       1.492   9.438  18.121  0.00  0.00    +0.000 A 
ATOM     20  C   UNL     1       2.371   8.553  17.483  0.00  0.00    +0.000 A 
BRANCH  18  21
ATOM     21  O   UNL     1       0.315  10.050  20.171  0.00  0.00    +0.000 OA
ATOM     22  C   UNL     1      -0.170   9.487  21.387  0.00  0.00    +0.000 C 
ENDBRANCH  18  21
ENDBRANCH   6  15
BRANCH   3  23
ATOM     23  O   UNL     1       7.261   4.900  15.660  0.00  0.00    +0.000 OA
BRANCH  23  24
ATOM     24  C   UNL     1       7.183   4.721  14.297  0.00  0.00    +0.000 A 
ATOM     25  C   UNL     1       6.398   3.658  13.847  0.00  0.00    +0.000 A 
ATOM     26  C   UNL     1       6.237   3.451  12.481  0.00  0.00    +0.000 A 
ATOM     27  F   UNL     1       5.491   2.430  12.051  0.00  0.00    +0.000 F 
ATOM     28  C   UNL     1       6.836   4.296  11.553  0.00  0.00    +0.000 A 
ATOM     29  C   UNL     1       7.590   5.365  12.013  0.00  0.00    +0.000 A 
ATOM     30  F   UNL     1       8.157   6.200  11.129  0.00  0.00    +0.000 F 
ATOM     31  C   UNL     1       7.759   5.597  13.376  0.00  0.00    +0.000 A 
ENDBRANCH  23  24
ENDBRANCH   3  23
TORSDOF 6
ENDMDL
MODEL 4
REMARK VINA RESULT:      -8.0      1.511      1.963
REMARK  Name = 
REMARK  8 active torsions:
REMARK  status: ('A' for Active; 'I' for Inactive)
REMARK    1  A    between atoms: C_1  and  O_2
REMARK    2  A    between atoms: O_2  and  C_3
REMARK    3  A    between atoms: C_6  and  C_7
REMARK    4  A    between atoms: C_9  and  O_10
REMARK    5  A    between atoms: O_10  and  C_11
REMARK    6  A    between atoms: C_21  and  C_22
REMARK    7  A    between atoms: C_25  and  O_26
REMARK    8  A    between atoms: O_26  and  C_27
REMARK                            x       y       z     vdW  Elec       q    Type
REMARK                         _______ _______ _______ _____ _____    ______ ____
ROOT
ATOM      1  C   UNL     1       4.270   5.322  17.683  0.00  0.00    +0.000 A 
ATOM      2  C   UNL     1       5.365   4.781  16.982  0.00  0.00    +0.000 A 
ATOM      3  C   UNL     1       6.139   5.594  16.179  0.00  0.00    +0.000 A 
ATOM      4  N   UNL     1       5.915   6.914  16.071  0.00  0.00    +0.000 NA
ATOM      5  N   UNL     1       4.870   7.472  16.759  0.00  0.00    +0.000 NA
ATOM      6  C   UNL     1       4.066   6.718  17.556  0.00  0.00    +0.000 A 
ENDROOT
BRANCH   1  10
ATOM      7  C   UNL     1       1.709   2.794  20.090  0.00  0.00    +0.000 A 
ATOM      8  C   UNL     1       3.033   3.021  20.459  0.00  0.00    +0.000 A 
ATOM      9  C   UNL     1       3.865   3.833  19.676  0.00  0.00    +0.000 A 
ATOM     10  C   UNL     1       3.409   4.402  18.475  0.00  0.00    +0.000 A 
ATOM     11  C   UNL     1       2.099   4.077  18.076  0.00  0.00    +0.000 A 
ATOM     12  C   UNL     1       1.245   3.318  18.889  0.00  0.00    +0.000 A 
BRANCH   7  14
ATOM     13  C   UNL     1       1.136   2.312  22.335  0.00  0.00    +0.000 C 
ATOM     14  O   UNL     1       0.985   2.018  20.951  0.00  0.00    +0.000 OA
ENDBRANCH   7  14
ENDBRANCH   1  10
BRANCH   6  15
ATOM     15  C   UNL     1       2.985   7.500  18.209  0.00  0.00    +0.000 A 
ATOM     16  C   UNL     1       2.592   7.224  19.534  0.00  0.00    +0.000 A 
ATOM     17  C   UNL     1       1.679   8.047  20.206  0.00  0.00    +0.000 A 
ATOM     18  C   UNL     1       1.163   9.184  19.587  0.00  0.00    +0.000 A 
ATOM     19  C   UNL     1       1.468   9.424  18.252  0.00  0.00    +0.000 A 
ATOM     20  C   UNL     1       2.335   8.565  17.565  0.00  0.00    +0.000 A 
BRANCH  18  21
ATOM     21  O   UNL     1       0.342   9.965  20.350  0.00  0.00    +0.000 OA
ATOM     22  C   UNL     1       0.283  11.335  19.960  0.00  0.00    +0.000 C 
ENDBRANCH  18  21
ENDBRANCH   6  15
BRANCH   3  23
ATOM     23  O   UNL     1       7.197   5.004  15.500  0.00  0.00    +0.000 OA
BRANCH  23  24
ATOM     24  C   UNL     1       7.012   4.699  14.171  0.00  0.00    +0.000 A 
ATOM     25  C   UNL     1       7.623   5.544  13.242  0.00  0.00    +0.000 A 
ATOM     26  C   UNL     1       7.516   5.266  11.883  0.00  0.00    +0.000 A 
ATOM     27  F   UNL     1       8.096   6.078  10.995  0.00  0.00    +0.000 F 
ATOM     28  C   UNL     1       6.822   4.149  11.434  0.00  0.00    +0.000 A 
ATOM     29  C   UNL     1       6.245   3.301  12.367  0.00  0.00    +0.000 A 
ATOM     30  F   UNL     1       5.588   2.208  11.948  0.00  0.00    +0.000 F 
ATOM     31  C   UNL     1       6.344   3.556  13.733  0.00  0.00    +0.000 A 
ENDBRANCH  23  24
ENDBRANCH   3  23
TORSDOF 6
ENDMDL
MODEL 5
REMARK VINA RESULT:      -7.8      5.366      9.007
REMARK  Name = 
REMARK  8 active torsions:
REMARK  status: ('A' for Active; 'I' for Inactive)
REMARK    1  A    between atoms: C_1  and  O_2
REMARK    2  A    between atoms: O_2  and  C_3
REMARK    3  A    between atoms: C_6  and  C_7
REMARK    4  A    between atoms: C_9  and  O_10
REMARK    5  A    between atoms: O_10  and  C_11
REMARK    6  A    between atoms: C_21  and  C_22
REMARK    7  A    between atoms: C_25  and  O_26
REMARK    8  A    between atoms: O_26  and  C_27
REMARK                            x       y       z     vdW  Elec       q    Type
REMARK                         _______ _______ _______ _____ _____    ______ ____
ROOT
ATOM      1  C   UNL     1      -0.516  10.608  19.855  0.00  0.00    +0.000 A 
ATOM      2  C   UNL     1      -0.141   9.311  20.256  0.00  0.00    +0.000 A 
ATOM      3  C   UNL     1       0.814   9.143  21.239  0.00  0.00    +0.000 A 
ATOM      4  N   UNL     1       1.379  10.184  21.872  0.00  0.00    +0.000 NA
ATOM      5  N   UNL     1       1.018  11.457  21.517  0.00  0.00    +0.000 NA
ATOM      6  C   UNL     1       0.092  11.684  20.548  0.00  0.00    +0.000 A 
ENDROOT
BRANCH   1  10
ATOM      7  C   UNL     1      -3.429  10.872  16.664  0.00  0.00    +0.000 A 
ATOM      8  C   UNL     1      -2.240  10.169  16.483  0.00  0.00    +0.000 A 
ATOM      9  C   UNL     1      -1.292  10.091  17.513  0.00  0.00    +0.000 A 
ATOM     10  C   UNL     1      -1.488  10.753  18.738  0.00  0.00    +0.000 A 
ATOM     11  C   UNL     1      -2.652  11.535  18.857  0.00  0.00    +0.000 A 
ATOM     12  C   UNL     1      -3.630  11.563  17.853  0.00  0.00    +0.000 A 
BRANCH   7  14
ATOM     13  C   UNL     1      -3.832  10.167  14.441  0.00  0.00    +0.000 C 
ATOM     14  O   UNL     1      -4.291  10.846  15.604  0.00  0.00    +0.000 OA
ENDBRANCH   7  14
ENDBRANCH   1  10
BRANCH   6  15
ATOM     15  C   UNL     1      -0.159  13.127  20.300  0.00  0.00    +0.000 A 
ATOM     16  C   UNL     1       0.426  13.785  19.200  0.00  0.00    +0.000 A 
ATOM     17  C   UNL     1       0.082  15.103  18.876  0.00  0.00    +0.000 A 
ATOM     18  C   UNL     1      -0.879  15.786  19.619  0.00  0.00    +0.000 A 
ATOM     19  C   UNL     1      -1.402  15.188  20.760  0.00  0.00    +0.000 A 
ATOM     20  C   UNL     1      -1.010  13.891  21.114  0.00  0.00    +0.000 A 
BRANCH  18  21
ATOM     21  O   UNL     1      -1.204  17.038  19.178  0.00  0.00    +0.000 OA
ATOM     22  C   UNL     1      -0.698  17.371  17.888  0.00  0.00    +0.000 C 
ENDBRANCH  18  21
ENDBRANCH   6  15
BRANCH   3  23
ATOM     23  O   UNL     1       1.154   7.842  21.584  0.00  0.00    +0.000 OA
BRANCH  23  24
ATOM     24  C   UNL     1       1.614   7.015  20.585  0.00  0.00    +0.000 A 
ATOM     25  C   UNL     1       2.203   7.633  19.479  0.00  0.00    +0.000 A 
ATOM     26  C   UNL     1       2.732   6.854  18.456  0.00  0.00    +0.000 A 
ATOM     27  F   UNL     1       3.289   7.446  17.396  0.00  0.00    +0.000 F 
ATOM     28  C   UNL     1       2.698   5.466  18.522  0.00  0.00    +0.000 A 
ATOM     29  C   UNL     1       2.137   4.864  19.638  0.00  0.00    +0.000 A 
ATOM     30  F   UNL     1       2.116   3.525  19.724  0.00  0.00    +0.000 F 
ATOM     31  C   UNL     1       1.607   5.624  20.678  0.00  0.00    +0.000 A 
ENDBRANCH  23  24
ENDBRANCH   3  23
TORSDOF 6
ENDMDL
MODEL 6
REMARK VINA RESULT:      -7.8      5.396      9.024
REMARK  Name = 
REMARK  8 active torsions:
REMARK  status: ('A' for Active; 'I' for Inactive)
REMARK    1  A    between atoms: C_1  and  O_2
REMARK    2  A    between atoms: O_2  and  C_3
REMARK    3  A    between atoms: C_6  and  C_7
REMARK    4  A    between atoms: C_9  and  O_10
REMARK    5  A    between atoms: O_10  and  C_11
REMARK    6  A    between atoms: C_21  and  C_22
REMARK    7  A    between atoms: C_25  and  O_26
REMARK    8  A    between atoms: O_26  and  C_27
REMARK                            x       y       z     vdW  Elec       q    Type
REMARK                         _______ _______ _______ _____ _____    ______ ____
ROOT
ATOM      1  C   UNL     1      -0.534  10.619  19.852  0.00  0.00    +0.000 A 
ATOM      2  C   UNL     1      -0.129   9.333  20.259  0.00  0.00    +0.000 A 
ATOM      3  C   UNL     1       0.812   9.190  21.259  0.00  0.00    +0.000 A 
ATOM      4  N   UNL     1       1.335  10.246  21.904  0.00  0.00    +0.000 NA
ATOM      5  N   UNL     1       0.945  11.508  21.544  0.00  0.00    +0.000 NA
ATOM      6  C   UNL     1       0.030  11.711  20.558  0.00  0.00    +0.000 A 
ENDROOT
BRANCH   1  10
ATOM      7  C   UNL     1      -3.397  10.808  16.612  0.00  0.00    +0.000 A 
ATOM      8  C   UNL     1      -2.202  10.107  16.463  0.00  0.00    +0.000 A 
ATOM      9  C   UNL     1      -1.271  10.053  17.509  0.00  0.00    +0.000 A 
ATOM     10  C   UNL     1      -1.488  10.738  18.717  0.00  0.00    +0.000 A 
ATOM     11  C   UNL     1      -2.657  11.517  18.803  0.00  0.00    +0.000 A 
ATOM     12  C   UNL     1      -3.619  11.521  17.783  0.00  0.00    +0.000 A 
BRANCH   7  14
ATOM     13  C   UNL     1      -3.730  10.133  14.368  0.00  0.00    +0.000 C 
ATOM     14  O   UNL     1      -4.242  10.758  15.539  0.00  0.00    +0.000 OA
ENDBRANCH   7  14
ENDBRANCH   1  10
BRANCH   6  15
ATOM     15  C   UNL     1      -0.256  13.147  20.307  0.00  0.00    +0.000 A 
ATOM     16  C   UNL     1       0.276  13.805  19.180  0.00  0.00    +0.000 A 
ATOM     17  C   UNL     1      -0.106  15.113  18.857  0.00  0.00    +0.000 A 
ATOM     18  C   UNL     1      -1.052  15.785  19.629  0.00  0.00    +0.000 A 
ATOM     19  C   UNL     1      -1.521  15.188  20.793  0.00  0.00    +0.000 A 
ATOM     20  C   UNL     1      -1.092  13.902  21.145  0.00  0.00    +0.000 A 
BRANCH  18  21
ATOM     21  O   UNL     1      -1.417  17.026  19.189  0.00  0.00    +0.000 OA
ATOM     22  C   UNL     1      -0.412  17.723  18.456  0.00  0.00    +0.000 C 
ENDBRANCH  18  21
ENDBRANCH   6  15
BRANCH   3  23
ATOM     23  O   UNL     1       1.182   7.899  21.610  0.00  0.00    +0.000 OA
BRANCH  23  24
ATOM     24  C   UNL     1       1.688   7.089  20.619  0.00  0.00    +0.000 A 
ATOM     25  C   UNL     1       1.469   5.716  20.755  0.00  0.00    +0.000 A 
ATOM     26  C   UNL     1       1.912   4.847  19.765  0.00  0.00    +0.000 A 
ATOM     27  F   UNL     1       1.707   3.533  19.899  0.00  0.00    +0.000 F 
ATOM     28  C   UNL     1       2.559   5.323  18.631  0.00  0.00    +0.000 A 
ATOM     29  C   UNL     1       2.745   6.690  18.493  0.00  0.00    +0.000 A 
ATOM     30  F   UNL     1       3.350   7.165  17.393  0.00  0.00    +0.000 F 
ATOM     31  C   UNL     1       2.304   7.581  19.468  0.00  0.00    +0.000 A 
ENDBRANCH  23  24
ENDBRANCH   3  23
TORSDOF 6
ENDMDL
MODEL 7
REMARK VINA RESULT:      -7.8      0.547      1.783
REMARK  Name = 
REMARK  8 active torsions:
REMARK  status: ('A' for Active; 'I' for Inactive)
REMARK    1  A    between atoms: C_1  and  O_2
REMARK    2  A    between atoms: O_2  and  C_3
REMARK    3  A    between atoms: C_6  and  C_7
REMARK    4  A    between atoms: C_9  and  O_10
REMARK    5  A    between atoms: O_10  and  C_11
REMARK    6  A    between atoms: C_21  and  C_22
REMARK    7  A    between atoms: C_25  and  O_26
REMARK    8  A    between atoms: O_26  and  C_27
REMARK                            x       y       z     vdW  Elec       q    Type
REMARK                         _______ _______ _______ _____ _____    ______ ____
ROOT
ATOM      1  C   UNL     1       4.382   5.028  17.021  0.00  0.00    +0.000 A 
ATOM      2  C   UNL     1       5.354   4.488  16.156  0.00  0.00    +0.000 A 
ATOM      3  C   UNL     1       5.998   5.305  15.247  0.00  0.00    +0.000 A 
ATOM      4  N   UNL     1       5.764   6.626  15.183  0.00  0.00    +0.000 NA
ATOM      5  N   UNL     1       4.840   7.182  16.027  0.00  0.00    +0.000 NA
ATOM      6  C   UNL     1       4.166   6.426  16.935  0.00  0.00    +0.000 A 
ENDROOT
BRANCH   1  10
ATOM      7  C   UNL     1       2.186   2.496  19.760  0.00  0.00    +0.000 A 
ATOM      8  C   UNL     1       3.490   2.891  20.049  0.00  0.00    +0.000 A 
ATOM      9  C   UNL     1       4.205   3.704  19.158  0.00  0.00    +0.000 A 
ATOM     10  C   UNL     1       3.651   4.106  17.931  0.00  0.00    +0.000 A 
ATOM     11  C   UNL     1       2.369   3.613  17.622  0.00  0.00    +0.000 A 
ATOM     12  C   UNL     1       1.628   2.853  18.538  0.00  0.00    +0.000 A 
BRANCH   7  14
ATOM     13  C   UNL     1       1.495   2.317  22.017  0.00  0.00    +0.000 C 
ATOM     14  O   UNL     1       1.578   1.737  20.720  0.00  0.00    +0.000 OA
ENDBRANCH   7  14
ENDBRANCH   1  10
BRANCH   6  15
ATOM     15  C   UNL     1       3.202   7.207  17.752  0.00  0.00    +0.000 A 
ATOM     16  C   UNL     1       2.887   6.817  19.069  0.00  0.00    +0.000 A 
ATOM     17  C   UNL     1       2.095   7.624  19.895  0.00  0.00    +0.000 A 
ATOM     18  C   UNL     1       1.627   8.856  19.440  0.00  0.00    +0.000 A 
ATOM     19  C   UNL     1       1.850   9.218  18.117  0.00  0.00    +0.000 A 
ATOM     20  C   UNL     1       2.593   8.379  17.276  0.00  0.00    +0.000 A 
BRANCH  18  21
ATOM     21  O   UNL     1       0.928   9.605  20.344  0.00  0.00    +0.000 OA
ATOM     22  C   UNL     1       0.384  10.817  19.828  0.00  0.00    +0.000 C 
ENDBRANCH  18  21
ENDBRANCH   6  15
BRANCH   3  23
ATOM     23  O   UNL     1       6.936   4.716  14.410  0.00  0.00    +0.000 OA
BRANCH  23  24
ATOM     24  C   UNL     1       6.469   3.922  13.387  0.00  0.00    +0.000 A 
ATOM     25  C   UNL     1       5.103   3.995  13.107  0.00  0.00    +0.000 A 
ATOM     26  C   UNL     1       4.576   3.255  12.054  0.00  0.00    +0.000 A 
ATOM     27  F   UNL     1       3.267   3.321  11.791  0.00  0.00    +0.000 F 
ATOM     28  C   UNL     1       5.390   2.452  11.264  0.00  0.00    +0.000 A 
ATOM     29  C   UNL     1       6.749   2.410  11.534  0.00  0.00    +0.000 A 
ATOM     30  F   UNL     1       7.551   1.655  10.767  0.00  0.00    +0.000 F 
ATOM     31  C   UNL     1       7.302   3.148  12.579  0.00  0.00    +0.000 A 
ENDBRANCH  23  24
ENDBRANCH   3  23
TORSDOF 6
ENDMDL
MODEL 8
REMARK VINA RESULT:      -7.6      7.047     12.297
REMARK  Name = 
REMARK  8 active torsions:
REMARK  status: ('A' for Active; 'I' for Inactive)
REMARK    1  A    between atoms: C_1  and  O_2
REMARK    2  A    between atoms: O_2  and  C_3
REMARK    3  A    between atoms: C_6  and  C_7
REMARK    4  A    between atoms: C_9  and  O_10
REMARK    5  A    between atoms: O_10  and  C_11
REMARK    6  A    between atoms: C_21  and  C_22
REMARK    7  A    between atoms: C_25  and  O_26
REMARK    8  A    between atoms: O_26  and  C_27
REMARK                            x       y       z     vdW  Elec       q    Type
REMARK                         _______ _______ _______ _____ _____    ______ ____
ROOT
ATOM      1  C   UNL     1      -1.150  11.668  19.762  0.00  0.00    +0.000 A 
ATOM      2  C   UNL     1      -1.788  12.717  20.452  0.00  0.00    +0.000 A 
ATOM      3  C   UNL     1      -1.258  13.185  21.638  0.00  0.00    +0.000 A 
ATOM      4  N   UNL     1      -0.113  12.703  22.148  0.00  0.00    +0.000 NA
ATOM      5  N   UNL     1       0.541  11.697  21.488  0.00  0.00    +0.000 NA
ATOM      6  C   UNL     1       0.061  11.188  20.322  0.00  0.00    +0.000 A 
ENDROOT
BRANCH   1  10
ATOM      7  C   UNL     1      -3.174  10.205  16.227  0.00  0.00    +0.000 A 
ATOM      8  C   UNL     1      -3.212   9.482  17.417  0.00  0.00    +0.000 A 
ATOM      9  C   UNL     1      -2.550   9.951  18.560  0.00  0.00    +0.000 A 
ATOM     10  C   UNL     1      -1.791  11.134  18.531  0.00  0.00    +0.000 A 
ATOM     11  C   UNL     1      -1.689  11.792  17.290  0.00  0.00    +0.000 A 
ATOM     12  C   UNL     1      -2.403  11.359  16.163  0.00  0.00    +0.000 A 
BRANCH   7  14
ATOM     13  C   UNL     1      -3.520  10.098  13.888  0.00  0.00    +0.000 C 
ATOM     14  O   UNL     1      -3.889   9.668  15.193  0.00  0.00    +0.000 OA
ENDBRANCH   7  14
ENDBRANCH   1  10
BRANCH   6  15
ATOM     15  C   UNL     1       0.904  10.100  19.763  0.00  0.00    +0.000 A 
ATOM     16  C   UNL     1       1.142   8.920  20.495  0.00  0.00    +0.000 A 
ATOM     17  C   UNL     1       1.811   7.832  19.920  0.00  0.00    +0.000 A 
ATOM     18  C   UNL     1       2.229   7.882  18.591  0.00  0.00    +0.000 A 
ATOM     19  C   UNL     1       2.083   9.067  17.880  0.00  0.00    +0.000 A 
ATOM     20  C   UNL     1       1.466  10.173  18.479  0.00  0.00    +0.000 A 
BRANCH  18  21
ATOM     21  O   UNL     1       2.802   6.744  18.098  0.00  0.00    +0.000 OA
ATOM     22  C   UNL     1       4.064   6.934  17.463  0.00  0.00    +0.000 C 
ENDBRANCH  18  21
ENDBRANCH   6  15
BRANCH   3  23
ATOM     23  O   UNL     1      -1.938  14.210  22.282  0.00  0.00    +0.000 OA
BRANCH  23  24
ATOM     24  C   UNL     1      -3.229  13.964  22.689  0.00  0.00    +0.000 A 
ATOM     25  C   UNL     1      -3.395  13.073  23.751  0.00  0.00    +0.000 A 
ATOM     26  C   UNL     1      -4.670  12.817  24.243  0.00  0.00    +0.000 A 
ATOM     27  F   UNL     1      -4.828  11.959  25.255  0.00  0.00    +0.000 F 
ATOM     28  C   UNL     1      -5.786  13.446  23.702  0.00  0.00    +0.000 A 
ATOM     29  C   UNL     1      -5.605  14.351  22.667  0.00  0.00    +0.000 A 
ATOM     30  F   UNL     1      -6.671  14.981  22.149  0.00  0.00    +0.000 F 
ATOM     31  C   UNL     1      -4.337  14.628  22.163  0.00  0.00    +0.000 A 
ENDBRANCH  23  24
ENDBRANCH   3  23
TORSDOF 6
ENDMDL
MODEL 9
REMARK VINA RESULT:      -7.6      7.172     12.293
REMARK  Name = 
REMARK  8 active torsions:
REMARK  status: ('A' for Active; 'I' for Inactive)
REMARK    1  A    between atoms: C_1  and  O_2
REMARK    2  A    between atoms: O_2  and  C_3
REMARK    3  A    between atoms: C_6  and  C_7
REMARK    4  A    between atoms: C_9  and  O_10
REMARK    5  A    between atoms: O_10  and  C_11
REMARK    6  A    between atoms: C_21  and  C_22
REMARK    7  A    between atoms: C_25  and  O_26
REMARK    8  A    between atoms: O_26  and  C_27
REMARK                            x       y       z     vdW  Elec       q    Type
REMARK                         _______ _______ _______ _____ _____    ______ ____
ROOT
ATOM      1  C   UNL     1      -1.089  11.633  19.824  0.00  0.00    +0.000 A 
ATOM      2  C   UNL     1      -1.708  12.693  20.515  0.00  0.00    +0.000 A 
ATOM      3  C   UNL     1      -1.183  13.134  21.713  0.00  0.00    +0.000 A 
ATOM      4  N   UNL     1      -0.060  12.615  22.236  0.00  0.00    +0.000 NA
ATOM      5  N   UNL     1       0.575  11.597  21.576  0.00  0.00    +0.000 NA
ATOM      6  C   UNL     1       0.098  11.113  20.397  0.00  0.00    +0.000 A 
ENDROOT
BRANCH   1  10
ATOM      7  C   UNL     1      -3.104  10.252  16.250  0.00  0.00    +0.000 A 
ATOM      8  C   UNL     1      -3.109   9.482  17.411  0.00  0.00    +0.000 A 
ATOM      9  C   UNL     1      -2.450   9.925  18.566  0.00  0.00    +0.000 A 
ATOM     10  C   UNL     1      -1.726  11.130  18.578  0.00  0.00    +0.000 A 
ATOM     11  C   UNL     1      -1.655  11.839  17.364  0.00  0.00    +0.000 A 
ATOM     12  C   UNL     1      -2.366  11.430  16.226  0.00  0.00    +0.000 A 
BRANCH   7  14
ATOM     13  C   UNL     1      -3.294  10.006  13.904  0.00  0.00    +0.000 C 
ATOM     14  O   UNL     1      -3.812   9.736  15.202  0.00  0.00    +0.000 OA
ENDBRANCH   7  14
ENDBRANCH   1  10
BRANCH   6  15
ATOM     15  C   UNL     1       0.918  10.007  19.840  0.00  0.00    +0.000 A 
ATOM     16  C   UNL     1       1.187   8.851  20.601  0.00  0.00    +0.000 A 
ATOM     17  C   UNL     1       1.833   7.745  20.035  0.00  0.00    +0.000 A 
ATOM     18  C   UNL     1       2.196   7.750  18.689  0.00  0.00    +0.000 A 
ATOM     19  C   UNL     1       2.021   8.912  17.946  0.00  0.00    +0.000 A 
ATOM     20  C   UNL     1       1.428  10.037  18.532  0.00  0.00    +0.000 A 
BRANCH  18  21
ATOM     21  O   UNL     1       2.750   6.596  18.210  0.00  0.00    +0.000 OA
ATOM     22  C   UNL     1       3.079   5.630  19.205  0.00  0.00    +0.000 C 
ENDBRANCH  18  21
ENDBRANCH   6  15
BRANCH   3  23
ATOM     23  O   UNL     1      -1.843  14.173  22.357  0.00  0.00    +0.000 OA
BRANCH  23  24
ATOM     24  C   UNL     1      -3.104  13.921  22.848  0.00  0.00    +0.000 A 
ATOM     25  C   UNL     1      -4.166  14.571  22.216  0.00  0.00    +0.000 A 
ATOM     26  C   UNL     1      -5.470  14.324  22.632  0.00  0.00    +0.000 A 
ATOM     27  F   UNL     1      -6.485  14.951  22.032  0.00  0.00    +0.000 F 
ATOM     28  C   UNL     1      -5.736  13.426  23.660  0.00  0.00    +0.000 A 
ATOM     29  C   UNL     1      -4.675  12.765  24.260  0.00  0.00    +0.000 A 
ATOM     30  F   UNL     1      -4.918  11.881  25.239  0.00  0.00    +0.000 F 
ATOM     31  C   UNL     1      -3.361  12.992  23.855  0.00  0.00    +0.000 A 
ENDBRANCH  23  24
ENDBRANCH   3  23
TORSDOF 6
ENDMDL
