MODEL 1
REMARK VINA RESULT:      -7.4      0.000      0.000
REMARK  Name = 
REMARK  9 active torsions:
REMARK  status: ('A' for Active; 'I' for Inactive)
REMARK    1  A    between atoms: C_1  and  O_2
REMARK    2  A    between atoms: O_2  and  C_3
REMARK    3  A    between atoms: C_7  and  O_8
REMARK    4  A    between atoms: O_8  and  C_9
REMARK    5  A    between atoms: C_10  and  C_11
REMARK    6  A    between atoms: C_13  and  C_14
REMARK    7  A    between atoms: N_17  and  C_18
REMARK    8  A    between atoms: C_18  and  C_19
REMARK    9  A    between atoms: C_23  and  C_24
REMARK                            x       y       z     vdW  Elec       q    Type
REMARK                         _______ _______ _______ _____ _____    ______ ____
ROOT
ATOM      1  C   UNL     1       4.269   4.254  18.736  0.00  0.00    +0.000 C 
ATOM      2  C   UNL     1       4.562   3.462  17.461  0.00  0.00    +0.000 C 
ATOM      3  C   UNL     1       5.310   4.469  16.589  0.00  0.00    +0.000 C 
ATOM      4  C   UNL     1       6.823   4.325  16.680  0.00  0.00    +0.000 C 
ATOM      5  C   UNL     1       4.860   5.817  17.129  0.00  0.00    +0.000 C 
ATOM      6  O   UNL     1       5.206   6.877  16.630  0.00  0.00    +0.000 OA
ATOM      7  N   UNL     1       4.074   5.616  18.273  0.00  0.00    +0.000 N 
ENDROOT
BRANCH   1  13
ATOM      8  C   UNL     1       3.593   2.820  20.715  0.00  0.00    +0.000 A 
ATOM      9  C   UNL     1       2.665   2.321  21.641  0.00  0.00    +0.000 A 
ATOM     10  C   UNL     1       1.315   2.562  21.468  0.00  0.00    +0.000 A 
ATOM     11  C   UNL     1       0.901   3.320  20.385  0.00  0.00    +0.000 A 
ATOM     12  C   UNL     1       1.812   3.888  19.468  0.00  0.00    +0.000 A 
ATOM     13  C   UNL     1       3.198   3.660  19.630  0.00  0.00    +0.000 A 
BRANCH   8  15
ATOM     14  C   UNL     1       5.245   1.136  20.874  0.00  0.00    +0.000 C 
ATOM     15  O   UNL     1       4.933   2.529  20.848  0.00  0.00    +0.000 OA
ENDBRANCH   8  15
BRANCH  12  16
ATOM     16  O   UNL     1       1.092   4.577  18.537  0.00  0.00    +0.000 OA
ATOM     17  C   UNL     1       1.031   4.258  17.167  0.00  0.00    +0.000 C 
ENDBRANCH  12  16
ENDBRANCH   1  13
BRANCH   7  18
ATOM     18  C   UNL     1       3.839   6.683  19.252  0.00  0.00    +0.000 C 
BRANCH  18  19
ATOM     19  C   UNL     1       2.704   7.631  18.939  0.00  0.00    +0.000 A 
ATOM     20  C   UNL     1       2.430   7.993  17.625  0.00  0.00    +0.000 A 
ATOM     21  C   UNL     1       1.460   8.958  17.389  0.00  0.00    +0.000 A 
ATOM     22  C   UNL     1       0.799   9.536  18.469  0.00  0.00    +0.000 A 
ATOM     23  C   UNL     1       1.077   9.095  19.763  0.00  0.00    +0.000 A 
ATOM     24  N   UNL     1       2.007   8.133  19.995  0.00  0.00    +0.000 NA
BRANCH  23  25
ATOM     25  C   UNL     1       0.382   9.629  20.954  0.00  0.00    +0.000 A 
ATOM     26  C   UNL     1      -0.406  10.794  20.892  0.00  0.00    +0.000 A 
ATOM     27  C   UNL     1      -1.068  11.294  22.020  0.00  0.00    +0.000 A 
ATOM     28  C   UNL     1      -0.959  10.634  23.238  0.00  0.00    +0.000 A 
ATOM     29  C   UNL     1      -0.187   9.477  23.331  0.00  0.00    +0.000 A 
ATOM     30  C   UNL     1       0.474   8.983  22.203  0.00  0.00    +0.000 A 
ENDBRANCH  23  25
ENDBRANCH  18  19
ENDBRANCH   7  18
TORSDOF 6
ENDMDL
MODEL 2
REMARK VINA RESULT:      -7.3      3.885      8.712
REMARK  Name = 
REMARK  9 active torsions:
REMARK  status: ('A' for Active; 'I' for Inactive)
REMARK    1  A    between atoms: C_1  and  O_2
REMARK    2  A    between atoms: O_2  and  C_3
REMARK    3  A    between atoms: C_7  and  O_8
REMARK    4  A    between atoms: O_8  and  C_9
REMARK    5  A    between atoms: C_10  and  C_11
REMARK    6  A    between atoms: C_13  and  C_14
REMARK    7  A    between atoms: N_17  and  C_18
REMARK    8  A    between atoms: C_18  and  C_19
REMARK    9  A    between atoms: C_23  and  C_24
REMARK                            x       y       z     vdW  Elec       q    Type
REMARK                         _______ _______ _______ _____ _____    ______ ____
ROOT
ATOM      1  C   UNL     1      -1.104  12.595  19.371  0.00  0.00    +0.000 C 
ATOM      2  C   UNL     1      -0.813  14.075  19.626  0.00  0.00    +0.000 C 
ATOM      3  C   UNL     1       0.611  14.060  20.178  0.00  0.00    +0.000 C 
ATOM      4  C   UNL     1       1.664  14.335  19.113  0.00  0.00    +0.000 C 
ATOM      5  C   UNL     1       0.764  12.656  20.742  0.00  0.00    +0.000 C 
ATOM      6  O   UNL     1       1.768  12.288  21.333  0.00  0.00    +0.000 OA
ATOM      7  N   UNL     1      -0.372  11.902  20.416  0.00  0.00    +0.000 N 
ENDROOT
BRANCH   1  13
ATOM      8  C   UNL     1      -2.979  11.551  18.021  0.00  0.00    +0.000 A 
ATOM      9  C   UNL     1      -4.299  11.110  17.842  0.00  0.00    +0.000 A 
ATOM     10  C   UNL     1      -5.267  11.423  18.778  0.00  0.00    +0.000 A 
ATOM     11  C   UNL     1      -4.908  12.157  19.896  0.00  0.00    +0.000 A 
ATOM     12  C   UNL     1      -3.578  12.566  20.137  0.00  0.00    +0.000 A 
ATOM     13  C   UNL     1      -2.570  12.248  19.197  0.00  0.00    +0.000 A 
BRANCH   8  15
ATOM     14  C   UNL     1      -2.507  10.615  15.901  0.00  0.00    +0.000 C 
ATOM     15  O   UNL     1      -2.025  11.294  17.061  0.00  0.00    +0.000 OA
ENDBRANCH   8  15
BRANCH  12  16
ATOM     16  O   UNL     1      -3.559  13.250  21.316  0.00  0.00    +0.000 OA
ATOM     17  C   UNL     1      -3.217  12.696  22.565  0.00  0.00    +0.000 C 
ENDBRANCH  12  16
ENDBRANCH   1  13
BRANCH   7  18
ATOM     18  C   UNL     1      -0.365  10.435  20.438  0.00  0.00    +0.000 C 
BRANCH  18  19
ATOM     19  C   UNL     1       0.696   9.765  19.595  0.00  0.00    +0.000 A 
ATOM     20  C   UNL     1       1.175  10.380  18.444  0.00  0.00    +0.000 A 
ATOM     21  C   UNL     1       2.058   9.681  17.634  0.00  0.00    +0.000 A 
ATOM     22  C   UNL     1       2.432   8.388  17.993  0.00  0.00    +0.000 A 
ATOM     23  C   UNL     1       1.961   7.842  19.187  0.00  0.00    +0.000 A 
ATOM     24  N   UNL     1       1.117   8.534  19.994  0.00  0.00    +0.000 NA
BRANCH  23  25
ATOM     25  C   UNL     1       2.351   6.494  19.656  0.00  0.00    +0.000 A 
ATOM     26  C   UNL     1       1.619   5.813  20.647  0.00  0.00    +0.000 A 
ATOM     27  C   UNL     1       1.987   4.535  21.084  0.00  0.00    +0.000 A 
ATOM     28  C   UNL     1       3.095   3.905  20.532  0.00  0.00    +0.000 A 
ATOM     29  C   UNL     1       3.840   4.552  19.547  0.00  0.00    +0.000 A 
ATOM     30  C   UNL     1       3.470   5.829  19.116  0.00  0.00    +0.000 A 
ENDBRANCH  23  25
ENDBRANCH  18  19
ENDBRANCH   7  18
TORSDOF 6
ENDMDL
MODEL 3
REMARK VINA RESULT:      -7.2      3.860      8.573
REMARK  Name = 
REMARK  9 active torsions:
REMARK  status: ('A' for Active; 'I' for Inactive)
REMARK    1  A    between atoms: C_1  and  O_2
REMARK    2  A    between atoms: O_2  and  C_3
REMARK    3  A    between atoms: C_7  and  O_8
REMARK    4  A    between atoms: O_8  and  C_9
REMARK    5  A    between atoms: C_10  and  C_11
REMARK    6  A    between atoms: C_13  and  C_14
REMARK    7  A    between atoms: N_17  and  C_18
REMARK    8  A    between atoms: C_18  and  C_19
REMARK    9  A    between atoms: C_23  and  C_24
REMARK                            x       y       z     vdW  Elec       q    Type
REMARK                         _______ _______ _______ _____ _____    ______ ____
ROOT
ATOM      1  C   UNL     1      -0.914  12.555  19.170  0.00  0.00    +0.000 C 
ATOM      2  C   UNL     1      -0.712  14.066  19.288  0.00  0.00    +0.000 C 
ATOM      3  C   UNL     1       0.676  14.184  19.916  0.00  0.00    +0.000 C 
ATOM      4  C   UNL     1       1.776  14.409  18.887  0.00  0.00    +0.000 C 
ATOM      5  C   UNL     1       0.863  12.854  20.627  0.00  0.00    +0.000 C 
ATOM      6  O   UNL     1       1.847  12.601  21.307  0.00  0.00    +0.000 OA
ATOM      7  N   UNL     1      -0.213  12.010  20.319  0.00  0.00    +0.000 N 
ENDROOT
BRANCH   1  13
ATOM      8  C   UNL     1      -3.347  12.529  19.885  0.00  0.00    +0.000 A 
ATOM      9  C   UNL     1      -4.706  12.243  19.691  0.00  0.00    +0.000 A 
ATOM     10  C   UNL     1      -5.105  11.463  18.622  0.00  0.00    +0.000 A 
ATOM     11  C   UNL     1      -4.146  10.992  17.739  0.00  0.00    +0.000 A 
ATOM     12  C   UNL     1      -2.777  11.310  17.870  0.00  0.00    +0.000 A 
ATOM     13  C   UNL     1      -2.348  12.113  18.953  0.00  0.00    +0.000 A 
BRANCH   8  15
ATOM     14  C   UNL     1      -3.195  12.630  22.242  0.00  0.00    +0.000 C 
ATOM     15  O   UNL     1      -2.938  13.253  20.984  0.00  0.00    +0.000 OA
ENDBRANCH   8  15
BRANCH  12  16
ATOM     16  O   UNL     1      -2.109  10.708  16.846  0.00  0.00    +0.000 OA
ATOM     17  C   UNL     1      -2.652  10.443  15.574  0.00  0.00    +0.000 C 
ENDBRANCH  12  16
ENDBRANCH   1  13
BRANCH   7  18
ATOM     18  C   UNL     1      -0.136  10.555  20.491  0.00  0.00    +0.000 C 
BRANCH  18  19
ATOM     19  C   UNL     1       0.868   9.837  19.619  0.00  0.00    +0.000 A 
ATOM     20  C   UNL     1       1.347  10.433  18.458  0.00  0.00    +0.000 A 
ATOM     21  C   UNL     1       2.174   9.694  17.623  0.00  0.00    +0.000 A 
ATOM     22  C   UNL     1       2.492   8.383  17.968  0.00  0.00    +0.000 A 
ATOM     23  C   UNL     1       2.026   7.856  19.172  0.00  0.00    +0.000 A 
ATOM     24  N   UNL     1       1.238   8.585  20.003  0.00  0.00    +0.000 NA
BRANCH  23  25
ATOM     25  C   UNL     1       2.361   6.488  19.626  0.00  0.00    +0.000 A 
ATOM     26  C   UNL     1       1.622   5.840  20.635  0.00  0.00    +0.000 A 
ATOM     27  C   UNL     1       1.937   4.543  21.058  0.00  0.00    +0.000 A 
ATOM     28  C   UNL     1       2.998   3.861  20.475  0.00  0.00    +0.000 A 
ATOM     29  C   UNL     1       3.748   4.476  19.472  0.00  0.00    +0.000 A 
ATOM     30  C   UNL     1       3.431   5.771  19.055  0.00  0.00    +0.000 A 
ENDBRANCH  23  25
ENDBRANCH  18  19
ENDBRANCH   7  18
TORSDOF 6
ENDMDL
MODEL 4
REMARK VINA RESULT:      -7.2      6.107      8.904
REMARK  Name = 
REMARK  9 active torsions:
REMARK  status: ('A' for Active; 'I' for Inactive)
REMARK    1  A    between atoms: C_1  and  O_2
REMARK    2  A    between atoms: O_2  and  C_3
REMARK    3  A    between atoms: C_7  and  O_8
REMARK    4  A    between atoms: O_8  and  C_9
REMARK    5  A    between atoms: C_10  and  C_11
REMARK    6  A    between atoms: C_13  and  C_14
REMARK    7  A    between atoms: N_17  and  C_18
REMARK    8  A    between atoms: C_18  and  C_19
REMARK    9  A    between atoms: C_23  and  C_24
REMARK                            x       y       z     vdW  Elec       q    Type
REMARK                         _______ _______ _______ _____ _____    ______ ____
ROOT
ATOM      1  C   UNL     1      -0.484  12.456  20.280  0.00  0.00    +0.000 C 
ATOM      2  C   UNL     1       0.774  13.310  20.446  0.00  0.00    +0.000 C 
ATOM      3  C   UNL     1       1.699  12.785  19.350  0.00  0.00    +0.000 C 
ATOM      4  C   UNL     1       1.648  13.622  18.078  0.00  0.00    +0.000 C 
ATOM      5  C   UNL     1       1.187  11.376  19.091  0.00  0.00    +0.000 C 
ATOM      6  O   UNL     1       1.729  10.610  18.309  0.00  0.00    +0.000 OA
ATOM      7  N   UNL     1       0.015  11.169  19.832  0.00  0.00    +0.000 N 
ENDROOT
BRANCH   1  13
ATOM      8  C   UNL     1      -2.582  13.304  21.424  0.00  0.00    +0.000 A 
ATOM      9  C   UNL     1      -3.549  13.286  22.440  0.00  0.00    +0.000 A 
ATOM     10  C   UNL     1      -3.358  12.507  23.566  0.00  0.00    +0.000 A 
ATOM     11  C   UNL     1      -2.213  11.733  23.660  0.00  0.00    +0.000 A 
ATOM     12  C   UNL     1      -1.249  11.681  22.630  0.00  0.00    +0.000 A 
ATOM     13  C   UNL     1      -1.428  12.464  21.466  0.00  0.00    +0.000 A 
BRANCH   8  15
ATOM     14  C   UNL     1      -2.571  15.520  20.598  0.00  0.00    +0.000 C 
ATOM     15  O   UNL     1      -2.738  14.127  20.330  0.00  0.00    +0.000 OA
ENDBRANCH   8  15
BRANCH  12  16
ATOM     16  O   UNL     1      -0.262  10.826  23.024  0.00  0.00    +0.000 OA
ATOM     17  C   UNL     1      -0.377   9.423  23.059  0.00  0.00    +0.000 C 
ENDBRANCH  12  16
ENDBRANCH   1  13
BRANCH   7  18
ATOM     18  C   UNL     1      -0.938  10.104  19.498  0.00  0.00    +0.000 C 
BRANCH  18  19
ATOM     19  C   UNL     1      -1.908  10.409  18.379  0.00  0.00    +0.000 A 
ATOM     20  C   UNL     1      -1.556  10.167  17.056  0.00  0.00    +0.000 A 
ATOM     21  C   UNL     1      -2.424  10.572  16.052  0.00  0.00    +0.000 A 
ATOM     22  C   UNL     1      -3.613  11.210  16.398  0.00  0.00    +0.000 A 
ATOM     23  C   UNL     1      -3.938  11.377  17.744  0.00  0.00    +0.000 A 
ATOM     24  N   UNL     1      -3.102  10.959  18.728  0.00  0.00    +0.000 NA
BRANCH  23  25
ATOM     25  C   UNL     1      -5.203  12.004  18.187  0.00  0.00    +0.000 A 
ATOM     26  C   UNL     1      -6.131  12.530  17.268  0.00  0.00    +0.000 A 
ATOM     27  C   UNL     1      -7.330  13.117  17.689  0.00  0.00    +0.000 A 
ATOM     28  C   UNL     1      -7.631  13.185  19.044  0.00  0.00    +0.000 A 
ATOM     29  C   UNL     1      -6.733  12.671  19.979  0.00  0.00    +0.000 A 
ATOM     30  C   UNL     1      -5.536  12.089  19.553  0.00  0.00    +0.000 A 
ENDBRANCH  23  25
ENDBRANCH  18  19
ENDBRANCH   7  18
TORSDOF 6
ENDMDL
MODEL 5
REMARK VINA RESULT:      -7.2      5.593      8.866
REMARK  Name = 
REMARK  9 active torsions:
REMARK  status: ('A' for Active; 'I' for Inactive)
REMARK    1  A    between atoms: C_1  and  O_2
REMARK    2  A    between atoms: O_2  and  C_3
REMARK    3  A    between atoms: C_7  and  O_8
REMARK    4  A    between atoms: O_8  and  C_9
REMARK    5  A    between atoms: C_10  and  C_11
REMARK    6  A    between atoms: C_13  and  C_14
REMARK    7  A    between atoms: N_17  and  C_18
REMARK    8  A    between atoms: C_18  and  C_19
REMARK    9  A    between atoms: C_23  and  C_24
REMARK                            x       y       z     vdW  Elec       q    Type
REMARK                         _______ _______ _______ _____ _____    ______ ____
ROOT
ATOM      1  C   UNL     1       0.092  11.824  19.856  0.00  0.00    +0.000 C 
ATOM      2  C   UNL     1       0.893  10.564  20.187  0.00  0.00    +0.000 C 
ATOM      3  C   UNL     1       0.706   9.696  18.945  0.00  0.00    +0.000 C 
ATOM      4  C   UNL     1       1.858   9.818  17.955  0.00  0.00    +0.000 C 
ATOM      5  C   UNL     1      -0.588  10.212  18.336  0.00  0.00    +0.000 C 
ATOM      6  O   UNL     1      -1.100   9.707  17.348  0.00  0.00    +0.000 OA
ATOM      7  N   UNL     1      -1.013  11.342  19.048  0.00  0.00    +0.000 N 
ENDROOT
BRANCH   1  13
ATOM      8  C   UNL     1       0.191  14.064  21.040  0.00  0.00    +0.000 A 
ATOM      9  C   UNL     1      -0.170  14.960  22.057  0.00  0.00    +0.000 A 
ATOM     10  C   UNL     1      -0.892  14.516  23.149  0.00  0.00    +0.000 A 
ATOM     11  C   UNL     1      -1.269  13.184  23.208  0.00  0.00    +0.000 A 
ATOM     12  C   UNL     1      -0.974  12.269  22.174  0.00  0.00    +0.000 A 
ATOM     13  C   UNL     1      -0.243  12.704  21.044  0.00  0.00    +0.000 A 
BRANCH   8  15
ATOM     14  C   UNL     1       0.310  15.381  19.079  0.00  0.00    +0.000 C 
ATOM     15  O   UNL     1       0.964  14.488  19.982  0.00  0.00    +0.000 OA
ENDBRANCH   8  15
BRANCH  12  16
ATOM     16  O   UNL     1      -1.489  11.057  22.530  0.00  0.00    +0.000 OA
ATOM     17  C   UNL     1      -0.785  10.056  23.226  0.00  0.00    +0.000 C 
ENDBRANCH  12  16
ENDBRANCH   1  13
BRANCH   7  18
ATOM     18  C   UNL     1      -1.966  12.304  18.483  0.00  0.00    +0.000 C 
BRANCH  18  19
ATOM     19  C   UNL     1      -3.430  11.987  18.689  0.00  0.00    +0.000 A 
ATOM     20  C   UNL     1      -4.195  11.482  17.643  0.00  0.00    +0.000 A 
ATOM     21  C   UNL     1      -5.559  11.318  17.837  0.00  0.00    +0.000 A 
ATOM     22  C   UNL     1      -6.119  11.667  19.063  0.00  0.00    +0.000 A 
ATOM     23  C   UNL     1      -5.294  12.118  20.093  0.00  0.00    +0.000 A 
ATOM     24  N   UNL     1      -3.955  12.255  19.915  0.00  0.00    +0.000 NA
BRANCH  23  25
ATOM     25  C   UNL     1      -5.811  12.463  21.436  0.00  0.00    +0.000 A 
ATOM     26  C   UNL     1      -4.974  12.988  22.440  0.00  0.00    +0.000 A 
ATOM     27  C   UNL     1      -5.467  13.319  23.707  0.00  0.00    +0.000 A 
ATOM     28  C   UNL     1      -6.814  13.139  23.998  0.00  0.00    +0.000 A 
ATOM     29  C   UNL     1      -7.668  12.622  23.024  0.00  0.00    +0.000 A 
ATOM     30  C   UNL     1      -7.171  12.291  21.760  0.00  0.00    +0.000 A 
ENDBRANCH  23  25
ENDBRANCH  18  19
ENDBRANCH   7  18
TORSDOF 6
ENDMDL
MODEL 6
REMARK VINA RESULT:      -7.0      4.448     10.002
REMARK  Name = 
REMARK  9 active torsions:
REMARK  status: ('A' for Active; 'I' for Inactive)
REMARK    1  A    between atoms: C_1  and  O_2
REMARK    2  A    between atoms: O_2  and  C_3
REMARK    3  A    between atoms: C_7  and  O_8
REMARK    4  A    between atoms: O_8  and  C_9
REMARK    5  A    between atoms: C_10  and  C_11
REMARK    6  A    between atoms: C_13  and  C_14
REMARK    7  A    between atoms: N_17  and  C_18
REMARK    8  A    between atoms: C_18  and  C_19
REMARK    9  A    between atoms: C_23  and  C_24
REMARK                            x       y       z     vdW  Elec       q    Type
REMARK                         _______ _______ _______ _____ _____    ______ ____
ROOT
ATOM      1  C   UNL     1      -1.974  14.087  20.664  0.00  0.00    +0.000 C 
ATOM      2  C   UNL     1      -1.232  15.406  20.878  0.00  0.00    +0.000 C 
ATOM      3  C   UNL     1      -0.070  15.317  19.890  0.00  0.00    +0.000 C 
ATOM      4  C   UNL     1      -0.355  16.025  18.572  0.00  0.00    +0.000 C 
ATOM      5  C   UNL     1       0.105  13.822  19.675  0.00  0.00    +0.000 C 
ATOM      6  O   UNL     1       0.998  13.355  18.984  0.00  0.00    +0.000 OA
ATOM      7  N   UNL     1      -0.927  13.138  20.332  0.00  0.00    +0.000 N 
ENDROOT
BRANCH   1  13
ATOM      8  C   UNL     1      -4.290  13.396  21.431  0.00  0.00    +0.000 A 
ATOM      9  C   UNL     1      -5.208  12.937  22.388  0.00  0.00    +0.000 A 
ATOM     10  C   UNL     1      -4.841  12.857  23.719  0.00  0.00    +0.000 A 
ATOM     11  C   UNL     1      -3.552  13.214  24.082  0.00  0.00    +0.000 A 
ATOM     12  C   UNL     1      -2.586  13.622  23.138  0.00  0.00    +0.000 A 
ATOM     13  C   UNL     1      -2.938  13.704  21.771  0.00  0.00    +0.000 A 
BRANCH   8  15
ATOM     14  C   UNL     1      -5.894  14.247  19.917  0.00  0.00    +0.000 C 
ATOM     15  O   UNL     1      -4.671  13.537  20.115  0.00  0.00    +0.000 OA
ENDBRANCH   8  15
BRANCH  12  16
ATOM     16  O   UNL     1      -1.430  13.888  23.811  0.00  0.00    +0.000 OA
ATOM     17  C   UNL     1      -1.195  15.041  24.585  0.00  0.00    +0.000 C 
ENDBRANCH  12  16
ENDBRANCH   1  13
BRANCH   7  18
ATOM     18  C   UNL     1      -1.288  11.758  19.988  0.00  0.00    +0.000 C 
BRANCH  18  19
ATOM     19  C   UNL     1      -0.540  10.672  20.728  0.00  0.00    +0.000 A 
ATOM     20  C   UNL     1      -0.598  10.596  22.115  0.00  0.00    +0.000 A 
ATOM     21  C   UNL     1       0.197   9.662  22.764  0.00  0.00    +0.000 A 
ATOM     22  C   UNL     1       1.030   8.838  22.011  0.00  0.00    +0.000 A 
ATOM     23  C   UNL     1       1.007   8.922  20.619  0.00  0.00    +0.000 A 
ATOM     24  N   UNL     1       0.210   9.817  19.981  0.00  0.00    +0.000 NA
BRANCH  23  25
ATOM     25  C   UNL     1       1.829   8.049  19.754  0.00  0.00    +0.000 A 
ATOM     26  C   UNL     1       2.195   6.748  20.148  0.00  0.00    +0.000 A 
ATOM     27  C   UNL     1       2.968   5.921  19.324  0.00  0.00    +0.000 A 
ATOM     28  C   UNL     1       3.387   6.377  18.080  0.00  0.00    +0.000 A 
ATOM     29  C   UNL     1       3.039   7.661  17.661  0.00  0.00    +0.000 A 
ATOM     30  C   UNL     1       2.270   8.483  18.488  0.00  0.00    +0.000 A 
ENDBRANCH  23  25
ENDBRANCH  18  19
ENDBRANCH   7  18
TORSDOF 6
ENDMDL
MODEL 7
REMARK VINA RESULT:      -6.9      6.567     10.322
REMARK  Name = 
REMARK  9 active torsions:
REMARK  status: ('A' for Active; 'I' for Inactive)
REMARK    1  A    between atoms: C_1  and  O_2
REMARK    2  A    between atoms: O_2  and  C_3
REMARK    3  A    between atoms: C_7  and  O_8
REMARK    4  A    between atoms: O_8  and  C_9
REMARK    5  A    between atoms: C_10  and  C_11
REMARK    6  A    between atoms: C_13  and  C_14
REMARK    7  A    between atoms: N_17  and  C_18
REMARK    8  A    between atoms: C_18  and  C_19
REMARK    9  A    between atoms: C_23  and  C_24
REMARK                            x       y       z     vdW  Elec       q    Type
REMARK                         _______ _______ _______ _____ _____    ______ ____
ROOT
ATOM      1  C   UNL     1      -1.222  13.598  22.814  0.00  0.00    +0.000 C 
ATOM      2  C   UNL     1      -0.559  14.951  23.078  0.00  0.00    +0.000 C 
ATOM      3  C   UNL     1      -1.623  15.714  23.864  0.00  0.00    +0.000 C 
ATOM      4  C   UNL     1      -1.414  15.642  25.371  0.00  0.00    +0.000 C 
ATOM      5  C   UNL     1      -2.923  15.032  23.465  0.00  0.00    +0.000 C 
ATOM      6  O   UNL     1      -4.016  15.417  23.851  0.00  0.00    +0.000 OA
ATOM      7  N   UNL     1      -2.632  13.914  22.670  0.00  0.00    +0.000 N 
ENDROOT
BRANCH   1  13
ATOM      8  C   UNL     1      -0.405  13.349  20.426  0.00  0.00    +0.000 A 
ATOM      9  C   UNL     1       0.273  12.677  19.398  0.00  0.00    +0.000 A 
ATOM     10  C   UNL     1       0.719  11.382  19.592  0.00  0.00    +0.000 A 
ATOM     11  C   UNL     1       0.504  10.775  20.818  0.00  0.00    +0.000 A 
ATOM     12  C   UNL     1      -0.121  11.442  21.893  0.00  0.00    +0.000 A 
ATOM     13  C   UNL     1      -0.578  12.769  21.719  0.00  0.00    +0.000 A 
BRANCH   8  15
ATOM     14  C   UNL     1      -0.444  15.254  19.027  0.00  0.00    +0.000 C 
ATOM     15  O   UNL     1      -0.906  14.615  20.217  0.00  0.00    +0.000 OA
ENDBRANCH   8  15
BRANCH  12  16
ATOM     16  O   UNL     1      -0.168  10.580  22.949  0.00  0.00    +0.000 OA
ATOM     17  C   UNL     1      -0.125   9.176  22.847  0.00  0.00    +0.000 C 
ENDBRANCH  12  16
ENDBRANCH   1  13
BRANCH   7  18
ATOM     18  C   UNL     1      -3.597  12.827  22.474  0.00  0.00    +0.000 C 
BRANCH  18  19
ATOM     19  C   UNL     1      -4.349  12.837  21.163  0.00  0.00    +0.000 A 
ATOM     20  C   UNL     1      -5.605  13.427  21.075  0.00  0.00    +0.000 A 
ATOM     21  C   UNL     1      -6.314  13.309  19.888  0.00  0.00    +0.000 A 
ATOM     22  C   UNL     1      -5.752  12.603  18.828  0.00  0.00    +0.000 A 
ATOM     23  C   UNL     1      -4.466  12.078  18.955  0.00  0.00    +0.000 A 
ATOM     24  N   UNL     1      -3.760  12.214  20.106  0.00  0.00    +0.000 NA
BRANCH  23  25
ATOM     25  C   UNL     1      -3.787  11.356  17.856  0.00  0.00    +0.000 A 
ATOM     26  C   UNL     1      -4.212  11.472  16.519  0.00  0.00    +0.000 A 
ATOM     27  C   UNL     1      -3.563  10.793  15.480  0.00  0.00    +0.000 A 
ATOM     28  C   UNL     1      -2.468   9.985  15.758  0.00  0.00    +0.000 A 
ATOM     29  C   UNL     1      -2.022   9.850  17.072  0.00  0.00    +0.000 A 
ATOM     30  C   UNL     1      -2.674  10.529  18.105  0.00  0.00    +0.000 A 
ENDBRANCH  23  25
ENDBRANCH  18  19
ENDBRANCH   7  18
TORSDOF 6
ENDMDL
MODEL 8
REMARK VINA RESULT:      -6.7      5.948     10.764
REMARK  Name = 
REMARK  9 active torsions:
REMARK  status: ('A' for Active; 'I' for Inactive)
REMARK    1  A    between atoms: C_1  and  O_2
REMARK    2  A    between atoms: O_2  and  C_3
REMARK    3  A    between atoms: C_7  and  O_8
REMARK    4  A    between atoms: O_8  and  C_9
REMARK    5  A    between atoms: C_10  and  C_11
REMARK    6  A    between atoms: C_13  and  C_14
REMARK    7  A    between atoms: N_17  and  C_18
REMARK    8  A    between atoms: C_18  and  C_19
REMARK    9  A    between atoms: C_23  and  C_24
REMARK                            x       y       z     vdW  Elec       q    Type
REMARK                         _______ _______ _______ _____ _____    ______ ____
ROOT
ATOM      1  C   UNL     1       1.778  16.163  19.897  0.00  0.00    +0.000 C 
ATOM      2  C   UNL     1       1.738  16.597  21.363  0.00  0.00    +0.000 C 
ATOM      3  C   UNL     1       2.325  15.395  22.099  0.00  0.00    +0.000 C 
ATOM      4  C   UNL     1       3.812  15.547  22.394  0.00  0.00    +0.000 C 
ATOM      5  C   UNL     1       2.078  14.235  21.148  0.00  0.00    +0.000 C 
ATOM      6  O   UNL     1       2.360  13.080  21.429  0.00  0.00    +0.000 OA
ATOM      7  N   UNL     1       1.556  14.729  19.944  0.00  0.00    +0.000 N 
ENDROOT
BRANCH   1  13
ATOM      8  C   UNL     1       1.510  17.655  17.864  0.00  0.00    +0.000 A 
ATOM      9  C   UNL     1       0.750  18.338  16.903  0.00  0.00    +0.000 A 
ATOM     10  C   UNL     1      -0.620  18.444  17.050  0.00  0.00    +0.000 A 
ATOM     11  C   UNL     1      -1.226  17.848  18.144  0.00  0.00    +0.000 A 
ATOM     12  C   UNL     1      -0.500  17.102  19.097  0.00  0.00    +0.000 A 
ATOM     13  C   UNL     1       0.902  16.974  18.962  0.00  0.00    +0.000 A 
BRANCH   8  15
ATOM     14  C   UNL     1       3.374  16.618  16.843  0.00  0.00    +0.000 C 
ATOM     15  O   UNL     1       2.882  17.600  17.755  0.00  0.00    +0.000 OA
ENDBRANCH   8  15
BRANCH  12  16
ATOM     16  O   UNL     1      -1.383  16.643  20.029  0.00  0.00    +0.000 OA
ATOM     17  C   UNL     1      -1.888  17.401  21.104  0.00  0.00    +0.000 C 
ENDBRANCH  12  16
ENDBRANCH   1  13
BRANCH   7  18
ATOM     18  C   UNL     1       1.600  13.953  18.700  0.00  0.00    +0.000 C 
BRANCH  18  19
ATOM     19  C   UNL     1       0.751  12.702  18.669  0.00  0.00    +0.000 A 
ATOM     20  C   UNL     1      -0.637  12.792  18.664  0.00  0.00    +0.000 A 
ATOM     21  C   UNL     1      -1.379  11.624  18.758  0.00  0.00    +0.000 A 
ATOM     22  C   UNL     1      -0.717  10.403  18.858  0.00  0.00    +0.000 A 
ATOM     23  C   UNL     1       0.676  10.369  18.804  0.00  0.00    +0.000 A 
ATOM     24  N   UNL     1       1.405  11.509  18.687  0.00  0.00    +0.000 NA
BRANCH  23  25
ATOM     25  C   UNL     1       1.446   9.107  18.859  0.00  0.00    +0.000 A 
ATOM     26  C   UNL     1       1.446   8.288  20.004  0.00  0.00    +0.000 A 
ATOM     27  C   UNL     1       2.171   7.091  20.051  0.00  0.00    +0.000 A 
ATOM     28  C   UNL     1       2.909   6.683  18.947  0.00  0.00    +0.000 A 
ATOM     29  C   UNL     1       2.928   7.472  17.797  0.00  0.00    +0.000 A 
ATOM     30  C   UNL     1       2.205   8.667  17.756  0.00  0.00    +0.000 A 
ENDBRANCH  23  25
ENDBRANCH  18  19
ENDBRANCH   7  18
TORSDOF 6
ENDMDL
MODEL 9
REMARK VINA RESULT:      -6.7      5.171     10.702
REMARK  Name = 
REMARK  9 active torsions:
REMARK  status: ('A' for Active; 'I' for Inactive)
REMARK    1  A    between atoms: C_1  and  O_2
REMARK    2  A    between atoms: O_2  and  C_3
REMARK    3  A    between atoms: C_7  and  O_8
REMARK    4  A    between atoms: O_8  and  C_9
REMARK    5  A    between atoms: C_10  and  C_11
REMARK    6  A    between atoms: C_13  and  C_14
REMARK    7  A    between atoms: N_17  and  C_18
REMARK    8  A    between atoms: C_18  and  C_19
REMARK    9  A    between atoms: C_23  and  C_24
REMARK                            x       y       z     vdW  Elec       q    Type
REMARK                         _______ _______ _______ _____ _____    ______ ____
ROOT
ATOM      1  C   UNL     1      -1.689  15.422  21.099  0.00  0.00    +0.000 C 
ATOM      2  C   UNL     1      -0.652  16.519  20.854  0.00  0.00    +0.000 C 
ATOM      3  C   UNL     1      -0.082  16.160  19.483  0.00  0.00    +0.000 C 
ATOM      4  C   UNL     1      -0.741  16.930  18.346  0.00  0.00    +0.000 C 
ATOM      5  C   UNL     1      -0.357  14.670  19.358  0.00  0.00    +0.000 C 
ATOM      6  O   UNL     1       0.020  14.006  18.403  0.00  0.00    +0.000 OA
ATOM      7  N   UNL     1      -1.130  14.250  20.450  0.00  0.00    +0.000 N 
ENDROOT
BRANCH   1  13
ATOM      8  C   UNL     1      -3.530  15.089  22.811  0.00  0.00    +0.000 A 
ATOM      9  C   UNL     1      -4.005  14.845  24.108  0.00  0.00    +0.000 A 
ATOM     10  C   UNL     1      -3.133  14.866  25.181  0.00  0.00    +0.000 A 
ATOM     11  C   UNL     1      -1.789  15.109  24.949  0.00  0.00    +0.000 A 
ATOM     12  C   UNL     1      -1.268  15.300  23.652  0.00  0.00    +0.000 A 
ATOM     13  C   UNL     1      -2.141  15.274  22.539  0.00  0.00    +0.000 A 
BRANCH   8  15
ATOM     14  C   UNL     1      -5.785  15.176  22.106  0.00  0.00    +0.000 C 
ATOM     15  O   UNL     1      -4.404  15.132  21.747  0.00  0.00    +0.000 OA
ENDBRANCH   8  15
BRANCH  12  16
ATOM     16  O   UNL     1       0.076  15.501  23.767  0.00  0.00    +0.000 OA
ATOM     17  C   UNL     1       0.685  16.743  24.031  0.00  0.00    +0.000 C 
ENDBRANCH  12  16
ENDBRANCH   1  13
BRANCH   7  18
ATOM     18  C   UNL     1      -1.904  13.004  20.423  0.00  0.00    +0.000 C 
BRANCH  18  19
ATOM     19  C   UNL     1      -1.266  11.813  21.101  0.00  0.00    +0.000 A 
ATOM     20  C   UNL     1      -1.406  11.624  22.472  0.00  0.00    +0.000 A 
ATOM     21  C   UNL     1      -0.706  10.588  23.075  0.00  0.00    +0.000 A 
ATOM     22  C   UNL     1       0.115   9.777  22.295  0.00  0.00    +0.000 A 
ATOM     23  C   UNL     1       0.174   9.981  20.917  0.00  0.00    +0.000 A 
ATOM     24  N   UNL     1      -0.529  10.977  20.320  0.00  0.00    +0.000 NA
BRANCH  23  25
ATOM     25  C   UNL     1       0.988   9.131  20.020  0.00  0.00    +0.000 A 
ATOM     26  C   UNL     1       1.239   9.492  18.682  0.00  0.00    +0.000 A 
ATOM     27  C   UNL     1       2.015   8.689  17.838  0.00  0.00    +0.000 A 
ATOM     28  C   UNL     1       2.563   7.506  18.316  0.00  0.00    +0.000 A 
ATOM     29  C   UNL     1       2.334   7.121  19.637  0.00  0.00    +0.000 A 
ATOM     30  C   UNL     1       1.557   7.925  20.475  0.00  0.00    +0.000 A 
ENDBRANCH  23  25
ENDBRANCH  18  19
ENDBRANCH   7  18
TORSDOF 6
ENDMDL
