MODEL 1
REMARK VINA RESULT:      -8.3      0.000      0.000
REMARK  Name = 
REMARK  8 active torsions:
REMARK  status: ('A' for Active; 'I' for Inactive)
REMARK    1  A    between atoms: C_1  and  O_2
REMARK    2  A    between atoms: O_2  and  C_3
REMARK    3  A    between atoms: C_3  and  C_4
REMARK    4  A    between atoms: C_4  and  C_5
REMARK    5  A    between atoms: C_5  and  N_6
REMARK    6  A    between atoms: C_7  and  C_9
REMARK    7  A    between atoms: C_9  and  N_10
REMARK    8  A    between atoms: C_14  and  C_15
REMARK                            x       y       z     vdW  Elec       q    Type
REMARK                         _______ _______ _______ _____ _____    ______ ____
ROOT
ATOM      1  N   UNL     1       5.358   5.215  16.941  0.00  0.00    +0.000 N 
ATOM      2  C   UNL     1       5.514   6.598  16.971  0.00  0.00    +0.000 A 
ATOM      3  O   UNL     1       6.517   7.120  16.482  0.00  0.00    +0.000 OA
ATOM      4  N   UNL     1       4.541   7.369  17.536  0.00  0.00    +0.000 NA
ATOM      5  C   UNL     1       3.406   6.876  17.929  0.00  0.00    +0.000 A 
ATOM      6  C   UNL     1       3.087   5.431  17.762  0.00  0.00    +0.000 A 
ATOM      7  C   UNL     1       1.822   4.876  18.013  0.00  0.00    +0.000 A 
ATOM      8  C   UNL     1       1.611   3.502  17.901  0.00  0.00    +0.000 A 
ATOM      9  C   UNL     1       2.642   2.684  17.462  0.00  0.00    +0.000 A 
ATOM     10  C   UNL     1       3.880   3.239  17.133  0.00  0.00    +0.000 A 
ATOM     11  C   UNL     1       4.120   4.615  17.285  0.00  0.00    +0.000 A 
ENDROOT
BRANCH   5  12
ATOM     12  C   UNL     1       2.438   7.846  18.540  0.00  0.00    +0.000 A 
ATOM     13  C   UNL     1       1.872   8.829  17.715  0.00  0.00    +0.000 A 
ATOM     14  C   UNL     1       0.916   9.714  18.221  0.00  0.00    +0.000 A 
ATOM     15  C   UNL     1       0.511   9.616  19.551  0.00  0.00    +0.000 A 
ATOM     16  C   UNL     1       1.109   8.679  20.391  0.00  0.00    +0.000 A 
ATOM     17  C   UNL     1       2.099   7.825  19.897  0.00  0.00    +0.000 A 
ENDBRANCH   5  12
BRANCH   1  18
ATOM     18  C   UNL     1       6.475   4.422  16.433  0.00  0.00    +0.000 C 
BRANCH  18  20
ATOM     19  N   UNL     1       5.639   4.013  14.167  0.00  0.00    +0.000 N 
ATOM     20  C   UNL     1       6.650   4.572  14.921  0.00  0.00    +0.000 C 
ATOM     21  O   UNL     1       7.598   5.190  14.445  0.00  0.00    +0.000 OA
ATOM     22  H   UNL     1       4.886   3.524  14.650  0.00  0.00    +0.000 HD
BRANCH  19  23
ATOM     23  C   UNL     1       5.602   4.123  12.723  0.00  0.00    +0.000 C 
BRANCH  23  24
ATOM     24  C   UNL     1       6.483   3.077  12.044  0.00  0.00    +0.000 C 
BRANCH  24  25
ATOM     25  C   UNL     1       5.662   1.888  11.553  0.00  0.00    +0.000 C 
BRANCH  25  27
ATOM     26  C   UNL     1       6.108  -0.411  11.233  0.00  0.00    +0.000 C 
ATOM     27  O   UNL     1       6.540   0.918  10.987  0.00  0.00    +0.000 OA
ENDBRANCH  25  27
ENDBRANCH  24  25
ENDBRANCH  23  24
ENDBRANCH  19  23
ENDBRANCH  18  20
ENDBRANCH   1  18
TORSDOF 7
ENDMDL
MODEL 2
REMARK VINA RESULT:      -8.3      1.074      1.629
REMARK  Name = 
REMARK  8 active torsions:
REMARK  status: ('A' for Active; 'I' for Inactive)
REMARK    1  A    between atoms: C_1  and  O_2
REMARK    2  A    between atoms: O_2  and  C_3
REMARK    3  A    between atoms: C_3  and  C_4
REMARK    4  A    between atoms: C_4  and  C_5
REMARK    5  A    between atoms: C_5  and  N_6
REMARK    6  A    between atoms: C_7  and  C_9
REMARK    7  A    between atoms: C_9  and  N_10
REMARK    8  A    between atoms: C_14  and  C_15
REMARK                            x       y       z     vdW  Elec       q    Type
REMARK                         _______ _______ _______ _____ _____    ______ ____
ROOT
ATOM      1  N   UNL     1       5.535   5.306  17.129  0.00  0.00    +0.000 N 
ATOM      2  C   UNL     1       5.644   6.693  17.164  0.00  0.00    +0.000 A 
ATOM      3  O   UNL     1       6.659   7.246  16.740  0.00  0.00    +0.000 OA
ATOM      4  N   UNL     1       4.610   7.433  17.659  0.00  0.00    +0.000 NA
ATOM      5  C   UNL     1       3.468   6.904  17.978  0.00  0.00    +0.000 A 
ATOM      6  C   UNL     1       3.208   5.448  17.797  0.00  0.00    +0.000 A 
ATOM      7  C   UNL     1       1.948   4.852  17.966  0.00  0.00    +0.000 A 
ATOM      8  C   UNL     1       1.791   3.472  17.846  0.00  0.00    +0.000 A 
ATOM      9  C   UNL     1       2.875   2.688  17.480  0.00  0.00    +0.000 A 
ATOM     10  C   UNL     1       4.113   3.282  17.231  0.00  0.00    +0.000 A 
ATOM     11  C   UNL     1       4.298   4.666  17.393  0.00  0.00    +0.000 A 
ENDROOT
BRANCH   5  12
ATOM     12  C   UNL     1       2.431   7.843  18.519  0.00  0.00    +0.000 A 
ATOM     13  C   UNL     1       2.074   7.732  19.870  0.00  0.00    +0.000 A 
ATOM     14  C   UNL     1       1.163   8.627  20.438  0.00  0.00    +0.000 A 
ATOM     15  C   UNL     1       0.609   9.643  19.662  0.00  0.00    +0.000 A 
ATOM     16  C   UNL     1       0.915   9.726  18.305  0.00  0.00    +0.000 A 
ATOM     17  C   UNL     1       1.791   8.803  17.727  0.00  0.00    +0.000 A 
ENDBRANCH   5  12
BRANCH   1  18
ATOM     18  C   UNL     1       6.708   4.549  16.699  0.00  0.00    +0.000 C 
BRANCH  18  20
ATOM     19  N   UNL     1       6.057   3.880  14.435  0.00  0.00    +0.000 N 
ATOM     20  C   UNL     1       6.931   4.635  15.189  0.00  0.00    +0.000 C 
ATOM     21  O   UNL     1       7.794   5.366  14.710  0.00  0.00    +0.000 OA
ATOM     22  H   UNL     1       5.366   3.307  14.920  0.00  0.00    +0.000 HD
BRANCH  19  23
ATOM     23  C   UNL     1       6.073   3.896  12.986  0.00  0.00    +0.000 C 
BRANCH  23  24
ATOM     24  C   UNL     1       5.745   2.529  12.392  0.00  0.00    +0.000 C 
BRANCH  24  25
ATOM     25  C   UNL     1       4.982   2.659  11.077  0.00  0.00    +0.000 C 
BRANCH  25  27
ATOM     26  C   UNL     1       3.204   3.824  10.043  0.00  0.00    +0.000 C 
ATOM     27  O   UNL     1       3.914   3.588  11.249  0.00  0.00    +0.000 OA
ENDBRANCH  25  27
ENDBRANCH  24  25
ENDBRANCH  23  24
ENDBRANCH  19  23
ENDBRANCH  18  20
ENDBRANCH   1  18
TORSDOF 7
ENDMDL
MODEL 3
REMARK VINA RESULT:      -8.1      0.353      1.033
REMARK  Name = 
REMARK  8 active torsions:
REMARK  status: ('A' for Active; 'I' for Inactive)
REMARK    1  A    between atoms: C_1  and  O_2
REMARK    2  A    between atoms: O_2  and  C_3
REMARK    3  A    between atoms: C_3  and  C_4
REMARK    4  A    between atoms: C_4  and  C_5
REMARK    5  A    between atoms: C_5  and  N_6
REMARK    6  A    between atoms: C_7  and  C_9
REMARK    7  A    between atoms: C_9  and  N_10
REMARK    8  A    between atoms: C_14  and  C_15
REMARK                            x       y       z     vdW  Elec       q    Type
REMARK                         _______ _______ _______ _____ _____    ______ ____
ROOT
ATOM      1  N   UNL     1       5.428   5.217  17.008  0.00  0.00    +0.000 N 
ATOM      2  C   UNL     1       5.542   6.604  17.029  0.00  0.00    +0.000 A 
ATOM      3  O   UNL     1       6.531   7.152  16.542  0.00  0.00    +0.000 OA
ATOM      4  N   UNL     1       4.541   7.349  17.582  0.00  0.00    +0.000 NA
ATOM      5  C   UNL     1       3.419   6.824  17.971  0.00  0.00    +0.000 A 
ATOM      6  C   UNL     1       3.146   5.368  17.813  0.00  0.00    +0.000 A 
ATOM      7  C   UNL     1       1.897   4.777  18.061  0.00  0.00    +0.000 A 
ATOM      8  C   UNL     1       1.729   3.396  17.957  0.00  0.00    +0.000 A 
ATOM      9  C   UNL     1       2.788   2.607  17.531  0.00  0.00    +0.000 A 
ATOM     10  C   UNL     1       4.010   3.198  17.205  0.00  0.00    +0.000 A 
ATOM     11  C   UNL     1       4.207   4.581  17.348  0.00  0.00    +0.000 A 
ENDROOT
BRANCH   5  12
ATOM     12  C   UNL     1       2.419   7.769  18.569  0.00  0.00    +0.000 A 
ATOM     13  C   UNL     1       2.099   7.626  19.926  0.00  0.00    +0.000 A 
ATOM     14  C   UNL     1       1.224   8.522  20.546  0.00  0.00    +0.000 A 
ATOM     15  C   UNL     1       0.670   9.572  19.815  0.00  0.00    +0.000 A 
ATOM     16  C   UNL     1       0.938   9.688  18.453  0.00  0.00    +0.000 A 
ATOM     17  C   UNL     1       1.777   8.764  17.823  0.00  0.00    +0.000 A 
ENDBRANCH   5  12
BRANCH   1  18
ATOM     18  C   UNL     1       6.572   4.455  16.512  0.00  0.00    +0.000 C 
BRANCH  18  20
ATOM     19  N   UNL     1       5.760   3.984  14.250  0.00  0.00    +0.000 N 
ATOM     20  C   UNL     1       6.746   4.591  14.999  0.00  0.00    +0.000 C 
ATOM     21  O   UNL     1       7.671   5.239  14.517  0.00  0.00    +0.000 OA
ATOM     22  H   UNL     1       5.024   3.472  14.738  0.00  0.00    +0.000 HD
BRANCH  19  23
ATOM     23  C   UNL     1       5.723   4.072  12.804  0.00  0.00    +0.000 C 
BRANCH  23  24
ATOM     24  C   UNL     1       5.762   2.696  12.143  0.00  0.00    +0.000 C 
BRANCH  24  25
ATOM     25  C   UNL     1       7.113   2.429  11.487  0.00  0.00    +0.000 C 
BRANCH  25  27
ATOM     26  C   UNL     1       6.156   0.281  11.248  0.00  0.00    +0.000 C 
ATOM     27  O   UNL     1       7.016   1.258  10.681  0.00  0.00    +0.000 OA
ENDBRANCH  25  27
ENDBRANCH  24  25
ENDBRANCH  23  24
ENDBRANCH  19  23
ENDBRANCH  18  20
ENDBRANCH   1  18
TORSDOF 7
ENDMDL
MODEL 4
REMARK VINA RESULT:      -7.7      1.234      1.504
REMARK  Name = 
REMARK  8 active torsions:
REMARK  status: ('A' for Active; 'I' for Inactive)
REMARK    1  A    between atoms: C_1  and  O_2
REMARK    2  A    between atoms: O_2  and  C_3
REMARK    3  A    between atoms: C_3  and  C_4
REMARK    4  A    between atoms: C_4  and  C_5
REMARK    5  A    between atoms: C_5  and  N_6
REMARK    6  A    between atoms: C_7  and  C_9
REMARK    7  A    between atoms: C_9  and  N_10
REMARK    8  A    between atoms: C_14  and  C_15
REMARK                            x       y       z     vdW  Elec       q    Type
REMARK                         _______ _______ _______ _____ _____    ______ ____
ROOT
ATOM      1  N   UNL     1       5.342   5.189  17.090  0.00  0.00    +0.000 N 
ATOM      2  C   UNL     1       5.479   6.573  17.141  0.00  0.00    +0.000 A 
ATOM      3  O   UNL     1       6.484   7.114  16.680  0.00  0.00    +0.000 OA
ATOM      4  N   UNL     1       4.483   7.324  17.694  0.00  0.00    +0.000 NA
ATOM      5  C   UNL     1       3.347   6.811  18.056  0.00  0.00    +0.000 A 
ATOM      6  C   UNL     1       3.050   5.364  17.864  0.00  0.00    +0.000 A 
ATOM      7  C   UNL     1       1.788   4.790  18.080  0.00  0.00    +0.000 A 
ATOM      8  C   UNL     1       1.598   3.415  17.945  0.00  0.00    +0.000 A 
ATOM      9  C   UNL     1       2.649   2.616  17.519  0.00  0.00    +0.000 A 
ATOM     10  C   UNL     1       3.886   3.191  17.223  0.00  0.00    +0.000 A 
ATOM     11  C   UNL     1       4.105   4.568  17.398  0.00  0.00    +0.000 A 
ENDROOT
BRANCH   5  12
ATOM     12  C   UNL     1       2.354   7.761  18.658  0.00  0.00    +0.000 A 
ATOM     13  C   UNL     1       1.781   8.737  17.830  0.00  0.00    +0.000 A 
ATOM     14  C   UNL     1       0.801   9.601  18.327  0.00  0.00    +0.000 A 
ATOM     15  C   UNL     1       0.382   9.490  19.651  0.00  0.00    +0.000 A 
ATOM     16  C   UNL     1       0.985   8.561  20.496  0.00  0.00    +0.000 A 
ATOM     17  C   UNL     1       1.998   7.728  20.011  0.00  0.00    +0.000 A 
ENDBRANCH   5  12
BRANCH   1  18
ATOM     18  C   UNL     1       6.479   4.417  16.595  0.00  0.00    +0.000 C 
BRANCH  18  20
ATOM     19  N   UNL     1       5.615   4.223  14.311  0.00  0.00    +0.000 N 
ATOM     20  C   UNL     1       6.690   4.596  15.091  0.00  0.00    +0.000 C 
ATOM     21  O   UNL     1       7.725   5.083  14.643  0.00  0.00    +0.000 OA
ATOM     22  H   UNL     1       4.792   3.835  14.772  0.00  0.00    +0.000 HD
BRANCH  19  23
ATOM     23  C   UNL     1       5.609   4.391  12.872  0.00  0.00    +0.000 C 
BRANCH  23  24
ATOM     24  C   UNL     1       5.022   3.179  12.154  0.00  0.00    +0.000 C 
BRANCH  24  25
ATOM     25  C   UNL     1       3.620   3.466  11.626  0.00  0.00    +0.000 C 
BRANCH  25  27
ATOM     26  C   UNL     1       2.927   4.239   9.502  0.00  0.00    +0.000 C 
ATOM     27  O   UNL     1       3.589   3.211  10.224  0.00  0.00    +0.000 OA
ENDBRANCH  25  27
ENDBRANCH  24  25
ENDBRANCH  23  24
ENDBRANCH  19  23
ENDBRANCH  18  20
ENDBRANCH   1  18
TORSDOF 7
ENDMDL
MODEL 5
REMARK VINA RESULT:      -7.5      2.473      4.143
REMARK  Name = 
REMARK  8 active torsions:
REMARK  status: ('A' for Active; 'I' for Inactive)
REMARK    1  A    between atoms: C_1  and  O_2
REMARK    2  A    between atoms: O_2  and  C_3
REMARK    3  A    between atoms: C_3  and  C_4
REMARK    4  A    between atoms: C_4  and  C_5
REMARK    5  A    between atoms: C_5  and  N_6
REMARK    6  A    between atoms: C_7  and  C_9
REMARK    7  A    between atoms: C_9  and  N_10
REMARK    8  A    between atoms: C_14  and  C_15
REMARK                            x       y       z     vdW  Elec       q    Type
REMARK                         _______ _______ _______ _____ _____    ______ ____
ROOT
ATOM      1  N   UNL     1       4.400   5.133  16.679  0.00  0.00    +0.000 N 
ATOM      2  C   UNL     1       4.482   6.517  16.559  0.00  0.00    +0.000 A 
ATOM      3  O   UNL     1       5.245   7.023  15.736  0.00  0.00    +0.000 OA
ATOM      4  N   UNL     1       3.700   7.305  17.352  0.00  0.00    +0.000 NA
ATOM      5  C   UNL     1       2.779   6.815  18.124  0.00  0.00    +0.000 A 
ATOM      6  C   UNL     1       2.502   5.352  18.173  0.00  0.00    +0.000 A 
ATOM      7  C   UNL     1       1.416   4.784  18.858  0.00  0.00    +0.000 A 
ATOM      8  C   UNL     1       1.255   3.401  18.918  0.00  0.00    +0.000 A 
ATOM      9  C   UNL     1       2.135   2.578  18.228  0.00  0.00    +0.000 A 
ATOM     10  C   UNL     1       3.170   3.138  17.478  0.00  0.00    +0.000 A 
ATOM     11  C   UNL     1       3.372   4.528  17.446  0.00  0.00    +0.000 A 
ENDROOT
BRANCH   5  12
ATOM     12  C   UNL     1       2.006   7.805  18.944  0.00  0.00    +0.000 A 
ATOM     13  C   UNL     1       1.463   8.924  18.298  0.00  0.00    +0.000 A 
ATOM     14  C   UNL     1       0.679   9.840  19.005  0.00  0.00    +0.000 A 
ATOM     15  C   UNL     1       0.426   9.639  20.360  0.00  0.00    +0.000 A 
ATOM     16  C   UNL     1       1.007   8.561  21.023  0.00  0.00    +0.000 A 
ATOM     17  C   UNL     1       1.830   7.671  20.326  0.00  0.00    +0.000 A 
ENDBRANCH   5  12
BRANCH   1  18
ATOM     18  C   UNL     1       5.336   4.332  15.894  0.00  0.00    +0.000 C 
BRANCH  18  20
ATOM     19  N   UNL     1       6.907   4.466  17.769  0.00  0.00    +0.000 N 
ATOM     20  C   UNL     1       6.774   4.466  16.396  0.00  0.00    +0.000 C 
ATOM     21  O   UNL     1       7.722   4.516  15.616  0.00  0.00    +0.000 OA
ATOM     22  H   UNL     1       6.063   4.413  18.339  0.00  0.00    +0.000 HD
BRANCH  19  23
ATOM     23  C   UNL     1       8.200   4.511  18.420  0.00  0.00    +0.000 C 
BRANCH  23  24
ATOM     24  C   UNL     1       8.221   5.491  19.591  0.00  0.00    +0.000 C 
BRANCH  24  25
ATOM     25  C   UNL     1       8.510   6.915  19.124  0.00  0.00    +0.000 C 
BRANCH  25  27
ATOM     26  C   UNL     1       7.747   8.603  17.656  0.00  0.00    +0.000 C 
ATOM     27  O   UNL     1       7.598   7.258  18.084  0.00  0.00    +0.000 OA
ENDBRANCH  25  27
ENDBRANCH  24  25
ENDBRANCH  23  24
ENDBRANCH  19  23
ENDBRANCH  18  20
ENDBRANCH   1  18
TORSDOF 7
ENDMDL
MODEL 6
REMARK VINA RESULT:      -7.5      3.045      4.662
REMARK  Name = 
REMARK  8 active torsions:
REMARK  status: ('A' for Active; 'I' for Inactive)
REMARK    1  A    between atoms: C_1  and  O_2
REMARK    2  A    between atoms: O_2  and  C_3
REMARK    3  A    between atoms: C_3  and  C_4
REMARK    4  A    between atoms: C_4  and  C_5
REMARK    5  A    between atoms: C_5  and  N_6
REMARK    6  A    between atoms: C_7  and  C_9
REMARK    7  A    between atoms: C_9  and  N_10
REMARK    8  A    between atoms: C_14  and  C_15
REMARK                            x       y       z     vdW  Elec       q    Type
REMARK                         _______ _______ _______ _____ _____    ______ ____
ROOT
ATOM      1  N   UNL     1       4.370   5.223  17.607  0.00  0.00    +0.000 N 
ATOM      2  C   UNL     1       4.228   6.510  17.096  0.00  0.00    +0.000 A 
ATOM      3  O   UNL     1       4.831   6.841  16.075  0.00  0.00    +0.000 OA
ATOM      4  N   UNL     1       3.406   7.394  17.731  0.00  0.00    +0.000 NA
ATOM      5  C   UNL     1       2.641   7.044  18.719  0.00  0.00    +0.000 A 
ATOM      6  C   UNL     1       2.597   5.638  19.209  0.00  0.00    +0.000 A 
ATOM      7  C   UNL     1       1.674   5.169  20.157  0.00  0.00    +0.000 A 
ATOM      8  C   UNL     1       1.734   3.855  20.620  0.00  0.00    +0.000 A 
ATOM      9  C   UNL     1       2.666   2.980  20.082  0.00  0.00    +0.000 A 
ATOM     10  C   UNL     1       3.535   3.417  19.080  0.00  0.00    +0.000 A 
ATOM     11  C   UNL     1       3.517   4.750  18.637  0.00  0.00    +0.000 A 
ENDROOT
BRANCH   5  12
ATOM     12  C   UNL     1       1.799   8.130  19.322  0.00  0.00    +0.000 A 
ATOM     13  C   UNL     1       1.342   9.158  18.486  0.00  0.00    +0.000 A 
ATOM     14  C   UNL     1       0.500  10.156  18.984  0.00  0.00    +0.000 A 
ATOM     15  C   UNL     1       0.102  10.128  20.320  0.00  0.00    +0.000 A 
ATOM     16  C   UNL     1       0.596   9.142  21.171  0.00  0.00    +0.000 A 
ATOM     17  C   UNL     1       1.475   8.171  20.682  0.00  0.00    +0.000 A 
ENDBRANCH   5  12
BRANCH   1  18
ATOM     18  C   UNL     1       5.347   4.347  16.965  0.00  0.00    +0.000 C 
BRANCH  18  20
ATOM     19  N   UNL     1       6.900   5.557  18.423  0.00  0.00    +0.000 N 
ATOM     20  C   UNL     1       6.784   4.710  17.340  0.00  0.00    +0.000 C 
ATOM     21  O   UNL     1       7.743   4.231  16.740  0.00  0.00    +0.000 OA
ATOM     22  H   UNL     1       6.047   5.900  18.865  0.00  0.00    +0.000 HD
BRANCH  19  23
ATOM     23  C   UNL     1       8.186   5.948  18.964  0.00  0.00    +0.000 C 
BRANCH  23  24
ATOM     24  C   UNL     1       8.405   7.458  18.892  0.00  0.00    +0.000 C 
BRANCH  24  25
ATOM     25  C   UNL     1       7.747   8.060  17.654  0.00  0.00    +0.000 C 
BRANCH  25  27
ATOM     26  C   UNL     1       8.855   9.880  18.677  0.00  0.00    +0.000 C 
ATOM     27  O   UNL     1       7.975   9.466  17.643  0.00  0.00    +0.000 OA
ENDBRANCH  25  27
ENDBRANCH  24  25
ENDBRANCH  23  24
ENDBRANCH  19  23
ENDBRANCH  18  20
ENDBRANCH   1  18
TORSDOF 7
ENDMDL
MODEL 7
REMARK VINA RESULT:      -7.4      2.998      4.695
REMARK  Name = 
REMARK  8 active torsions:
REMARK  status: ('A' for Active; 'I' for Inactive)
REMARK    1  A    between atoms: C_1  and  O_2
REMARK    2  A    between atoms: O_2  and  C_3
REMARK    3  A    between atoms: C_3  and  C_4
REMARK    4  A    between atoms: C_4  and  C_5
REMARK    5  A    between atoms: C_5  and  N_6
REMARK    6  A    between atoms: C_7  and  C_9
REMARK    7  A    between atoms: C_9  and  N_10
REMARK    8  A    between atoms: C_14  and  C_15
REMARK                            x       y       z     vdW  Elec       q    Type
REMARK                         _______ _______ _______ _____ _____    ______ ____
ROOT
ATOM      1  N   UNL     1       4.157   5.178  17.639  0.00  0.00    +0.000 N 
ATOM      2  C   UNL     1       4.107   6.515  17.256  0.00  0.00    +0.000 A 
ATOM      3  O   UNL     1       4.749   6.905  16.281  0.00  0.00    +0.000 OA
ATOM      4  N   UNL     1       3.330   7.384  17.965  0.00  0.00    +0.000 NA
ATOM      5  C   UNL     1       2.525   6.990  18.903  0.00  0.00    +0.000 A 
ATOM      6  C   UNL     1       2.383   5.548  19.250  0.00  0.00    +0.000 A 
ATOM      7  C   UNL     1       1.414   5.049  20.135  0.00  0.00    +0.000 A 
ATOM      8  C   UNL     1       1.381   3.695  20.466  0.00  0.00    +0.000 A 
ATOM      9  C   UNL     1       2.267   2.818  19.856  0.00  0.00    +0.000 A 
ATOM     10  C   UNL     1       3.181   3.294  18.914  0.00  0.00    +0.000 A 
ATOM     11  C   UNL     1       3.256   4.662  18.605  0.00  0.00    +0.000 A 
ENDROOT
BRANCH   5  12
ATOM     12  C   UNL     1       1.742   8.063  19.600  0.00  0.00    +0.000 A 
ATOM     13  C   UNL     1       1.523   7.938  20.978  0.00  0.00    +0.000 A 
ATOM     14  C   UNL     1       0.858   8.944  21.685  0.00  0.00    +0.000 A 
ATOM     15  C   UNL     1       0.416  10.086  21.020  0.00  0.00    +0.000 A 
ATOM     16  C   UNL     1       0.580  10.194  19.641  0.00  0.00    +0.000 A 
ATOM     17  C   UNL     1       1.204   9.166  18.927  0.00  0.00    +0.000 A 
ENDBRANCH   5  12
BRANCH   1  18
ATOM     18  C   UNL     1       5.089   4.308  16.926  0.00  0.00    +0.000 C 
BRANCH  18  20
ATOM     19  N   UNL     1       6.758   5.342  18.391  0.00  0.00    +0.000 N 
ATOM     20  C   UNL     1       6.548   4.670  17.205  0.00  0.00    +0.000 C 
ATOM     21  O   UNL     1       7.449   4.333  16.441  0.00  0.00    +0.000 OA
ATOM     22  H   UNL     1       5.948   5.574  18.967  0.00  0.00    +0.000 HD
BRANCH  19  23
ATOM     23  C   UNL     1       8.083   5.700  18.853  0.00  0.00    +0.000 C 
BRANCH  23  24
ATOM     24  C   UNL     1       8.310   7.210  18.836  0.00  0.00    +0.000 C 
BRANCH  24  25
ATOM     25  C   UNL     1       7.769   7.842  17.557  0.00  0.00    +0.000 C 
BRANCH  25  27
ATOM     26  C   UNL     1       8.778   9.736  18.548  0.00  0.00    +0.000 C 
ATOM     27  O   UNL     1       7.732   9.258  17.716  0.00  0.00    +0.000 OA
ENDBRANCH  25  27
ENDBRANCH  24  25
ENDBRANCH  23  24
ENDBRANCH  19  23
ENDBRANCH  18  20
ENDBRANCH   1  18
TORSDOF 7
ENDMDL
MODEL 8
REMARK VINA RESULT:      -7.4      3.501      5.365
REMARK  Name = 
REMARK  8 active torsions:
REMARK  status: ('A' for Active; 'I' for Inactive)
REMARK    1  A    between atoms: C_1  and  O_2
REMARK    2  A    between atoms: O_2  and  C_3
REMARK    3  A    between atoms: C_3  and  C_4
REMARK    4  A    between atoms: C_4  and  C_5
REMARK    5  A    between atoms: C_5  and  N_6
REMARK    6  A    between atoms: C_7  and  C_9
REMARK    7  A    between atoms: C_9  and  N_10
REMARK    8  A    between atoms: C_14  and  C_15
REMARK                            x       y       z     vdW  Elec       q    Type
REMARK                         _______ _______ _______ _____ _____    ______ ____
ROOT
ATOM      1  N   UNL     1       4.492   5.632  17.943  0.00  0.00    +0.000 N 
ATOM      2  C   UNL     1       4.233   6.803  17.237  0.00  0.00    +0.000 A 
ATOM      3  O   UNL     1       4.841   7.045  16.194  0.00  0.00    +0.000 OA
ATOM      4  N   UNL     1       3.291   7.671  17.704  0.00  0.00    +0.000 NA
ATOM      5  C   UNL     1       2.525   7.387  18.713  0.00  0.00    +0.000 A 
ATOM      6  C   UNL     1       2.614   6.075  19.412  0.00  0.00    +0.000 A 
ATOM      7  C   UNL     1       1.706   5.649  20.395  0.00  0.00    +0.000 A 
ATOM      8  C   UNL     1       1.889   4.435  21.056  0.00  0.00    +0.000 A 
ATOM      9  C   UNL     1       2.935   3.603  20.685  0.00  0.00    +0.000 A 
ATOM     10  C   UNL     1       3.795   3.982  19.652  0.00  0.00    +0.000 A 
ATOM     11  C   UNL     1       3.651   5.223  19.009  0.00  0.00    +0.000 A 
ENDROOT
BRANCH   5  12
ATOM     12  C   UNL     1       1.542   8.447  19.118  0.00  0.00    +0.000 A 
ATOM     13  C   UNL     1       0.954   9.227  18.113  0.00  0.00    +0.000 A 
ATOM     14  C   UNL     1      -0.016  10.180  18.432  0.00  0.00    +0.000 A 
ATOM     15  C   UNL     1      -0.412  10.354  19.757  0.00  0.00    +0.000 A 
ATOM     16  C   UNL     1       0.207   9.623  20.768  0.00  0.00    +0.000 A 
ATOM     17  C   UNL     1       1.211   8.702  20.453  0.00  0.00    +0.000 A 
ENDBRANCH   5  12
BRANCH   1  18
ATOM     18  C   UNL     1       5.588   4.789  17.471  0.00  0.00    +0.000 C 
BRANCH  18  20
ATOM     19  N   UNL     1       7.060   6.695  17.916  0.00  0.00    +0.000 N 
ATOM     20  C   UNL     1       6.955   5.320  17.903  0.00  0.00    +0.000 C 
ATOM     21  O   UNL     1       7.854   4.561  18.255  0.00  0.00    +0.000 OA
ATOM     22  H   UNL     1       6.257   7.247  17.614  0.00  0.00    +0.000 HD
BRANCH  19  23
ATOM     23  C   UNL     1       8.257   7.375  18.368  0.00  0.00    +0.000 C 
BRANCH  23  24
ATOM     24  C   UNL     1       8.266   8.849  17.971  0.00  0.00    +0.000 C 
BRANCH  24  25
ATOM     25  C   UNL     1       9.023   9.697  18.988  0.00  0.00    +0.000 C 
BRANCH  25  27
ATOM     26  C   UNL     1       9.534  12.003  19.092  0.00  0.00    +0.000 C 
ATOM     27  O   UNL     1       9.607  10.813  18.321  0.00  0.00    +0.000 OA
ENDBRANCH  25  27
ENDBRANCH  24  25
ENDBRANCH  23  24
ENDBRANCH  19  23
ENDBRANCH  18  20
ENDBRANCH   1  18
TORSDOF 7
ENDMDL
MODEL 9
REMARK VINA RESULT:      -7.4      1.591      2.036
REMARK  Name = 
REMARK  8 active torsions:
REMARK  status: ('A' for Active; 'I' for Inactive)
REMARK    1  A    between atoms: C_1  and  O_2
REMARK    2  A    between atoms: O_2  and  C_3
REMARK    3  A    between atoms: C_3  and  C_4
REMARK    4  A    between atoms: C_4  and  C_5
REMARK    5  A    between atoms: C_5  and  N_6
REMARK    6  A    between atoms: C_7  and  C_9
REMARK    7  A    between atoms: C_9  and  N_10
REMARK    8  A    between atoms: C_14  and  C_15
REMARK                            x       y       z     vdW  Elec       q    Type
REMARK                         _______ _______ _______ _____ _____    ______ ____
ROOT
ATOM      1  N   UNL     1       5.250   5.425  17.456  0.00  0.00    +0.000 N 
ATOM      2  C   UNL     1       5.043   6.682  16.895  0.00  0.00    +0.000 A 
ATOM      3  O   UNL     1       5.751   7.070  15.966  0.00  0.00    +0.000 OA
ATOM      4  N   UNL     1       4.040   7.472  17.376  0.00  0.00    +0.000 NA
ATOM      5  C   UNL     1       3.179   7.046  18.248  0.00  0.00    +0.000 A 
ATOM      6  C   UNL     1       3.220   5.649  18.764  0.00  0.00    +0.000 A 
ATOM      7  C   UNL     1       2.223   5.086  19.576  0.00  0.00    +0.000 A 
ATOM      8  C   UNL     1       2.359   3.793  20.078  0.00  0.00    +0.000 A 
ATOM      9  C   UNL     1       3.455   3.025  19.709  0.00  0.00    +0.000 A 
ATOM     10  C   UNL     1       4.410   3.549  18.836  0.00  0.00    +0.000 A 
ATOM     11  C   UNL     1       4.309   4.867  18.359  0.00  0.00    +0.000 A 
ENDROOT
BRANCH   5  12
ATOM     12  C   UNL     1       2.139   8.034  18.690  0.00  0.00    +0.000 A 
ATOM     13  C   UNL     1       1.780   8.061  20.044  0.00  0.00    +0.000 A 
ATOM     14  C   UNL     1       0.867   9.006  20.517  0.00  0.00    +0.000 A 
ATOM     15  C   UNL     1       0.313   9.938  19.641  0.00  0.00    +0.000 A 
ATOM     16  C   UNL     1       0.621   9.884  18.283  0.00  0.00    +0.000 A 
ATOM     17  C   UNL     1       1.499   8.907  17.803  0.00  0.00    +0.000 A 
ENDBRANCH   5  12
BRANCH   1  18
ATOM     18  C   UNL     1       6.404   4.661  16.990  0.00  0.00    +0.000 C 
BRANCH  18  20
ATOM     19  N   UNL     1       6.596   4.472  14.555  0.00  0.00    +0.000 N 
ATOM     20  C   UNL     1       6.107   3.888  15.705  0.00  0.00    +0.000 C 
ATOM     21  O   UNL     1       5.520   2.809  15.728  0.00  0.00    +0.000 OA
ATOM     22  H   UNL     1       7.078   5.368  14.633  0.00  0.00    +0.000 HD
BRANCH  19  23
ATOM     23  C   UNL     1       6.472   3.845  13.256  0.00  0.00    +0.000 C 
BRANCH  23  24
ATOM     24  C   UNL     1       5.042   3.902  12.724  0.00  0.00    +0.000 C 
BRANCH  24  25
ATOM     25  C   UNL     1       4.865   3.009  11.499  0.00  0.00    +0.000 C 
BRANCH  25  27
ATOM     26  C   UNL     1       3.236   3.831   9.996  0.00  0.00    +0.000 C 
ATOM     27  O   UNL     1       3.491   3.004  11.121  0.00  0.00    +0.000 OA
ENDBRANCH  25  27
ENDBRANCH  24  25
ENDBRANCH  23  24
ENDBRANCH  19  23
ENDBRANCH  18  20
ENDBRANCH   1  18
TORSDOF 7
ENDMDL
