MODEL 1
REMARK VINA RESULT:      -8.2      0.000      0.000
REMARK  Name = 
REMARK  3 active torsions:
REMARK  status: ('A' for Active; 'I' for Inactive)
REMARK    1  A    between atoms: C_2  and  C_10
REMARK    2  A    between atoms: N_3  and  C_4
REMARK    3  A    between atoms: C_16  and  C_17
REMARK                            x       y       z     vdW  Elec       q    Type
REMARK                         _______ _______ _______ _____ _____    ______ ____
ROOT
ATOM      1  C   UNL     1       2.262   7.480  18.811  0.00  0.00    +0.000 A 
ATOM      2  C   UNL     1       1.895   6.955  20.057  0.00  0.00    +0.000 A 
ATOM      3  C   UNL     1       2.380   5.723  20.496  0.00  0.00    +0.000 A 
ATOM      4  C   UNL     1       3.271   5.055  19.648  0.00  0.00    +0.000 A 
ATOM      5  N   UNL     1       3.938   3.872  19.794  0.00  0.00    +0.000 N 
ATOM      6  N   UNL     1       4.732   3.557  18.763  0.00  0.00    +0.000 NA
ATOM      7  C   UNL     1       4.618   4.596  17.918  0.00  0.00    +0.000 A 
ATOM      8  C   UNL     1       3.674   5.553  18.414  0.00  0.00    +0.000 A 
ATOM      9  C   UNL     1       3.138   6.782  17.970  0.00  0.00    +0.000 A 
ATOM     10  H   UNL     1       3.899   3.236  20.583  0.00  0.00    +0.000 HD
ENDROOT
BRANCH   7  11
ATOM     11  C   UNL     1       5.407   4.652  16.684  0.00  0.00    +0.000 A 
ATOM     12  C   UNL     1       4.841   4.246  15.465  0.00  0.00    +0.000 A 
ATOM     13  C   UNL     1       5.587   4.294  14.286  0.00  0.00    +0.000 A 
ATOM     14  C   UNL     1       6.900   4.751  14.321  0.00  0.00    +0.000 A 
ATOM     15  F   UNL     1       7.616   4.794  13.192  0.00  0.00    +0.000 F 
ATOM     16  C   UNL     1       7.484   5.148  15.517  0.00  0.00    +0.000 A 
ATOM     17  C   UNL     1       6.742   5.087  16.698  0.00  0.00    +0.000 A 
ENDBRANCH   7  11
BRANCH   1  19
ATOM     18  O   UNL     1       2.195   9.327  17.414  0.00  0.00    +0.000 OA
ATOM     19  C   UNL     1       1.781   8.840  18.460  0.00  0.00    +0.000 C 
ATOM     20  N   UNL     1       0.944   9.452  19.374  0.00  0.00    +0.000 N 
ATOM     21  H   UNL     1       0.853   9.024  20.288  0.00  0.00    +0.000 HD
BRANCH  20  22
ATOM     22  C   UNL     1       0.394  10.748  19.223  0.00  0.00    +0.000 A 
ATOM     23  C   UNL     1      -0.823  10.984  18.587  0.00  0.00    +0.000 A 
ATOM     24  C   UNL     1      -1.245  12.291  18.421  0.00  0.00    +0.000 A 
ATOM     25  N   UNL     1      -0.553  13.362  18.856  0.00  0.00    +0.000 NA
ATOM     26  C   UNL     1       0.605  13.110  19.500  0.00  0.00    +0.000 A 
ATOM     27  C   UNL     1       1.109  11.836  19.722  0.00  0.00    +0.000 A 
ENDBRANCH  20  22
ENDBRANCH   1  19
TORSDOF 3
ENDMDL
MODEL 2
REMARK VINA RESULT:      -8.2      1.308      1.905
REMARK  Name = 
REMARK  3 active torsions:
REMARK  status: ('A' for Active; 'I' for Inactive)
REMARK    1  A    between atoms: C_2  and  C_10
REMARK    2  A    between atoms: N_3  and  C_4
REMARK    3  A    between atoms: C_16  and  C_17
REMARK                            x       y       z     vdW  Elec       q    Type
REMARK                         _______ _______ _______ _____ _____    ______ ____
ROOT
ATOM      1  C   UNL     1       2.092   6.566  19.913  0.00  0.00    +0.000 A 
ATOM      2  C   UNL     1       1.566   5.725  20.903  0.00  0.00    +0.000 A 
ATOM      3  C   UNL     1       1.899   4.371  20.956  0.00  0.00    +0.000 A 
ATOM      4  C   UNL     1       2.804   3.905  19.997  0.00  0.00    +0.000 A 
ATOM      5  N   UNL     1       3.350   2.668  19.800  0.00  0.00    +0.000 N 
ATOM      6  N   UNL     1       4.207   2.601  18.773  0.00  0.00    +0.000 NA
ATOM      7  C   UNL     1       4.263   3.857  18.297  0.00  0.00    +0.000 A 
ATOM      8  C   UNL     1       3.363   4.712  19.012  0.00  0.00    +0.000 A 
ATOM      9  C   UNL     1       2.979   6.070  18.949  0.00  0.00    +0.000 A 
ATOM     10  H   UNL     1       3.182   1.827  20.341  0.00  0.00    +0.000 HD
ENDROOT
BRANCH   7  11
ATOM     11  C   UNL     1       5.166   4.203  17.196  0.00  0.00    +0.000 A 
ATOM     12  C   UNL     1       6.493   4.578  17.462  0.00  0.00    +0.000 A 
ATOM     13  C   UNL     1       7.359   4.911  16.419  0.00  0.00    +0.000 A 
ATOM     14  C   UNL     1       6.903   4.869  15.107  0.00  0.00    +0.000 A 
ATOM     15  F   UNL     1       7.730   5.191  14.107  0.00  0.00    +0.000 F 
ATOM     16  C   UNL     1       5.592   4.511  14.820  0.00  0.00    +0.000 A 
ATOM     17  C   UNL     1       4.722   4.190  15.865  0.00  0.00    +0.000 A 
ENDBRANCH   7  11
BRANCH   1  19
ATOM     18  O   UNL     1       1.616   8.498  21.099  0.00  0.00    +0.000 OA
ATOM     19  C   UNL     1       1.765   8.012  19.983  0.00  0.00    +0.000 C 
ATOM     20  N   UNL     1       1.609   8.668  18.777  0.00  0.00    +0.000 N 
ATOM     21  H   UNL     1       1.552   8.103  17.938  0.00  0.00    +0.000 HD
BRANCH  20  22
ATOM     22  C   UNL     1       1.286  10.040  18.639  0.00  0.00    +0.000 A 
ATOM     23  C   UNL     1       2.240  11.019  18.372  0.00  0.00    +0.000 A 
ATOM     24  C   UNL     1       1.841  12.344  18.329  0.00  0.00    +0.000 A 
ATOM     25  N   UNL     1       0.569  12.749  18.515  0.00  0.00    +0.000 NA
ATOM     26  C   UNL     1      -0.345  11.782  18.738  0.00  0.00    +0.000 A 
ATOM     27  C   UNL     1      -0.045  10.428  18.793  0.00  0.00    +0.000 A 
ENDBRANCH  20  22
ENDBRANCH   1  19
TORSDOF 3
ENDMDL
MODEL 3
REMARK VINA RESULT:      -8.2      0.101      1.350
REMARK  Name = 
REMARK  3 active torsions:
REMARK  status: ('A' for Active; 'I' for Inactive)
REMARK    1  A    between atoms: C_2  and  C_10
REMARK    2  A    between atoms: N_3  and  C_4
REMARK    3  A    between atoms: C_16  and  C_17
REMARK                            x       y       z     vdW  Elec       q    Type
REMARK                         _______ _______ _______ _____ _____    ______ ____
ROOT
ATOM      1  C   UNL     1       2.248   7.479  18.818  0.00  0.00    +0.000 A 
ATOM      2  C   UNL     1       1.872   6.949  20.060  0.00  0.00    +0.000 A 
ATOM      3  C   UNL     1       2.346   5.711  20.493  0.00  0.00    +0.000 A 
ATOM      4  C   UNL     1       3.236   5.043  19.646  0.00  0.00    +0.000 A 
ATOM      5  N   UNL     1       3.894   3.854  19.788  0.00  0.00    +0.000 N 
ATOM      6  N   UNL     1       4.691   3.539  18.759  0.00  0.00    +0.000 NA
ATOM      7  C   UNL     1       4.589   4.584  17.920  0.00  0.00    +0.000 A 
ATOM      8  C   UNL     1       3.649   5.544  18.417  0.00  0.00    +0.000 A 
ATOM      9  C   UNL     1       3.124   6.780  17.977  0.00  0.00    +0.000 A 
ATOM     10  H   UNL     1       3.847   3.214  20.573  0.00  0.00    +0.000 HD
ENDROOT
BRANCH   7  11
ATOM     11  C   UNL     1       5.384   4.642  16.690  0.00  0.00    +0.000 A 
ATOM     12  C   UNL     1       6.713   5.094  16.729  0.00  0.00    +0.000 A 
ATOM     13  C   UNL     1       7.477   5.154  15.562  0.00  0.00    +0.000 A 
ATOM     14  C   UNL     1       6.916   4.758  14.353  0.00  0.00    +0.000 A 
ATOM     15  F   UNL     1       7.646   4.818  13.234  0.00  0.00    +0.000 F 
ATOM     16  C   UNL     1       5.601   4.316  14.289  0.00  0.00    +0.000 A 
ATOM     17  C   UNL     1       4.833   4.269  15.454  0.00  0.00    +0.000 A 
ENDBRANCH   7  11
BRANCH   1  19
ATOM     18  O   UNL     1       2.194   9.332  17.428  0.00  0.00    +0.000 OA
ATOM     19  C   UNL     1       1.778   8.844  18.473  0.00  0.00    +0.000 C 
ATOM     20  N   UNL     1       0.949   9.460  19.391  0.00  0.00    +0.000 N 
ATOM     21  H   UNL     1       0.855   9.030  20.304  0.00  0.00    +0.000 HD
BRANCH  20  22
ATOM     22  C   UNL     1       0.409  10.761  19.247  0.00  0.00    +0.000 A 
ATOM     23  C   UNL     1       1.076  11.908  19.668  0.00  0.00    +0.000 A 
ATOM     24  C   UNL     1       0.437  13.131  19.554  0.00  0.00    +0.000 A 
ATOM     25  N   UNL     1      -0.798  13.285  19.037  0.00  0.00    +0.000 NA
ATOM     26  C   UNL     1      -1.413  12.165  18.604  0.00  0.00    +0.000 A 
ATOM     27  C   UNL     1      -0.854  10.897  18.669  0.00  0.00    +0.000 A 
ENDBRANCH  20  22
ENDBRANCH   1  19
TORSDOF 3
ENDMDL
MODEL 4
REMARK VINA RESULT:      -8.2      1.815      2.123
REMARK  Name = 
REMARK  3 active torsions:
REMARK  status: ('A' for Active; 'I' for Inactive)
REMARK    1  A    between atoms: C_2  and  C_10
REMARK    2  A    between atoms: N_3  and  C_4
REMARK    3  A    between atoms: C_16  and  C_17
REMARK                            x       y       z     vdW  Elec       q    Type
REMARK                         _______ _______ _______ _____ _____    ______ ____
ROOT
ATOM      1  C   UNL     1       2.088   6.241  19.984  0.00  0.00    +0.000 A 
ATOM      2  C   UNL     1       1.586   5.344  20.937  0.00  0.00    +0.000 A 
ATOM      3  C   UNL     1       1.965   4.001  20.938  0.00  0.00    +0.000 A 
ATOM      4  C   UNL     1       2.888   3.604  19.966  0.00  0.00    +0.000 A 
ATOM      5  N   UNL     1       3.476   2.395  19.723  0.00  0.00    +0.000 N 
ATOM      6  N   UNL     1       4.339   2.397  18.699  0.00  0.00    +0.000 NA
ATOM      7  C   UNL     1       4.354   3.672  18.273  0.00  0.00    +0.000 A 
ATOM      8  C   UNL     1       3.424   4.468  19.017  0.00  0.00    +0.000 A 
ATOM      9  C   UNL     1       2.995   5.813  19.006  0.00  0.00    +0.000 A 
ATOM     10  H   UNL     1       3.335   1.528  20.230  0.00  0.00    +0.000 HD
ENDROOT
BRANCH   7  11
ATOM     11  C   UNL     1       5.250   4.093  17.191  0.00  0.00    +0.000 A 
ATOM     12  C   UNL     1       4.831   4.004  15.854  0.00  0.00    +0.000 A 
ATOM     13  C   UNL     1       5.679   4.401  14.818  0.00  0.00    +0.000 A 
ATOM     14  C   UNL     1       6.945   4.890  15.115  0.00  0.00    +0.000 A 
ATOM     15  F   UNL     1       7.759   5.267  14.123  0.00  0.00    +0.000 F 
ATOM     16  C   UNL     1       7.384   4.978  16.430  0.00  0.00    +0.000 A 
ATOM     17  C   UNL     1       6.541   4.569  17.466  0.00  0.00    +0.000 A 
ENDBRANCH   7  11
BRANCH   1  19
ATOM     18  O   UNL     1       2.157   8.444  19.268  0.00  0.00    +0.000 OA
ATOM     19  C   UNL     1       1.712   7.672  20.110  0.00  0.00    +0.000 C 
ATOM     20  N   UNL     1       0.931   8.009  21.199  0.00  0.00    +0.000 N 
ATOM     21  H   UNL     1       0.810   7.314  21.927  0.00  0.00    +0.000 HD
BRANCH  20  22
ATOM     22  C   UNL     1       0.482   9.319  21.496  0.00  0.00    +0.000 A 
ATOM     23  C   UNL     1       0.820  10.428  20.724  0.00  0.00    +0.000 A 
ATOM     24  C   UNL     1       0.396  11.680  21.134  0.00  0.00    +0.000 A 
ATOM     25  N   UNL     1      -0.347  11.894  22.238  0.00  0.00    +0.000 NA
ATOM     26  C   UNL     1      -0.692  10.804  22.953  0.00  0.00    +0.000 A 
ATOM     27  C   UNL     1      -0.322   9.508  22.620  0.00  0.00    +0.000 A 
ENDBRANCH  20  22
ENDBRANCH   1  19
TORSDOF 3
ENDMDL
MODEL 5
REMARK VINA RESULT:      -8.1      1.341      1.470
REMARK  Name = 
REMARK  3 active torsions:
REMARK  status: ('A' for Active; 'I' for Inactive)
REMARK    1  A    between atoms: C_2  and  C_10
REMARK    2  A    between atoms: N_3  and  C_4
REMARK    3  A    between atoms: C_16  and  C_17
REMARK                            x       y       z     vdW  Elec       q    Type
REMARK                         _______ _______ _______ _____ _____    ______ ____
ROOT
ATOM      1  C   UNL     1       2.072   6.545  19.928  0.00  0.00    +0.000 A 
ATOM      2  C   UNL     1       1.518   5.685  20.887  0.00  0.00    +0.000 A 
ATOM      3  C   UNL     1       1.828   4.325  20.905  0.00  0.00    +0.000 A 
ATOM      4  C   UNL     1       2.738   3.871  19.945  0.00  0.00    +0.000 A 
ATOM      5  N   UNL     1       3.266   2.631  19.719  0.00  0.00    +0.000 N 
ATOM      6  N   UNL     1       4.135   2.579  18.702  0.00  0.00    +0.000 NA
ATOM      7  C   UNL     1       4.219   3.847  18.263  0.00  0.00    +0.000 A 
ATOM      8  C   UNL     1       3.323   4.696  18.991  0.00  0.00    +0.000 A 
ATOM      9  C   UNL     1       2.963   6.062  18.962  0.00  0.00    +0.000 A 
ATOM     10  H   UNL     1       3.077   1.779  20.234  0.00  0.00    +0.000 HD
ENDROOT
BRANCH   7  11
ATOM     11  C   UNL     1       5.142   4.210  17.184  0.00  0.00    +0.000 A 
ATOM     12  C   UNL     1       4.726   4.140  15.845  0.00  0.00    +0.000 A 
ATOM     13  C   UNL     1       5.601   4.483  14.812  0.00  0.00    +0.000 A 
ATOM     14  C   UNL     1       6.892   4.898  15.114  0.00  0.00    +0.000 A 
ATOM     15  F   UNL     1       7.732   5.223  14.125  0.00  0.00    +0.000 F 
ATOM     16  C   UNL     1       7.329   4.966  16.431  0.00  0.00    +0.000 A 
ATOM     17  C   UNL     1       6.458   4.611  17.464  0.00  0.00    +0.000 A 
ENDBRANCH   7  11
BRANCH   1  19
ATOM     18  O   UNL     1       1.667   8.462  21.166  0.00  0.00    +0.000 OA
ATOM     19  C   UNL     1       1.768   7.995  20.036  0.00  0.00    +0.000 C 
ATOM     20  N   UNL     1       1.577   8.674  18.848  0.00  0.00    +0.000 N 
ATOM     21  H   UNL     1       1.482   8.126  18.002  0.00  0.00    +0.000 HD
BRANCH  20  22
ATOM     22  C   UNL     1       1.269  10.053  18.747  0.00  0.00    +0.000 A 
ATOM     23  C   UNL     1      -0.003  10.563  18.993  0.00  0.00    +0.000 A 
ATOM     24  C   UNL     1      -0.229  11.915  18.796  0.00  0.00    +0.000 A 
ATOM     25  N   UNL     1       0.721  12.781  18.392  0.00  0.00    +0.000 NA
ATOM     26  C   UNL     1       1.954  12.272  18.192  0.00  0.00    +0.000 A 
ATOM     27  C   UNL     1       2.280  10.935  18.369  0.00  0.00    +0.000 A 
ENDBRANCH  20  22
ENDBRANCH   1  19
TORSDOF 3
ENDMDL
MODEL 6
REMARK VINA RESULT:      -8.0      1.954      2.436
REMARK  Name = 
REMARK  3 active torsions:
REMARK  status: ('A' for Active; 'I' for Inactive)
REMARK    1  A    between atoms: C_2  and  C_10
REMARK    2  A    between atoms: N_3  and  C_4
REMARK    3  A    between atoms: C_16  and  C_17
REMARK                            x       y       z     vdW  Elec       q    Type
REMARK                         _______ _______ _______ _____ _____    ______ ____
ROOT
ATOM      1  C   UNL     1       1.928   6.070  19.890  0.00  0.00    +0.000 A 
ATOM      2  C   UNL     1       1.358   5.119  20.748  0.00  0.00    +0.000 A 
ATOM      3  C   UNL     1       1.666   3.763  20.634  0.00  0.00    +0.000 A 
ATOM      4  C   UNL     1       2.591   3.406  19.647  0.00  0.00    +0.000 A 
ATOM      5  N   UNL     1       3.121   2.194  19.306  0.00  0.00    +0.000 N 
ATOM      6  N   UNL     1       4.007   2.242  18.303  0.00  0.00    +0.000 NA
ATOM      7  C   UNL     1       4.098   3.547  17.996  0.00  0.00    +0.000 A 
ATOM      8  C   UNL     1       3.193   4.321  18.791  0.00  0.00    +0.000 A 
ATOM      9  C   UNL     1       2.835   5.684  18.895  0.00  0.00    +0.000 A 
ATOM     10  H   UNL     1       2.923   1.294  19.729  0.00  0.00    +0.000 HD
ENDROOT
BRANCH   7  11
ATOM     11  C   UNL     1       5.040   4.015  16.974  0.00  0.00    +0.000 A 
ATOM     12  C   UNL     1       6.289   4.533  17.349  0.00  0.00    +0.000 A 
ATOM     13  C   UNL     1       7.191   4.982  16.381  0.00  0.00    +0.000 A 
ATOM     14  C   UNL     1       6.847   4.911  15.036  0.00  0.00    +0.000 A 
ATOM     15  F   UNL     1       7.708   5.343  14.109  0.00  0.00    +0.000 F 
ATOM     16  C   UNL     1       5.612   4.411  14.642  0.00  0.00    +0.000 A 
ATOM     17  C   UNL     1       4.706   3.974  15.611  0.00  0.00    +0.000 A 
ENDBRANCH   7  11
BRANCH   1  19
ATOM     18  O   UNL     1       2.134   8.321  19.383  0.00  0.00    +0.000 OA
ATOM     19  C   UNL     1       1.624   7.501  20.139  0.00  0.00    +0.000 C 
ATOM     20  N   UNL     1       0.830   7.781  21.235  0.00  0.00    +0.000 N 
ATOM     21  H   UNL     1       0.653   7.030  21.892  0.00  0.00    +0.000 HD
BRANCH  20  22
ATOM     22  C   UNL     1       0.442   9.081  21.641  0.00  0.00    +0.000 A 
ATOM     23  C   UNL     1      -0.262   9.328  22.817  0.00  0.00    +0.000 A 
ATOM     24  C   UNL     1      -0.663  10.624  23.094  0.00  0.00    +0.000 A 
ATOM     25  N   UNL     1      -0.398  11.676  22.295  0.00  0.00    +0.000 NA
ATOM     26  C   UNL     1       0.313  11.420  21.178  0.00  0.00    +0.000 A 
ATOM     27  C   UNL     1       0.766  10.159  20.818  0.00  0.00    +0.000 A 
ENDBRANCH  20  22
ENDBRANCH   1  19
TORSDOF 3
ENDMDL
MODEL 7
REMARK VINA RESULT:      -7.9      3.485      7.928
REMARK  Name = 
REMARK  3 active torsions:
REMARK  status: ('A' for Active; 'I' for Inactive)
REMARK    1  A    between atoms: C_2  and  C_10
REMARK    2  A    between atoms: N_3  and  C_4
REMARK    3  A    between atoms: C_16  and  C_17
REMARK                            x       y       z     vdW  Elec       q    Type
REMARK                         _______ _______ _______ _____ _____    ______ ____
ROOT
ATOM      1  C   UNL     1       4.947   4.428  18.045  0.00  0.00    +0.000 A 
ATOM      2  C   UNL     1       4.744   3.238  18.757  0.00  0.00    +0.000 A 
ATOM      3  C   UNL     1       3.807   3.162  19.788  0.00  0.00    +0.000 A 
ATOM      4  C   UNL     1       3.062   4.316  20.052  0.00  0.00    +0.000 A 
ATOM      5  N   UNL     1       2.064   4.558  20.954  0.00  0.00    +0.000 N 
ATOM      6  N   UNL     1       1.567   5.801  20.906  0.00  0.00    +0.000 NA
ATOM      7  C   UNL     1       2.236   6.393  19.902  0.00  0.00    +0.000 A 
ATOM      8  C   UNL     1       3.221   5.509  19.355  0.00  0.00    +0.000 A 
ATOM      9  C   UNL     1       4.205   5.578  18.344  0.00  0.00    +0.000 A 
ATOM     10  H   UNL     1       1.671   3.908  21.625  0.00  0.00    +0.000 HD
ENDROOT
BRANCH   7  11
ATOM     11  C   UNL     1       1.915   7.763  19.491  0.00  0.00    +0.000 A 
ATOM     12  C   UNL     1       1.268   8.634  20.382  0.00  0.00    +0.000 A 
ATOM     13  C   UNL     1       0.957   9.940  19.998  0.00  0.00    +0.000 A 
ATOM     14  C   UNL     1       1.295  10.380  18.723  0.00  0.00    +0.000 A 
ATOM     15  F   UNL     1       0.995  11.630  18.353  0.00  0.00    +0.000 F 
ATOM     16  C   UNL     1       1.927   9.533  17.822  0.00  0.00    +0.000 A 
ATOM     17  C   UNL     1       2.226   8.223  18.202  0.00  0.00    +0.000 A 
ENDBRANCH   7  11
BRANCH   1  19
ATOM     18  O   UNL     1       7.090   4.437  17.162  0.00  0.00    +0.000 OA
ATOM     19  C   UNL     1       5.892   4.400  16.900  0.00  0.00    +0.000 C 
ATOM     20  N   UNL     1       5.330   4.384  15.638  0.00  0.00    +0.000 N 
ATOM     21  H   UNL     1       4.337   4.568  15.562  0.00  0.00    +0.000 HD
BRANCH  20  22
ATOM     22  C   UNL     1       6.064   4.369  14.427  0.00  0.00    +0.000 A 
ATOM     23  C   UNL     1       7.172   5.182  14.203  0.00  0.00    +0.000 A 
ATOM     24  C   UNL     1       7.782   5.152  12.960  0.00  0.00    +0.000 A 
ATOM     25  N   UNL     1       7.375   4.362  11.947  0.00  0.00    +0.000 NA
ATOM     26  C   UNL     1       6.322   3.557  12.196  0.00  0.00    +0.000 A 
ATOM     27  C   UNL     1       5.650   3.510  13.409  0.00  0.00    +0.000 A 
ENDBRANCH  20  22
ENDBRANCH   1  19
TORSDOF 3
ENDMDL
MODEL 8
REMARK VINA RESULT:      -7.9      0.814      1.264
REMARK  Name = 
REMARK  3 active torsions:
REMARK  status: ('A' for Active; 'I' for Inactive)
REMARK    1  A    between atoms: C_2  and  C_10
REMARK    2  A    between atoms: N_3  and  C_4
REMARK    3  A    between atoms: C_16  and  C_17
REMARK                            x       y       z     vdW  Elec       q    Type
REMARK                         _______ _______ _______ _____ _____    ______ ____
ROOT
ATOM      1  C   UNL     1       2.018   7.150  19.443  0.00  0.00    +0.000 A 
ATOM      2  C   UNL     1       1.584   6.501  20.607  0.00  0.00    +0.000 A 
ATOM      3  C   UNL     1       2.030   5.220  20.932  0.00  0.00    +0.000 A 
ATOM      4  C   UNL     1       2.951   4.631  20.060  0.00  0.00    +0.000 A 
ATOM      5  N   UNL     1       3.594   3.426  20.108  0.00  0.00    +0.000 N 
ATOM      6  N   UNL     1       4.433   3.208  19.087  0.00  0.00    +0.000 NA
ATOM      7  C   UNL     1       4.375   4.334  18.355  0.00  0.00    +0.000 A 
ATOM      8  C   UNL     1       3.421   5.250  18.907  0.00  0.00    +0.000 A 
ATOM      9  C   UNL     1       2.924   6.529  18.573  0.00  0.00    +0.000 A 
ATOM     10  H   UNL     1       3.508   2.710  20.821  0.00  0.00    +0.000 HD
ENDROOT
BRANCH   7  11
ATOM     11  C   UNL     1       5.224   4.507  17.173  0.00  0.00    +0.000 A 
ATOM     12  C   UNL     1       6.513   5.048  17.302  0.00  0.00    +0.000 A 
ATOM     13  C   UNL     1       7.327   5.218  16.181  0.00  0.00    +0.000 A 
ATOM     14  C   UNL     1       6.856   4.844  14.927  0.00  0.00    +0.000 A 
ATOM     15  F   UNL     1       7.634   5.009  13.852  0.00  0.00    +0.000 F 
ATOM     16  C   UNL     1       5.581   4.316  14.774  0.00  0.00    +0.000 A 
ATOM     17  C   UNL     1       4.762   4.158  15.894  0.00  0.00    +0.000 A 
ENDBRANCH   7  11
BRANCH   1  19
ATOM     18  O   UNL     1       1.967   9.104  18.200  0.00  0.00    +0.000 OA
ATOM     19  C   UNL     1       1.573   8.548  19.219  0.00  0.00    +0.000 C 
ATOM     20  N   UNL     1       0.791   9.112  20.210  0.00  0.00    +0.000 N 
ATOM     21  H   UNL     1       0.717   8.616  21.090  0.00  0.00    +0.000 HD
BRANCH  20  22
ATOM     22  C   UNL     1       0.282  10.433  20.183  0.00  0.00    +0.000 A 
ATOM     23  C   UNL     1      -0.869  10.786  19.482  0.00  0.00    +0.000 A 
ATOM     24  C   UNL     1      -1.249  12.117  19.452  0.00  0.00    +0.000 A 
ATOM     25  N   UNL     1      -0.577  13.101  20.080  0.00  0.00    +0.000 NA
ATOM     26  C   UNL     1       0.516  12.733  20.781  0.00  0.00    +0.000 A 
ATOM     27  C   UNL     1       0.972  11.426  20.877  0.00  0.00    +0.000 A 
ENDBRANCH  20  22
ENDBRANCH   1  19
TORSDOF 3
ENDMDL
MODEL 9
REMARK VINA RESULT:      -7.9      3.384      8.172
REMARK  Name = 
REMARK  3 active torsions:
REMARK  status: ('A' for Active; 'I' for Inactive)
REMARK    1  A    between atoms: C_2  and  C_10
REMARK    2  A    between atoms: N_3  and  C_4
REMARK    3  A    between atoms: C_16  and  C_17
REMARK                            x       y       z     vdW  Elec       q    Type
REMARK                         _______ _______ _______ _____ _____    ______ ____
ROOT
ATOM      1  C   UNL     1       4.459   5.476  17.451  0.00  0.00    +0.000 A 
ATOM      2  C   UNL     1       4.540   4.236  18.100  0.00  0.00    +0.000 A 
ATOM      3  C   UNL     1       3.872   4.002  19.302  0.00  0.00    +0.000 A 
ATOM      4  C   UNL     1       3.096   5.050  19.808  0.00  0.00    +0.000 A 
ATOM      5  N   UNL     1       2.307   5.131  20.921  0.00  0.00    +0.000 N 
ATOM      6  N   UNL     1       1.691   6.310  21.076  0.00  0.00    +0.000 NA
ATOM      7  C   UNL     1       2.054   7.025  19.997  0.00  0.00    +0.000 A 
ATOM      8  C   UNL     1       2.974   6.286  19.184  0.00  0.00    +0.000 A 
ATOM      9  C   UNL     1       3.693   6.517  17.990  0.00  0.00    +0.000 A 
ATOM     10  H   UNL     1       2.142   4.408  21.612  0.00  0.00    +0.000 HD
ENDROOT
BRANCH   7  11
ATOM     11  C   UNL     1       1.515   8.369  19.769  0.00  0.00    +0.000 A 
ATOM     12  C   UNL     1       0.902   9.070  20.820  0.00  0.00    +0.000 A 
ATOM     13  C   UNL     1       0.384  10.350  20.611  0.00  0.00    +0.000 A 
ATOM     14  C   UNL     1       0.479  10.933  19.352  0.00  0.00    +0.000 A 
ATOM     15  F   UNL     1      -0.019  12.158  19.150  0.00  0.00    +0.000 F 
ATOM     16  C   UNL     1       1.073  10.254  18.296  0.00  0.00    +0.000 A 
ATOM     17  C   UNL     1       1.579   8.969  18.502  0.00  0.00    +0.000 A 
ENDBRANCH   7  11
BRANCH   1  19
ATOM     18  O   UNL     1       5.146   6.733  15.629  0.00  0.00    +0.000 OA
ATOM     19  C   UNL     1       5.120   5.613  16.129  0.00  0.00    +0.000 C 
ATOM     20  N   UNL     1       5.603   4.451  15.558  0.00  0.00    +0.000 N 
ATOM     21  H   UNL     1       5.329   3.570  15.978  0.00  0.00    +0.000 HD
BRANCH  20  22
ATOM     22  C   UNL     1       6.251   4.377  14.301  0.00  0.00    +0.000 A 
ATOM     23  C   UNL     1       7.362   5.151  13.976  0.00  0.00    +0.000 A 
ATOM     24  C   UNL     1       7.883   5.065  12.696  0.00  0.00    +0.000 A 
ATOM     25  N   UNL     1       7.387   4.257  11.739  0.00  0.00    +0.000 NA
ATOM     26  C   UNL     1       6.332   3.490  12.085  0.00  0.00    +0.000 A 
ATOM     27  C   UNL     1       5.745   3.500  13.342  0.00  0.00    +0.000 A 
ENDBRANCH  20  22
ENDBRANCH   1  19
TORSDOF 3
ENDMDL
