MODEL 1
REMARK VINA RESULT:      -8.8      0.000      0.000
REMARK  Name = 
REMARK  12 active torsions:
REMARK  status: ('A' for Active; 'I' for Inactive)
REMARK    1  A    between atoms: C_1  and  C_2
REMARK    2  A    between atoms: C_2  and  O_3
REMARK    3  A    between atoms: O_3  and  C_4
REMARK    4  A    between atoms: C_4  and  C_6
REMARK    5  A    between atoms: C_9  and  C_10
REMARK    6  A    between atoms: C_11  and  C_12
REMARK    7  A    between atoms: C_18  and  C_19
REMARK    8  A    between atoms: C_21  and  C_22
REMARK    9  A    between atoms: C_22  and  C_23
REMARK   10  A    between atoms: C_24  and  O_25
REMARK   11  A    between atoms: O_25  and  C_26
REMARK   12  A    between atoms: C_28  and  O_29
REMARK                            x       y       z     vdW  Elec       q    Type
REMARK                         _______ _______ _______ _____ _____    ______ ____
ROOT
ATOM      1  C   UNL     1       3.293   4.426  18.802  0.00  0.00    +0.000 A 
ATOM      2  C   UNL     1       2.740   3.407  19.624  0.00  0.00    +0.000 A 
ATOM      3  N   UNL     1       3.342   2.230  19.376  0.00  0.00    +0.000 NA
ATOM      4  O   UNL     1       4.265   2.471  18.378  0.00  0.00    +0.000 OA
ATOM      5  C   UNL     1       4.237   3.784  18.018  0.00  0.00    +0.000 A 
ENDROOT
BRANCH   5   6
ATOM      6  C   UNL     1       5.236   4.198  17.026  0.00  0.00    +0.000 A 
ATOM      7  C   UNL     1       4.908   4.151  15.660  0.00  0.00    +0.000 A 
ATOM      8  C   UNL     1       5.810   4.452  14.614  0.00  0.00    +0.000 A 
ATOM      9  C   UNL     1       7.079   4.921  14.987  0.00  0.00    +0.000 A 
ATOM     10  C   UNL     1       7.408   5.033  16.352  0.00  0.00    +0.000 A 
ATOM     11  C   UNL     1       6.512   4.656  17.355  0.00  0.00    +0.000 A 
BRANCH   8  12
ATOM     12  C   UNL     1       5.361   4.245  13.180  0.00  0.00    +0.000 C 
ATOM     13  C   UNL     1       5.766   2.946  12.479  0.00  0.00    +0.000 C 
ENDBRANCH   8  12
BRANCH   9  14
ATOM     14  O   UNL     1       8.089   5.394  14.196  0.00  0.00    +0.000 OA
ATOM     15  C   UNL     1       7.956   5.385  12.787  0.00  0.00    +0.000 C 
ENDBRANCH   9  14
BRANCH  11  16
ATOM     16  O   UNL     1       6.907   4.734  18.663  0.00  0.00    +0.000 OA
ATOM     17  H   UNL     1       6.307   5.323  19.147  0.00  0.00    +0.000 HD
ENDBRANCH  11  16
ENDBRANCH   5   6
BRANCH   1  21
ATOM     18  C   UNL     1       2.050   7.819  19.263  0.00  0.00    +0.000 A 
ATOM     19  C   UNL     1       2.800   8.037  18.127  0.00  0.00    +0.000 A 
ATOM     20  C   UNL     1       3.399   6.795  17.791  0.00  0.00    +0.000 A 
ATOM     21  C   UNL     1       2.971   5.875  18.729  0.00  0.00    +0.000 A 
ATOM     22  O   UNL     1       2.131   6.500  19.604  0.00  0.00    +0.000 OA
BRANCH  18  23
ATOM     23  C   UNL     1       1.296   8.728  20.089  0.00  0.00    +0.000 C 
ATOM     24  O   UNL     1       0.807   9.782  19.715  0.00  0.00    +0.000 OA
BRANCH  23  25
ATOM     25  O   UNL     1       1.292   8.280  21.379  0.00  0.00    +0.000 OA
BRANCH  25  27
ATOM     26  C   UNL     1       0.013   9.389  23.059  0.00  0.00    +0.000 C 
ATOM     27  C   UNL     1       1.370   9.296  22.384  0.00  0.00    +0.000 C 
ENDBRANCH  25  27
ENDBRANCH  23  25
ENDBRANCH  18  23
ENDBRANCH   1  21
BRANCH   2  28
ATOM     28  C   UNL     1       1.618   3.466  20.602  0.00  0.00    +0.000 C 
ATOM     29  F   UNL     1       1.867   4.277  21.666  0.00  0.00    +0.000 F 
ATOM     30  F   UNL     1       0.467   3.936  20.049  0.00  0.00    +0.000 F 
ATOM     31  F   UNL     1       1.331   2.244  21.126  0.00  0.00    +0.000 F 
ENDBRANCH   2  28
TORSDOF 9
ENDMDL
MODEL 2
REMARK VINA RESULT:      -8.8      0.729      1.423
REMARK  Name = 
REMARK  12 active torsions:
REMARK  status: ('A' for Active; 'I' for Inactive)
REMARK    1  A    between atoms: C_1  and  C_2
REMARK    2  A    between atoms: C_2  and  O_3
REMARK    3  A    between atoms: O_3  and  C_4
REMARK    4  A    between atoms: C_4  and  C_6
REMARK    5  A    between atoms: C_9  and  C_10
REMARK    6  A    between atoms: C_11  and  C_12
REMARK    7  A    between atoms: C_18  and  C_19
REMARK    8  A    between atoms: C_21  and  C_22
REMARK    9  A    between atoms: C_22  and  C_23
REMARK   10  A    between atoms: C_24  and  O_25
REMARK   11  A    between atoms: O_25  and  C_26
REMARK   12  A    between atoms: C_28  and  O_29
REMARK                            x       y       z     vdW  Elec       q    Type
REMARK                         _______ _______ _______ _____ _____    ______ ____
ROOT
ATOM      1  C   UNL     1       3.250   4.359  18.845  0.00  0.00    +0.000 A 
ATOM      2  C   UNL     1       2.695   3.333  19.658  0.00  0.00    +0.000 A 
ATOM      3  N   UNL     1       3.299   2.158  19.404  0.00  0.00    +0.000 NA
ATOM      4  O   UNL     1       4.225   2.407  18.411  0.00  0.00    +0.000 OA
ATOM      5  C   UNL     1       4.197   3.722  18.060  0.00  0.00    +0.000 A 
ENDROOT
BRANCH   5   6
ATOM      6  C   UNL     1       5.200   4.144  17.075  0.00  0.00    +0.000 A 
ATOM      7  C   UNL     1       4.880   4.099  15.707  0.00  0.00    +0.000 A 
ATOM      8  C   UNL     1       5.786   4.407  14.666  0.00  0.00    +0.000 A 
ATOM      9  C   UNL     1       7.051   4.881  15.048  0.00  0.00    +0.000 A 
ATOM     10  C   UNL     1       7.371   4.991  16.415  0.00  0.00    +0.000 A 
ATOM     11  C   UNL     1       6.472   4.608  17.412  0.00  0.00    +0.000 A 
BRANCH   8  12
ATOM     12  C   UNL     1       5.346   4.203  13.229  0.00  0.00    +0.000 C 
ATOM     13  C   UNL     1       5.850   2.959  12.493  0.00  0.00    +0.000 C 
ENDBRANCH   8  12
BRANCH   9  14
ATOM     14  O   UNL     1       8.063   5.362  14.264  0.00  0.00    +0.000 OA
ATOM     15  C   UNL     1       7.881   5.496  12.867  0.00  0.00    +0.000 C 
ENDBRANCH   9  14
BRANCH  11  16
ATOM     16  O   UNL     1       6.860   4.684  18.722  0.00  0.00    +0.000 OA
ATOM     17  H   UNL     1       7.714   5.142  18.779  0.00  0.00    +0.000 HD
ENDBRANCH  11  16
ENDBRANCH   5   6
BRANCH   1  21
ATOM     18  C   UNL     1       2.100   7.771  19.390  0.00  0.00    +0.000 A 
ATOM     19  C   UNL     1       2.684   7.955  18.154  0.00  0.00    +0.000 A 
ATOM     20  C   UNL     1       3.224   6.700  17.769  0.00  0.00    +0.000 A 
ATOM     21  C   UNL     1       2.928   5.808  18.781  0.00  0.00    +0.000 A 
ATOM     22  O   UNL     1       2.223   6.461  19.750  0.00  0.00    +0.000 OA
BRANCH  18  23
ATOM     23  C   UNL     1       1.475   8.707  20.291  0.00  0.00    +0.000 C 
ATOM     24  O   UNL     1       1.310   8.532  21.488  0.00  0.00    +0.000 OA
BRANCH  23  25
ATOM     25  O   UNL     1       1.009   9.780  19.587  0.00  0.00    +0.000 OA
BRANCH  25  27
ATOM     26  C   UNL     1      -0.921  10.350  18.307  0.00  0.00    +0.000 C 
ATOM     27  C   UNL     1      -0.398  10.023  19.695  0.00  0.00    +0.000 C 
ENDBRANCH  25  27
ENDBRANCH  23  25
ENDBRANCH  18  23
ENDBRANCH   1  21
BRANCH   2  28
ATOM     28  C   UNL     1       1.569   3.385  20.632  0.00  0.00    +0.000 C 
ATOM     29  F   UNL     1       1.216   2.163  21.118  0.00  0.00    +0.000 F 
ATOM     30  F   UNL     1       1.858   4.140  21.726  0.00  0.00    +0.000 F 
ATOM     31  F   UNL     1       0.440   3.906  20.081  0.00  0.00    +0.000 F 
ENDBRANCH   2  28
TORSDOF 9
ENDMDL
MODEL 3
REMARK VINA RESULT:      -8.7      3.346      6.888
REMARK  Name = 
REMARK  12 active torsions:
REMARK  status: ('A' for Active; 'I' for Inactive)
REMARK    1  A    between atoms: C_1  and  C_2
REMARK    2  A    between atoms: C_2  and  O_3
REMARK    3  A    between atoms: O_3  and  C_4
REMARK    4  A    between atoms: C_4  and  C_6
REMARK    5  A    between atoms: C_9  and  C_10
REMARK    6  A    between atoms: C_11  and  C_12
REMARK    7  A    between atoms: C_18  and  C_19
REMARK    8  A    between atoms: C_21  and  C_22
REMARK    9  A    between atoms: C_22  and  C_23
REMARK   10  A    between atoms: C_24  and  O_25
REMARK   11  A    between atoms: O_25  and  C_26
REMARK   12  A    between atoms: C_28  and  O_29
REMARK                            x       y       z     vdW  Elec       q    Type
REMARK                         _______ _______ _______ _____ _____    ______ ____
ROOT
ATOM      1  C   UNL     1       4.384   5.308  16.805  0.00  0.00    +0.000 A 
ATOM      2  C   UNL     1       5.380   5.511  15.812  0.00  0.00    +0.000 A 
ATOM      3  N   UNL     1       5.610   6.825  15.643  0.00  0.00    +0.000 NA
ATOM      4  O   UNL     1       4.750   7.480  16.501  0.00  0.00    +0.000 OA
ATOM      5  C   UNL     1       4.001   6.580  17.196  0.00  0.00    +0.000 A 
ENDROOT
BRANCH   5   6
ATOM      6  C   UNL     1       3.107   7.141  18.215  0.00  0.00    +0.000 A 
ATOM      7  C   UNL     1       2.278   8.225  17.879  0.00  0.00    +0.000 A 
ATOM      8  C   UNL     1       1.433   8.896  18.793  0.00  0.00    +0.000 A 
ATOM      9  C   UNL     1       1.358   8.366  20.091  0.00  0.00    +0.000 A 
ATOM     10  C   UNL     1       2.135   7.243  20.432  0.00  0.00    +0.000 A 
ATOM     11  C   UNL     1       3.012   6.653  19.518  0.00  0.00    +0.000 A 
BRANCH   8  12
ATOM     12  C   UNL     1       0.681  10.127  18.326  0.00  0.00    +0.000 C 
ATOM     13  C   UNL     1      -0.832  10.012  18.122  0.00  0.00    +0.000 C 
ENDBRANCH   8  12
BRANCH   9  14
ATOM     14  O   UNL     1       0.542   8.734  21.125  0.00  0.00    +0.000 OA
ATOM     15  C   UNL     1       1.098   9.187  22.346  0.00  0.00    +0.000 C 
ENDBRANCH   9  14
BRANCH  11  16
ATOM     16  O   UNL     1       3.784   5.598  19.924  0.00  0.00    +0.000 OA
ATOM     17  H   UNL     1       3.825   4.937  19.214  0.00  0.00    +0.000 HD
ENDBRANCH  11  16
ENDBRANCH   5   6
BRANCH   1  21
ATOM     18  C   UNL     1       2.353   2.674  18.289  0.00  0.00    +0.000 A 
ATOM     19  C   UNL     1       3.489   1.931  18.042  0.00  0.00    +0.000 A 
ATOM     20  C   UNL     1       4.421   2.807  17.427  0.00  0.00    +0.000 A 
ATOM     21  C   UNL     1       3.815   4.045  17.344  0.00  0.00    +0.000 A 
ATOM     22  O   UNL     1       2.569   3.961  17.894  0.00  0.00    +0.000 OA
BRANCH  18  23
ATOM     23  C   UNL     1       1.068   2.292  18.819  0.00  0.00    +0.000 C 
ATOM     24  O   UNL     1       0.026   2.249  18.183  0.00  0.00    +0.000 OA
BRANCH  23  25
ATOM     25  O   UNL     1       1.172   2.075  20.163  0.00  0.00    +0.000 OA
BRANCH  25  27
ATOM     26  C   UNL     1       2.308   3.283  21.877  0.00  0.00    +0.000 C 
ATOM     27  C   UNL     1       1.081   3.244  20.983  0.00  0.00    +0.000 C 
ENDBRANCH  25  27
ENDBRANCH  23  25
ENDBRANCH  18  23
ENDBRANCH   1  21
BRANCH   2  28
ATOM     28  C   UNL     1       6.096   4.524  14.954  0.00  0.00    +0.000 C 
ATOM     29  F   UNL     1       6.879   3.662  15.658  0.00  0.00    +0.000 F 
ATOM     30  F   UNL     1       5.245   3.739  14.239  0.00  0.00    +0.000 F 
ATOM     31  F   UNL     1       6.921   5.129  14.058  0.00  0.00    +0.000 F 
ENDBRANCH   2  28
TORSDOF 9
ENDMDL
MODEL 4
REMARK VINA RESULT:      -8.6      1.344      2.587
REMARK  Name = 
REMARK  12 active torsions:
REMARK  status: ('A' for Active; 'I' for Inactive)
REMARK    1  A    between atoms: C_1  and  C_2
REMARK    2  A    between atoms: C_2  and  O_3
REMARK    3  A    between atoms: O_3  and  C_4
REMARK    4  A    between atoms: C_4  and  C_6
REMARK    5  A    between atoms: C_9  and  C_10
REMARK    6  A    between atoms: C_11  and  C_12
REMARK    7  A    between atoms: C_18  and  C_19
REMARK    8  A    between atoms: C_21  and  C_22
REMARK    9  A    between atoms: C_22  and  C_23
REMARK   10  A    between atoms: C_24  and  O_25
REMARK   11  A    between atoms: O_25  and  C_26
REMARK   12  A    between atoms: C_28  and  O_29
REMARK                            x       y       z     vdW  Elec       q    Type
REMARK                         _______ _______ _______ _____ _____    ______ ____
ROOT
ATOM      1  C   UNL     1       3.413   4.464  19.442  0.00  0.00    +0.000 A 
ATOM      2  C   UNL     1       3.045   3.461  20.378  0.00  0.00    +0.000 A 
ATOM      3  N   UNL     1       3.823   2.374  20.227  0.00  0.00    +0.000 NA
ATOM      4  O   UNL     1       4.677   2.653  19.180  0.00  0.00    +0.000 OA
ATOM      5  C   UNL     1       4.434   3.901  18.693  0.00  0.00    +0.000 A 
ENDROOT
BRANCH   5   6
ATOM      6  C   UNL     1       5.337   4.363  17.633  0.00  0.00    +0.000 A 
ATOM      7  C   UNL     1       6.044   5.565  17.809  0.00  0.00    +0.000 A 
ATOM      8  C   UNL     1       6.881   6.148  16.830  0.00  0.00    +0.000 A 
ATOM      9  C   UNL     1       7.083   5.413  15.652  0.00  0.00    +0.000 A 
ATOM     10  C   UNL     1       6.431   4.177  15.480  0.00  0.00    +0.000 A 
ATOM     11  C   UNL     1       5.554   3.671  16.442  0.00  0.00    +0.000 A 
BRANCH   8  12
ATOM     12  C   UNL     1       7.492   7.508  17.106  0.00  0.00    +0.000 C 
ATOM     13  C   UNL     1       8.229   7.710  18.433  0.00  0.00    +0.000 C 
ENDBRANCH   8  12
BRANCH   9  14
ATOM     14  O   UNL     1       7.926   5.676  14.607  0.00  0.00    +0.000 OA
ATOM     15  C   UNL     1       7.660   5.139  13.324  0.00  0.00    +0.000 C 
ENDBRANCH   9  14
BRANCH  11  16
ATOM     16  O   UNL     1       4.905   2.491  16.194  0.00  0.00    +0.000 OA
ATOM     17  H   UNL     1       4.696   2.056  17.036  0.00  0.00    +0.000 HD
ENDBRANCH  11  16
ENDBRANCH   5   6
BRANCH   1  21
ATOM     18  C   UNL     1       1.879   7.756  19.716  0.00  0.00    +0.000 A 
ATOM     19  C   UNL     1       2.166   7.785  18.368  0.00  0.00    +0.000 A 
ATOM     20  C   UNL     1       2.806   6.555  18.062  0.00  0.00    +0.000 A 
ATOM     21  C   UNL     1       2.862   5.829  19.236  0.00  0.00    +0.000 A 
ATOM     22  O   UNL     1       2.274   6.556  20.230  0.00  0.00    +0.000 OA
BRANCH  18  23
ATOM     23  C   UNL     1       1.310   8.756  20.585  0.00  0.00    +0.000 C 
ATOM     24  O   UNL     1       1.010   8.586  21.756  0.00  0.00    +0.000 OA
BRANCH  23  25
ATOM     25  O   UNL     1       1.068   9.897  19.875  0.00  0.00    +0.000 OA
BRANCH  25  27
ATOM     26  C   UNL     1      -0.727  10.208  18.338  0.00  0.00    +0.000 C 
ATOM     27  C   UNL     1      -0.305  10.293  19.793  0.00  0.00    +0.000 C 
ENDBRANCH  25  27
ENDBRANCH  23  25
ENDBRANCH  18  23
ENDBRANCH   1  21
BRANCH   2  28
ATOM     28  C   UNL     1       1.944   3.443  21.382  0.00  0.00    +0.000 C 
ATOM     29  F   UNL     1       0.764   3.918  20.901  0.00  0.00    +0.000 F 
ATOM     30  F   UNL     1       1.672   2.190  21.837  0.00  0.00    +0.000 F 
ATOM     31  F   UNL     1       2.235   4.202  22.472  0.00  0.00    +0.000 F 
ENDBRANCH   2  28
TORSDOF 9
ENDMDL
MODEL 5
REMARK VINA RESULT:      -8.6      1.164      2.189
REMARK  Name = 
REMARK  12 active torsions:
REMARK  status: ('A' for Active; 'I' for Inactive)
REMARK    1  A    between atoms: C_1  and  C_2
REMARK    2  A    between atoms: C_2  and  O_3
REMARK    3  A    between atoms: O_3  and  C_4
REMARK    4  A    between atoms: C_4  and  C_6
REMARK    5  A    between atoms: C_9  and  C_10
REMARK    6  A    between atoms: C_11  and  C_12
REMARK    7  A    between atoms: C_18  and  C_19
REMARK    8  A    between atoms: C_21  and  C_22
REMARK    9  A    between atoms: C_22  and  C_23
REMARK   10  A    between atoms: C_24  and  O_25
REMARK   11  A    between atoms: O_25  and  C_26
REMARK   12  A    between atoms: C_28  and  O_29
REMARK                            x       y       z     vdW  Elec       q    Type
REMARK                         _______ _______ _______ _____ _____    ______ ____
ROOT
ATOM      1  C   UNL     1       3.472   4.493  19.424  0.00  0.00    +0.000 A 
ATOM      2  C   UNL     1       3.138   3.522  20.406  0.00  0.00    +0.000 A 
ATOM      3  N   UNL     1       3.963   2.464  20.316  0.00  0.00    +0.000 NA
ATOM      4  O   UNL     1       4.815   2.728  19.263  0.00  0.00    +0.000 OA
ATOM      5  C   UNL     1       4.524   3.938  18.712  0.00  0.00    +0.000 A 
ENDROOT
BRANCH   5   6
ATOM      6  C   UNL     1       5.417   4.386  17.638  0.00  0.00    +0.000 A 
ATOM      7  C   UNL     1       6.133   5.585  17.796  0.00  0.00    +0.000 A 
ATOM      8  C   UNL     1       6.962   6.154  16.802  0.00  0.00    +0.000 A 
ATOM      9  C   UNL     1       7.146   5.408  15.627  0.00  0.00    +0.000 A 
ATOM     10  C   UNL     1       6.484   4.175  15.474  0.00  0.00    +0.000 A 
ATOM     11  C   UNL     1       5.616   3.682  16.451  0.00  0.00    +0.000 A 
BRANCH   8  12
ATOM     12  C   UNL     1       7.584   7.514  17.059  0.00  0.00    +0.000 C 
ATOM     13  C   UNL     1       8.258   7.752  18.412  0.00  0.00    +0.000 C 
ENDBRANCH   8  12
BRANCH   9  14
ATOM     14  O   UNL     1       7.978   5.657  14.570  0.00  0.00    +0.000 OA
ATOM     15  C   UNL     1       7.656   5.170  13.280  0.00  0.00    +0.000 C 
ENDBRANCH   9  14
BRANCH  11  16
ATOM     16  O   UNL     1       4.957   2.504  16.221  0.00  0.00    +0.000 OA
ATOM     17  H   UNL     1       4.676   2.122  17.068  0.00  0.00    +0.000 HD
ENDBRANCH  11  16
ENDBRANCH   5   6
BRANCH   1  21
ATOM     18  C   UNL     1       1.845   7.750  19.533  0.00  0.00    +0.000 A 
ATOM     19  C   UNL     1       2.060   7.683  18.172  0.00  0.00    +0.000 A 
ATOM     20  C   UNL     1       2.724   6.453  17.926  0.00  0.00    +0.000 A 
ATOM     21  C   UNL     1       2.866   5.822  19.147  0.00  0.00    +0.000 A 
ATOM     22  O   UNL     1       2.306   6.605  20.113  0.00  0.00    +0.000 OA
BRANCH  18  23
ATOM     23  C   UNL     1       1.288   8.796  20.353  0.00  0.00    +0.000 C 
ATOM     24  O   UNL     1       1.123   9.954  20.005  0.00  0.00    +0.000 OA
BRANCH  23  25
ATOM     25  O   UNL     1       1.061   8.320  21.613  0.00  0.00    +0.000 OA
BRANCH  25  27
ATOM     26  C   UNL     1      -0.194   9.537  23.235  0.00  0.00    +0.000 C 
ATOM     27  C   UNL     1       1.190   9.280  22.666  0.00  0.00    +0.000 C 
ENDBRANCH  25  27
ENDBRANCH  23  25
ENDBRANCH  18  23
ENDBRANCH   1  21
BRANCH   2  28
ATOM     28  C   UNL     1       2.029   3.507  21.401  0.00  0.00    +0.000 C 
ATOM     29  F   UNL     1       2.279   4.264  22.504  0.00  0.00    +0.000 F 
ATOM     30  F   UNL     1       0.861   3.983  20.891  0.00  0.00    +0.000 F 
ATOM     31  F   UNL     1       1.774   2.253  21.862  0.00  0.00    +0.000 F 
ENDBRANCH   2  28
TORSDOF 9
ENDMDL
MODEL 6
REMARK VINA RESULT:      -8.5      3.278      6.950
REMARK  Name = 
REMARK  12 active torsions:
REMARK  status: ('A' for Active; 'I' for Inactive)
REMARK    1  A    between atoms: C_1  and  C_2
REMARK    2  A    between atoms: C_2  and  O_3
REMARK    3  A    between atoms: O_3  and  C_4
REMARK    4  A    between atoms: C_4  and  C_6
REMARK    5  A    between atoms: C_9  and  C_10
REMARK    6  A    between atoms: C_11  and  C_12
REMARK    7  A    between atoms: C_18  and  C_19
REMARK    8  A    between atoms: C_21  and  C_22
REMARK    9  A    between atoms: C_22  and  C_23
REMARK   10  A    between atoms: C_24  and  O_25
REMARK   11  A    between atoms: O_25  and  C_26
REMARK   12  A    between atoms: C_28  and  O_29
REMARK                            x       y       z     vdW  Elec       q    Type
REMARK                         _______ _______ _______ _____ _____    ______ ____
ROOT
ATOM      1  C   UNL     1       4.344   5.476  16.942  0.00  0.00    +0.000 A 
ATOM      2  C   UNL     1       5.318   5.616  15.917  0.00  0.00    +0.000 A 
ATOM      3  N   UNL     1       5.452   6.910  15.574  0.00  0.00    +0.000 NA
ATOM      4  O   UNL     1       4.551   7.610  16.351  0.00  0.00    +0.000 OA
ATOM      5  C   UNL     1       3.872   6.759  17.169  0.00  0.00    +0.000 A 
ENDROOT
BRANCH   5   6
ATOM      6  C   UNL     1       2.945   7.385  18.118  0.00  0.00    +0.000 A 
ATOM      7  C   UNL     1       2.066   8.383  17.662  0.00  0.00    +0.000 A 
ATOM      8  C   UNL     1       1.183   9.109  18.495  0.00  0.00    +0.000 A 
ATOM      9  C   UNL     1       1.125   8.723  19.843  0.00  0.00    +0.000 A 
ATOM     10  C   UNL     1       1.954   7.684  20.308  0.00  0.00    +0.000 A 
ATOM     11  C   UNL     1       2.865   7.041  19.467  0.00  0.00    +0.000 A 
BRANCH   8  12
ATOM     12  C   UNL     1       0.375  10.242  17.893  0.00  0.00    +0.000 C 
ATOM     13  C   UNL     1      -1.134  10.043  17.733  0.00  0.00    +0.000 C 
ENDBRANCH   8  12
BRANCH   9  14
ATOM     14  O   UNL     1       0.286   9.163  20.829  0.00  0.00    +0.000 OA
ATOM     15  C   UNL     1      -0.364   8.236  21.679  0.00  0.00    +0.000 C 
ENDBRANCH   9  14
BRANCH  11  16
ATOM     16  O   UNL     1       3.685   6.077  19.989  0.00  0.00    +0.000 OA
ATOM     17  H   UNL     1       4.336   5.812  19.320  0.00  0.00    +0.000 HD
ENDBRANCH  11  16
ENDBRANCH   5   6
BRANCH   1  21
ATOM     18  C   UNL     1       3.672   2.746  19.257  0.00  0.00    +0.000 A 
ATOM     19  C   UNL     1       2.877   2.319  18.213  0.00  0.00    +0.000 A 
ATOM     20  C   UNL     1       2.995   3.294  17.189  0.00  0.00    +0.000 A 
ATOM     21  C   UNL     1       3.869   4.259  17.651  0.00  0.00    +0.000 A 
ATOM     22  O   UNL     1       4.295   3.905  18.897  0.00  0.00    +0.000 OA
BRANCH  18  23
ATOM     23  C   UNL     1       3.875   2.201  20.576  0.00  0.00    +0.000 C 
ATOM     24  O   UNL     1       4.924   1.735  20.994  0.00  0.00    +0.000 OA
BRANCH  23  25
ATOM     25  O   UNL     1       2.693   2.198  21.259  0.00  0.00    +0.000 OA
BRANCH  25  27
ATOM     26  C   UNL     1       1.077   3.885  20.782  0.00  0.00    +0.000 C 
ATOM     27  C   UNL     1       2.226   3.481  21.688  0.00  0.00    +0.000 C 
ENDBRANCH  25  27
ENDBRANCH  23  25
ENDBRANCH  18  23
ENDBRANCH   1  21
BRANCH   2  28
ATOM     28  C   UNL     1       6.098   4.578  15.187  0.00  0.00    +0.000 C 
ATOM     29  F   UNL     1       6.924   5.092  14.234  0.00  0.00    +0.000 F 
ATOM     30  F   UNL     1       6.901   3.852  16.010  0.00  0.00    +0.000 F 
ATOM     31  F   UNL     1       5.292   3.693  14.542  0.00  0.00    +0.000 F 
ENDBRANCH   2  28
TORSDOF 9
ENDMDL
MODEL 7
REMARK VINA RESULT:      -8.4      0.862      1.294
REMARK  Name = 
REMARK  12 active torsions:
REMARK  status: ('A' for Active; 'I' for Inactive)
REMARK    1  A    between atoms: C_1  and  C_2
REMARK    2  A    between atoms: C_2  and  O_3
REMARK    3  A    between atoms: O_3  and  C_4
REMARK    4  A    between atoms: C_4  and  C_6
REMARK    5  A    between atoms: C_9  and  C_10
REMARK    6  A    between atoms: C_11  and  C_12
REMARK    7  A    between atoms: C_18  and  C_19
REMARK    8  A    between atoms: C_21  and  C_22
REMARK    9  A    between atoms: C_22  and  C_23
REMARK   10  A    between atoms: C_24  and  O_25
REMARK   11  A    between atoms: O_25  and  C_26
REMARK   12  A    between atoms: C_28  and  O_29
REMARK                            x       y       z     vdW  Elec       q    Type
REMARK                         _______ _______ _______ _____ _____    ______ ____
ROOT
ATOM      1  C   UNL     1       3.304   4.376  19.018  0.00  0.00    +0.000 A 
ATOM      2  C   UNL     1       2.829   3.327  19.851  0.00  0.00    +0.000 A 
ATOM      3  N   UNL     1       3.518   2.195  19.614  0.00  0.00    +0.000 NA
ATOM      4  O   UNL     1       4.419   2.494  18.613  0.00  0.00    +0.000 OA
ATOM      5  C   UNL     1       4.293   3.797  18.239  0.00  0.00    +0.000 A 
ENDROOT
BRANCH   5   6
ATOM      6  C   UNL     1       5.259   4.275  17.242  0.00  0.00    +0.000 A 
ATOM      7  C   UNL     1       5.203   3.764  15.934  0.00  0.00    +0.000 A 
ATOM      8  C   UNL     1       6.125   4.090  14.912  0.00  0.00    +0.000 A 
ATOM      9  C   UNL     1       7.089   5.064  15.216  0.00  0.00    +0.000 A 
ATOM     10  C   UNL     1       7.124   5.633  16.504  0.00  0.00    +0.000 A 
ATOM     11  C   UNL     1       6.240   5.229  17.508  0.00  0.00    +0.000 A 
BRANCH   8  12
ATOM     12  C   UNL     1       6.020   3.376  13.578  0.00  0.00    +0.000 C 
ATOM     13  C   UNL     1       4.890   3.785  12.630  0.00  0.00    +0.000 C 
ENDBRANCH   8  12
BRANCH   9  14
ATOM     14  O   UNL     1       8.011   5.650  14.393  0.00  0.00    +0.000 OA
ATOM     15  C   UNL     1       8.035   5.338  13.013  0.00  0.00    +0.000 C 
ENDBRANCH   9  14
BRANCH  11  16
ATOM     16  O   UNL     1       6.359   5.777  18.757  0.00  0.00    +0.000 OA
ATOM     17  H   UNL     1       5.640   5.450  19.321  0.00  0.00    +0.000 HD
ENDBRANCH  11  16
ENDBRANCH   5   6
BRANCH   1  21
ATOM     18  C   UNL     1       1.977   7.727  19.543  0.00  0.00    +0.000 A 
ATOM     19  C   UNL     1       2.417   7.890  18.246  0.00  0.00    +0.000 A 
ATOM     20  C   UNL     1       3.001   6.657  17.857  0.00  0.00    +0.000 A 
ATOM     21  C   UNL     1       2.875   5.796  18.930  0.00  0.00    +0.000 A 
ATOM     22  O   UNL     1       2.228   6.446  19.940  0.00  0.00    +0.000 OA
BRANCH  18  23
ATOM     23  C   UNL     1       1.383   8.661  20.466  0.00  0.00    +0.000 C 
ATOM     24  O   UNL     1       1.448   8.589  21.683  0.00  0.00    +0.000 OA
BRANCH  23  25
ATOM     25  O   UNL     1       0.653   9.587  19.777  0.00  0.00    +0.000 OA
BRANCH  25  27
ATOM     26  C   UNL     1       1.432  11.677  18.935  0.00  0.00    +0.000 C 
ATOM     27  C   UNL     1       0.881  10.950  20.148  0.00  0.00    +0.000 C 
ENDBRANCH  25  27
ENDBRANCH  23  25
ENDBRANCH  18  23
ENDBRANCH   1  21
BRANCH   2  28
ATOM     28  C   UNL     1       1.706   3.312  20.829  0.00  0.00    +0.000 C 
ATOM     29  F   UNL     1       1.974   3.999  21.973  0.00  0.00    +0.000 F 
ATOM     30  F   UNL     1       0.570   3.870  20.329  0.00  0.00    +0.000 F 
ATOM     31  F   UNL     1       1.385   2.049  21.220  0.00  0.00    +0.000 F 
ENDBRANCH   2  28
TORSDOF 9
ENDMDL
MODEL 8
REMARK VINA RESULT:      -8.2      1.948      7.198
REMARK  Name = 
REMARK  12 active torsions:
REMARK  status: ('A' for Active; 'I' for Inactive)
REMARK    1  A    between atoms: C_1  and  C_2
REMARK    2  A    between atoms: C_2  and  O_3
REMARK    3  A    between atoms: O_3  and  C_4
REMARK    4  A    between atoms: C_4  and  C_6
REMARK    5  A    between atoms: C_9  and  C_10
REMARK    6  A    between atoms: C_11  and  C_12
REMARK    7  A    between atoms: C_18  and  C_19
REMARK    8  A    between atoms: C_21  and  C_22
REMARK    9  A    between atoms: C_22  and  C_23
REMARK   10  A    between atoms: C_24  and  O_25
REMARK   11  A    between atoms: O_25  and  C_26
REMARK   12  A    between atoms: C_28  and  O_29
REMARK                            x       y       z     vdW  Elec       q    Type
REMARK                         _______ _______ _______ _____ _____    ______ ____
ROOT
ATOM      1  C   UNL     1       2.921   4.784  19.401  0.00  0.00    +0.000 A 
ATOM      2  C   UNL     1       2.441   3.461  19.602  0.00  0.00    +0.000 A 
ATOM      3  N   UNL     1       1.244   3.487  20.215  0.00  0.00    +0.000 NA
ATOM      4  O   UNL     1       0.954   4.817  20.439  0.00  0.00    +0.000 OA
ATOM      5  C   UNL     1       1.958   5.605  19.964  0.00  0.00    +0.000 A 
ENDROOT
BRANCH   5   6
ATOM      6  C   UNL     1       1.734   7.053  20.054  0.00  0.00    +0.000 A 
ATOM      7  C   UNL     1       1.399   7.619  21.296  0.00  0.00    +0.000 A 
ATOM      8  C   UNL     1       1.087   8.985  21.491  0.00  0.00    +0.000 A 
ATOM      9  C   UNL     1       1.224   9.830  20.379  0.00  0.00    +0.000 A 
ATOM     10  C   UNL     1       1.617   9.292  19.138  0.00  0.00    +0.000 A 
ATOM     11  C   UNL     1       1.846   7.924  18.971  0.00  0.00    +0.000 A 
BRANCH   8  12
ATOM     12  C   UNL     1       0.626   9.441  22.861  0.00  0.00    +0.000 C 
ATOM     13  C   UNL     1      -0.761  10.080  22.978  0.00  0.00    +0.000 C 
ENDBRANCH   8  12
BRANCH   9  14
ATOM     14  O   UNL     1       1.109  11.191  20.311  0.00  0.00    +0.000 OA
ATOM     15  C   UNL     1       1.414  11.874  19.110  0.00  0.00    +0.000 C 
ENDBRANCH   9  14
BRANCH  11  16
ATOM     16  O   UNL     1       2.171   7.451  17.728  0.00  0.00    +0.000 OA
ATOM     17  H   UNL     1       1.601   7.872  17.064  0.00  0.00    +0.000 HD
ENDBRANCH  11  16
ENDBRANCH   5   6
BRANCH   1  21
ATOM     18  C   UNL     1       5.554   5.908  17.149  0.00  0.00    +0.000 A 
ATOM     19  C   UNL     1       6.281   5.914  18.321  0.00  0.00    +0.000 A 
ATOM     20  C   UNL     1       5.393   5.510  19.352  0.00  0.00    +0.000 A 
ATOM     21  C   UNL     1       4.172   5.260  18.756  0.00  0.00    +0.000 A 
ATOM     22  O   UNL     1       4.286   5.479  17.414  0.00  0.00    +0.000 OA
BRANCH  18  23
ATOM     23  C   UNL     1       5.912   6.303  15.810  0.00  0.00    +0.000 C 
ATOM     24  O   UNL     1       5.221   6.978  15.064  0.00  0.00    +0.000 OA
BRANCH  23  25
ATOM     25  O   UNL     1       7.102   5.728  15.464  0.00  0.00    +0.000 OA
BRANCH  25  27
ATOM     26  C   UNL     1       6.177   3.800  14.409  0.00  0.00    +0.000 C 
ATOM     27  C   UNL     1       7.097   4.995  14.235  0.00  0.00    +0.000 C 
ENDBRANCH  25  27
ENDBRANCH  23  25
ENDBRANCH  18  23
ENDBRANCH   1  21
BRANCH   2  28
ATOM     28  C   UNL     1       3.084   2.151  19.301  0.00  0.00    +0.000 C 
ATOM     29  F   UNL     1       4.133   1.861  20.118  0.00  0.00    +0.000 F 
ATOM     30  F   UNL     1       2.224   1.105  19.430  0.00  0.00    +0.000 F 
ATOM     31  F   UNL     1       3.576   2.102  18.034  0.00  0.00    +0.000 F 
ENDBRANCH   2  28
TORSDOF 9
ENDMDL
MODEL 9
REMARK VINA RESULT:      -8.1      2.002      7.095
REMARK  Name = 
REMARK  12 active torsions:
REMARK  status: ('A' for Active; 'I' for Inactive)
REMARK    1  A    between atoms: C_1  and  C_2
REMARK    2  A    between atoms: C_2  and  O_3
REMARK    3  A    between atoms: O_3  and  C_4
REMARK    4  A    between atoms: C_4  and  C_6
REMARK    5  A    between atoms: C_9  and  C_10
REMARK    6  A    between atoms: C_11  and  C_12
REMARK    7  A    between atoms: C_18  and  C_19
REMARK    8  A    between atoms: C_21  and  C_22
REMARK    9  A    between atoms: C_22  and  C_23
REMARK   10  A    between atoms: C_24  and  O_25
REMARK   11  A    between atoms: O_25  and  C_26
REMARK   12  A    between atoms: C_28  and  O_29
REMARK                            x       y       z     vdW  Elec       q    Type
REMARK                         _______ _______ _______ _____ _____    ______ ____
ROOT
ATOM      1  C   UNL     1       3.260   4.563  19.133  0.00  0.00    +0.000 A 
ATOM      2  C   UNL     1       2.751   3.237  19.100  0.00  0.00    +0.000 A 
ATOM      3  N   UNL     1       1.437   3.233  19.391  0.00  0.00    +0.000 NA
ATOM      4  O   UNL     1       1.095   4.547  19.640  0.00  0.00    +0.000 OA
ATOM      5  C   UNL     1       2.182   5.353  19.498  0.00  0.00    +0.000 A 
ENDROOT
BRANCH   5   6
ATOM      6  C   UNL     1       1.937   6.793  19.645  0.00  0.00    +0.000 A 
ATOM      7  C   UNL     1       1.572   7.302  20.903  0.00  0.00    +0.000 A 
ATOM      8  C   UNL     1       1.237   8.654  21.149  0.00  0.00    +0.000 A 
ATOM      9  C   UNL     1       1.383   9.546  20.076  0.00  0.00    +0.000 A 
ATOM     10  C   UNL     1       1.807   9.067  18.821  0.00  0.00    +0.000 A 
ATOM     11  C   UNL     1       2.057   7.710  18.602  0.00  0.00    +0.000 A 
BRANCH   8  12
ATOM     12  C   UNL     1       0.745   9.046  22.528  0.00  0.00    +0.000 C 
ATOM     13  C   UNL     1      -0.553   9.852  22.626  0.00  0.00    +0.000 C 
ENDBRANCH   8  12
BRANCH   9  14
ATOM     14  O   UNL     1       1.250  10.908  20.064  0.00  0.00    +0.000 OA
ATOM     15  C   UNL     1       0.174  11.513  19.372  0.00  0.00    +0.000 C 
ENDBRANCH   9  14
BRANCH  11  16
ATOM     16  O   UNL     1       2.412   7.295  17.347  0.00  0.00    +0.000 OA
ATOM     17  H   UNL     1       1.613   7.181  16.807  0.00  0.00    +0.000 HD
ENDBRANCH  11  16
ENDBRANCH   5   6
BRANCH   1  21
ATOM     18  C   UNL     1       6.324   5.968  17.753  0.00  0.00    +0.000 A 
ATOM     19  C   UNL     1       6.812   5.612  18.993  0.00  0.00    +0.000 A 
ATOM     20  C   UNL     1       5.725   5.046  19.709  0.00  0.00    +0.000 A 
ATOM     21  C   UNL     1       4.632   5.068  18.865  0.00  0.00    +0.000 A 
ATOM     22  O   UNL     1       5.011   5.606  17.670  0.00  0.00    +0.000 OA
BRANCH  18  23
ATOM     23  C   UNL     1       6.950   6.653  16.650  0.00  0.00    +0.000 C 
ATOM     24  O   UNL     1       7.707   7.605  16.748  0.00  0.00    +0.000 OA
BRANCH  23  25
ATOM     25  O   UNL     1       6.494   6.136  15.471  0.00  0.00    +0.000 OA
BRANCH  25  27
ATOM     26  C   UNL     1       6.005   4.029  14.468  0.00  0.00    +0.000 C 
ATOM     27  C   UNL     1       7.094   4.901  15.067  0.00  0.00    +0.000 C 
ENDBRANCH  25  27
ENDBRANCH  23  25
ENDBRANCH  18  23
ENDBRANCH   1  21
BRANCH   2  28
ATOM     28  C   UNL     1       3.455   1.944  18.867  0.00  0.00    +0.000 C 
ATOM     29  F   UNL     1       2.637   0.859  18.951  0.00  0.00    +0.000 F 
ATOM     30  F   UNL     1       4.024   1.874  17.633  0.00  0.00    +0.000 F 
ATOM     31  F   UNL     1       4.448   1.732  19.771  0.00  0.00    +0.000 F 
ENDBRANCH   2  28
TORSDOF 9
ENDMDL
