MODEL 1
REMARK VINA RESULT:      -7.3      0.000      0.000
REMARK  Name = 
REMARK  4 active torsions:
REMARK  status: ('A' for Active; 'I' for Inactive)
REMARK    1  A    between atoms: C_1  and  C_2
REMARK    2  A    between atoms: C_4  and  O_5
REMARK    3  A    between atoms: C_12  and  O_13
REMARK    4  A    between atoms: C_14  and  C_15
REMARK                            x       y       z     vdW  Elec       q    Type
REMARK                         _______ _______ _______ _____ _____    ______ ____
ROOT
ATOM      1  C   UNL     1       2.194   6.692  20.174  0.00  0.00    +0.000 C 
ATOM      2  C   UNL     1       2.281   5.189  20.107  0.00  0.00    +0.000 A 
ATOM      3  C   UNL     1       1.573   4.521  21.140  0.00  0.00    +0.000 A 
ATOM      4  C   UNL     1       1.550   3.141  21.213  0.00  0.00    +0.000 A 
ATOM      5  C   UNL     1       2.222   2.397  20.271  0.00  0.00    +0.000 A 
ATOM      6  C   UNL     1       2.934   3.037  19.235  0.00  0.00    +0.000 A 
ATOM      7  C   UNL     1       2.990   4.445  19.116  0.00  0.00    +0.000 A 
ATOM      8  C   UNL     1       3.786   4.973  17.963  0.00  0.00    +0.000 A 
ATOM      9  C   UNL     1       3.958   6.336  17.661  0.00  0.00    +0.000 A 
ATOM     10  C   UNL     1       4.713   6.792  16.573  0.00  0.00    +0.000 A 
ATOM     11  C   UNL     1       5.329   5.883  15.733  0.00  0.00    +0.000 A 
ATOM     12  C   UNL     1       5.205   4.519  15.969  0.00  0.00    +0.000 A 
ATOM     13  C   UNL     1       5.863   3.512  15.062  0.00  0.00    +0.000 C 
ATOM     14  C   UNL     1       4.440   4.080  17.083  0.00  0.00    +0.000 A 
ATOM     15  O   UNL     1       4.421   2.721  17.228  0.00  0.00    +0.000 OA
ATOM     16  C   UNL     1       3.614   2.140  18.238  0.00  0.00    +0.000 C 
ENDROOT
BRANCH   4  17
ATOM     17  O   UNL     1       0.876   2.485  22.195  0.00  0.00    +0.000 OA
ATOM     18  H   UNL     1       1.500   2.254  22.903  0.00  0.00    +0.000 HD
ENDBRANCH   4  17
BRANCH  11  19
ATOM     19  O   UNL     1       6.063   6.328  14.670  0.00  0.00    +0.000 OA
ATOM     20  H   UNL     1       6.791   5.707  14.505  0.00  0.00    +0.000 HD
ENDBRANCH  11  19
TORSDOF 2
ENDMDL
MODEL 2
REMARK VINA RESULT:      -7.1      2.497      4.558
REMARK  Name = 
REMARK  4 active torsions:
REMARK  status: ('A' for Active; 'I' for Inactive)
REMARK    1  A    between atoms: C_1  and  C_2
REMARK    2  A    between atoms: C_4  and  O_5
REMARK    3  A    between atoms: C_12  and  O_13
REMARK    4  A    between atoms: C_14  and  C_15
REMARK                            x       y       z     vdW  Elec       q    Type
REMARK                         _______ _______ _______ _____ _____    ______ ____
ROOT
ATOM      1  C   UNL     1       1.867   3.378  21.710  0.00  0.00    +0.000 C 
ATOM      2  C   UNL     1       2.596   3.370  20.391  0.00  0.00    +0.000 A 
ATOM      3  C   UNL     1       3.135   2.107  20.035  0.00  0.00    +0.000 A 
ATOM      4  C   UNL     1       3.827   1.934  18.851  0.00  0.00    +0.000 A 
ATOM      5  C   UNL     1       3.999   3.001  18.000  0.00  0.00    +0.000 A 
ATOM      6  C   UNL     1       3.474   4.267  18.332  0.00  0.00    +0.000 A 
ATOM      7  C   UNL     1       2.761   4.497  19.531  0.00  0.00    +0.000 A 
ATOM      8  C   UNL     1       2.267   5.895  19.740  0.00  0.00    +0.000 A 
ATOM      9  C   UNL     1       1.530   6.329  20.856  0.00  0.00    +0.000 A 
ATOM     10  C   UNL     1       1.087   7.649  21.019  0.00  0.00    +0.000 A 
ATOM     11  C   UNL     1       1.368   8.593  20.049  0.00  0.00    +0.000 A 
ATOM     12  C   UNL     1       2.093   8.238  18.917  0.00  0.00    +0.000 A 
ATOM     13  C   UNL     1       2.405   9.251  17.848  0.00  0.00    +0.000 C 
ATOM     14  C   UNL     1       2.538   6.896  18.779  0.00  0.00    +0.000 A 
ATOM     15  O   UNL     1       3.269   6.681  17.643  0.00  0.00    +0.000 OA
ATOM     16  C   UNL     1       3.690   5.365  17.327  0.00  0.00    +0.000 C 
ENDROOT
BRANCH   4  17
ATOM     17  O   UNL     1       4.348   0.730  18.493  0.00  0.00    +0.000 OA
ATOM     18  H   UNL     1       4.454   0.185  19.290  0.00  0.00    +0.000 HD
ENDBRANCH   4  17
BRANCH  11  19
ATOM     19  O   UNL     1       0.934   9.879  20.206  0.00  0.00    +0.000 OA
ATOM     20  H   UNL     1       1.063  10.147  21.129  0.00  0.00    +0.000 HD
ENDBRANCH  11  19
TORSDOF 2
ENDMDL
MODEL 3
REMARK VINA RESULT:      -6.9      2.463      4.725
REMARK  Name = 
REMARK  4 active torsions:
REMARK  status: ('A' for Active; 'I' for Inactive)
REMARK    1  A    between atoms: C_1  and  C_2
REMARK    2  A    between atoms: C_4  and  O_5
REMARK    3  A    between atoms: C_12  and  O_13
REMARK    4  A    between atoms: C_14  and  C_15
REMARK                            x       y       z     vdW  Elec       q    Type
REMARK                         _______ _______ _______ _____ _____    ______ ____
ROOT
ATOM      1  C   UNL     1       4.393   4.964  16.333  0.00  0.00    +0.000 C 
ATOM      2  C   UNL     1       3.917   4.245  17.569  0.00  0.00    +0.000 A 
ATOM      3  C   UNL     1       4.267   2.871  17.611  0.00  0.00    +0.000 A 
ATOM      4  C   UNL     1       3.908   2.075  18.683  0.00  0.00    +0.000 A 
ATOM      5  C   UNL     1       3.202   2.620  19.730  0.00  0.00    +0.000 A 
ATOM      6  C   UNL     1       2.841   3.984  19.711  0.00  0.00    +0.000 A 
ATOM      7  C   UNL     1       3.181   4.839  18.638  0.00  0.00    +0.000 A 
ATOM      8  C   UNL     1       2.728   6.261  18.765  0.00  0.00    +0.000 A 
ATOM      9  C   UNL     1       2.971   7.271  17.818  0.00  0.00    +0.000 A 
ATOM     10  C   UNL     1       2.528   8.591  17.971  0.00  0.00    +0.000 A 
ATOM     11  C   UNL     1       1.815   8.951  19.100  0.00  0.00    +0.000 A 
ATOM     12  C   UNL     1       1.536   8.006  20.080  0.00  0.00    +0.000 A 
ATOM     13  C   UNL     1       0.766   8.380  21.320  0.00  0.00    +0.000 C 
ATOM     14  C   UNL     1       1.989   6.672  19.899  0.00  0.00    +0.000 A 
ATOM     15  O   UNL     1       1.622   5.830  20.913  0.00  0.00    +0.000 OA
ATOM     16  C   UNL     1       2.093   4.494  20.912  0.00  0.00    +0.000 C 
ENDROOT
BRANCH   4  17
ATOM     17  O   UNL     1       4.237   0.757  18.741  0.00  0.00    +0.000 OA
ATOM     18  H   UNL     1       4.877   0.625  19.460  0.00  0.00    +0.000 HD
ENDBRANCH   4  17
BRANCH  11  19
ATOM     19  O   UNL     1       1.385  10.239  19.251  0.00  0.00    +0.000 OA
ATOM     20  H   UNL     1       1.372  10.672  18.383  0.00  0.00    +0.000 HD
ENDBRANCH  11  19
TORSDOF 2
ENDMDL
MODEL 4
REMARK VINA RESULT:      -6.9      2.909      5.105
REMARK  Name = 
REMARK  4 active torsions:
REMARK  status: ('A' for Active; 'I' for Inactive)
REMARK    1  A    between atoms: C_1  and  C_2
REMARK    2  A    between atoms: C_4  and  O_5
REMARK    3  A    between atoms: C_12  and  O_13
REMARK    4  A    between atoms: C_14  and  C_15
REMARK                            x       y       z     vdW  Elec       q    Type
REMARK                         _______ _______ _______ _____ _____    ______ ____
ROOT
ATOM      1  C   UNL     1       4.699   6.034  16.648  0.00  0.00    +0.000 C 
ATOM      2  C   UNL     1       4.203   5.327  17.883  0.00  0.00    +0.000 A 
ATOM      3  C   UNL     1       4.736   4.024  18.058  0.00  0.00    +0.000 A 
ATOM      4  C   UNL     1       4.384   3.249  19.147  0.00  0.00    +0.000 A 
ATOM      5  C   UNL     1       3.504   3.745  20.081  0.00  0.00    +0.000 A 
ATOM      6  C   UNL     1       2.959   5.038  19.929  0.00  0.00    +0.000 A 
ATOM      7  C   UNL     1       3.285   5.869  18.833  0.00  0.00    +0.000 A 
ATOM      8  C   UNL     1       2.627   7.214  18.813  0.00  0.00    +0.000 A 
ATOM      9  C   UNL     1       2.823   8.191  17.821  0.00  0.00    +0.000 A 
ATOM     10  C   UNL     1       2.185   9.439  17.835  0.00  0.00    +0.000 A 
ATOM     11  C   UNL     1       1.317   9.757  18.864  0.00  0.00    +0.000 A 
ATOM     12  C   UNL     1       1.073   8.840  19.880  0.00  0.00    +0.000 A 
ATOM     13  C   UNL     1       0.135   9.169  21.011  0.00  0.00    +0.000 C 
ATOM     14  C   UNL     1       1.725   7.578  19.840  0.00  0.00    +0.000 A 
ATOM     15  O   UNL     1       1.377   6.753  20.874  0.00  0.00    +0.000 OA
ATOM     16  C   UNL     1       2.028   5.503  21.014  0.00  0.00    +0.000 C 
ENDROOT
BRANCH   4  17
ATOM     17  O   UNL     1       4.886   1.998  19.332  0.00  0.00    +0.000 OA
ATOM     18  H   UNL     1       4.147   1.376  19.434  0.00  0.00    +0.000 HD
ENDBRANCH   4  17
BRANCH  11  19
ATOM     19  O   UNL     1       0.697  10.973  18.879  0.00  0.00    +0.000 OA
ATOM     20  H   UNL     1      -0.249  10.850  18.704  0.00  0.00    +0.000 HD
ENDBRANCH  11  19
TORSDOF 2
ENDMDL
MODEL 5
REMARK VINA RESULT:      -6.8      3.065      5.480
REMARK  Name = 
REMARK  4 active torsions:
REMARK  status: ('A' for Active; 'I' for Inactive)
REMARK    1  A    between atoms: C_1  and  C_2
REMARK    2  A    between atoms: C_4  and  O_5
REMARK    3  A    between atoms: C_12  and  O_13
REMARK    4  A    between atoms: C_14  and  C_15
REMARK                            x       y       z     vdW  Elec       q    Type
REMARK                         _______ _______ _______ _____ _____    ______ ____
ROOT
ATOM      1  C   UNL     1       0.381   8.372  21.529  0.00  0.00    +0.000 C 
ATOM      2  C   UNL     1       1.042   8.751  20.229  0.00  0.00    +0.000 A 
ATOM      3  C   UNL     1       0.786  10.085  19.817  0.00  0.00    +0.000 A 
ATOM      4  C   UNL     1       1.326  10.587  18.648  0.00  0.00    +0.000 A 
ATOM      5  C   UNL     1       2.127   9.786  17.867  0.00  0.00    +0.000 A 
ATOM      6  C   UNL     1       2.396   8.456  18.254  0.00  0.00    +0.000 A 
ATOM      7  C   UNL     1       1.866   7.894  19.439  0.00  0.00    +0.000 A 
ATOM      8  C   UNL     1       2.243   6.471  19.713  0.00  0.00    +0.000 A 
ATOM      9  C   UNL     1       1.833   5.732  20.837  0.00  0.00    +0.000 A 
ATOM     10  C   UNL     1       2.204   4.400  21.058  0.00  0.00    +0.000 A 
ATOM     11  C   UNL     1       3.016   3.751  20.146  0.00  0.00    +0.000 A 
ATOM     12  C   UNL     1       3.460   4.417  19.010  0.00  0.00    +0.000 A 
ATOM     13  C   UNL     1       4.350   3.730  18.007  0.00  0.00    +0.000 C 
ATOM     14  C   UNL     1       3.064   5.766  18.803  0.00  0.00    +0.000 A 
ATOM     15  O   UNL     1       3.536   6.298  17.636  0.00  0.00    +0.000 OA
ATOM     16  C   UNL     1       3.302   7.667  17.351  0.00  0.00    +0.000 C 
ENDROOT
BRANCH   4  17
ATOM     17  O   UNL     1       1.093  11.863  18.238  0.00  0.00    +0.000 OA
ATOM     18  H   UNL     1       0.244  12.160  18.607  0.00  0.00    +0.000 HD
ENDBRANCH   4  17
BRANCH  11  19
ATOM     19  O   UNL     1       3.380   2.453  20.363  0.00  0.00    +0.000 OA
ATOM     20  H   UNL     1       2.620   1.876  20.186  0.00  0.00    +0.000 HD
ENDBRANCH  11  19
TORSDOF 2
ENDMDL
MODEL 6
REMARK VINA RESULT:      -6.5      1.680      2.905
REMARK  Name = 
REMARK  4 active torsions:
REMARK  status: ('A' for Active; 'I' for Inactive)
REMARK    1  A    between atoms: C_1  and  C_2
REMARK    2  A    between atoms: C_4  and  O_5
REMARK    3  A    between atoms: C_12  and  O_13
REMARK    4  A    between atoms: C_14  and  C_15
REMARK                            x       y       z     vdW  Elec       q    Type
REMARK                         _______ _______ _______ _____ _____    ______ ____
ROOT
ATOM      1  C   UNL     1       2.687   1.794  16.954  0.00  0.00    +0.000 C 
ATOM      2  C   UNL     1       2.727   2.763  18.107  0.00  0.00    +0.000 A 
ATOM      3  C   UNL     1       1.749   2.516  19.105  0.00  0.00    +0.000 A 
ATOM      4  C   UNL     1       1.660   3.313  20.231  0.00  0.00    +0.000 A 
ATOM      5  C   UNL     1       2.532   4.365  20.392  0.00  0.00    +0.000 A 
ATOM      6  C   UNL     1       3.512   4.632  19.413  0.00  0.00    +0.000 A 
ATOM      7  C   UNL     1       3.644   3.849  18.244  0.00  0.00    +0.000 A 
ATOM      8  C   UNL     1       4.732   4.258  17.300  0.00  0.00    +0.000 A 
ATOM      9  C   UNL     1       5.036   3.608  16.091  0.00  0.00    +0.000 A 
ATOM     10  C   UNL     1       6.061   4.024  15.232  0.00  0.00    +0.000 A 
ATOM     11  C   UNL     1       6.834   5.122  15.563  0.00  0.00    +0.000 A 
ATOM     12  C   UNL     1       6.592   5.815  16.743  0.00  0.00    +0.000 A 
ATOM     13  C   UNL     1       7.427   7.010  17.124  0.00  0.00    +0.000 C 
ATOM     14  C   UNL     1       5.542   5.380  17.594  0.00  0.00    +0.000 A 
ATOM     15  O   UNL     1       5.381   6.163  18.704  0.00  0.00    +0.000 OA
ATOM     16  C   UNL     1       4.436   5.786  19.690  0.00  0.00    +0.000 C 
ENDROOT
BRANCH   4  17
ATOM     17  O   UNL     1       0.731   3.089  21.199  0.00  0.00    +0.000 OA
ATOM     18  H   UNL     1       0.894   2.216  21.593  0.00  0.00    +0.000 HD
ENDBRANCH   4  17
BRANCH  11  19
ATOM     19  O   UNL     1       7.836   5.525  14.727  0.00  0.00    +0.000 OA
ATOM     20  H   UNL     1       8.692   5.326  15.139  0.00  0.00    +0.000 HD
ENDBRANCH  11  19
TORSDOF 2
ENDMDL
MODEL 7
REMARK VINA RESULT:      -6.5      1.893      5.899
REMARK  Name = 
REMARK  4 active torsions:
REMARK  status: ('A' for Active; 'I' for Inactive)
REMARK    1  A    between atoms: C_1  and  C_2
REMARK    2  A    between atoms: C_4  and  O_5
REMARK    3  A    between atoms: C_12  and  O_13
REMARK    4  A    between atoms: C_14  and  C_15
REMARK                            x       y       z     vdW  Elec       q    Type
REMARK                         _______ _______ _______ _____ _____    ______ ____
ROOT
ATOM      1  C   UNL     1       5.767   3.460  15.335  0.00  0.00    +0.000 C 
ATOM      2  C   UNL     1       5.799   4.614  16.303  0.00  0.00    +0.000 A 
ATOM      3  C   UNL     1       6.864   5.524  16.085  0.00  0.00    +0.000 A 
ATOM      4  C   UNL     1       7.027   6.639  16.885  0.00  0.00    +0.000 A 
ATOM      5  C   UNL     1       6.142   6.876  17.912  0.00  0.00    +0.000 A 
ATOM      6  C   UNL     1       5.074   5.985  18.151  0.00  0.00    +0.000 A 
ATOM      7  C   UNL     1       4.866   4.830  17.362  0.00  0.00    +0.000 A 
ATOM      8  C   UNL     1       3.690   3.983  17.740  0.00  0.00    +0.000 A 
ATOM      9  C   UNL     1       3.302   2.804  17.080  0.00  0.00    +0.000 A 
ATOM     10  C   UNL     1       2.195   2.036  17.465  0.00  0.00    +0.000 A 
ATOM     11  C   UNL     1       1.423   2.433  18.540  0.00  0.00    +0.000 A 
ATOM     12  C   UNL     1       1.745   3.589  19.242  0.00  0.00    +0.000 A 
ATOM     13  C   UNL     1       0.912   4.042  20.413  0.00  0.00    +0.000 C 
ATOM     14  C   UNL     1       2.876   4.347  18.838  0.00  0.00    +0.000 A 
ATOM     15  O   UNL     1       3.109   5.440  19.627  0.00  0.00    +0.000 OA
ATOM     16  C   UNL     1       4.145   6.341  19.278  0.00  0.00    +0.000 C 
ENDROOT
BRANCH   4  17
ATOM     17  O   UNL     1       8.041   7.524  16.689  0.00  0.00    +0.000 OA
ATOM     18  H   UNL     1       8.559   7.239  15.917  0.00  0.00    +0.000 HD
ENDBRANCH   4  17
BRANCH  11  19
ATOM     19  O   UNL     1       0.342   1.687  18.914  0.00  0.00    +0.000 OA
ATOM     20  H   UNL     1      -0.426   2.271  19.021  0.00  0.00    +0.000 HD
ENDBRANCH  11  19
TORSDOF 2
ENDMDL
MODEL 8
REMARK VINA RESULT:      -6.5      1.678      5.655
REMARK  Name = 
REMARK  4 active torsions:
REMARK  status: ('A' for Active; 'I' for Inactive)
REMARK    1  A    between atoms: C_1  and  C_2
REMARK    2  A    between atoms: C_4  and  O_5
REMARK    3  A    between atoms: C_12  and  O_13
REMARK    4  A    between atoms: C_14  and  C_15
REMARK                            x       y       z     vdW  Elec       q    Type
REMARK                         _______ _______ _______ _____ _____    ______ ____
ROOT
ATOM      1  C   UNL     1       6.700   5.535  19.389  0.00  0.00    +0.000 C 
ATOM      2  C   UNL     1       6.211   5.097  18.032  0.00  0.00    +0.000 A 
ATOM      3  C   UNL     1       7.103   5.396  16.971  0.00  0.00    +0.000 A 
ATOM      4  C   UNL     1       6.802   5.053  15.666  0.00  0.00    +0.000 A 
ATOM      5  C   UNL     1       5.619   4.409  15.387  0.00  0.00    +0.000 A 
ATOM      6  C   UNL     1       4.714   4.101  16.424  0.00  0.00    +0.000 A 
ATOM      7  C   UNL     1       4.974   4.432  17.774  0.00  0.00    +0.000 A 
ATOM      8  C   UNL     1       3.918   4.039  18.760  0.00  0.00    +0.000 A 
ATOM      9  C   UNL     1       3.985   4.265  20.146  0.00  0.00    +0.000 A 
ATOM     10  C   UNL     1       2.974   3.884  21.037  0.00  0.00    +0.000 A 
ATOM     11  C   UNL     1       1.841   3.249  20.562  0.00  0.00    +0.000 A 
ATOM     12  C   UNL     1       1.703   2.991  19.203  0.00  0.00    +0.000 A 
ATOM     13  C   UNL     1       0.480   2.295  18.667  0.00  0.00    +0.000 C 
ATOM     14  C   UNL     1       2.739   3.394  18.318  0.00  0.00    +0.000 A 
ATOM     15  O   UNL     1       2.471   3.117  17.006  0.00  0.00    +0.000 OA
ATOM     16  C   UNL     1       3.461   3.373  16.025  0.00  0.00    +0.000 C 
ENDROOT
BRANCH   4  17
ATOM     17  O   UNL     1       7.647   5.331  14.637  0.00  0.00    +0.000 OA
ATOM     18  H   UNL     1       7.458   6.226  14.310  0.00  0.00    +0.000 HD
ENDBRANCH   4  17
BRANCH  11  19
ATOM     19  O   UNL     1       0.856   2.875  21.431  0.00  0.00    +0.000 OA
ATOM     20  H   UNL     1       0.373   2.121  21.057  0.00  0.00    +0.000 HD
ENDBRANCH  11  19
TORSDOF 2
ENDMDL
MODEL 9
REMARK VINA RESULT:      -6.5      3.117      5.907
REMARK  Name = 
REMARK  4 active torsions:
REMARK  status: ('A' for Active; 'I' for Inactive)
REMARK    1  A    between atoms: C_1  and  C_2
REMARK    2  A    between atoms: C_4  and  O_5
REMARK    3  A    between atoms: C_12  and  O_13
REMARK    4  A    between atoms: C_14  and  C_15
REMARK                            x       y       z     vdW  Elec       q    Type
REMARK                         _______ _______ _______ _____ _____    ______ ____
ROOT
ATOM      1  C   UNL     1       2.231   4.576  21.192  0.00  0.00    +0.000 C 
ATOM      2  C   UNL     1       2.840   5.049  19.897  0.00  0.00    +0.000 A 
ATOM      3  C   UNL     1       3.647   4.079  19.249  0.00  0.00    +0.000 A 
ATOM      4  C   UNL     1       4.271   4.357  18.047  0.00  0.00    +0.000 A 
ATOM      5  C   UNL     1       4.108   5.592  17.464  0.00  0.00    +0.000 A 
ATOM      6  C   UNL     1       3.311   6.574  18.089  0.00  0.00    +0.000 A 
ATOM      7  C   UNL     1       2.654   6.341  19.319  0.00  0.00    +0.000 A 
ATOM      8  C   UNL     1       1.845   7.481  19.855  0.00  0.00    +0.000 A 
ATOM      9  C   UNL     1       1.108   7.452  21.052  0.00  0.00    +0.000 A 
ATOM     10  C   UNL     1       0.364   8.542  21.523  0.00  0.00    +0.000 A 
ATOM     11  C   UNL     1       0.329   9.717  20.796  0.00  0.00    +0.000 A 
ATOM     12  C   UNL     1       1.033   9.821  19.602  0.00  0.00    +0.000 A 
ATOM     13  C   UNL     1       1.003  11.090  18.792  0.00  0.00    +0.000 C 
ATOM     14  C   UNL     1       1.787   8.705  19.149  0.00  0.00    +0.000 A 
ATOM     15  O   UNL     1       2.461   8.942  17.983  0.00  0.00    +0.000 OA
ATOM     16  C   UNL     1       3.172   7.884  17.363  0.00  0.00    +0.000 C 
ENDROOT
BRANCH   4  17
ATOM     17  O   UNL     1       5.047   3.438  17.411  0.00  0.00    +0.000 OA
ATOM     18  H   UNL     1       4.505   2.973  16.752  0.00  0.00    +0.000 HD
ENDBRANCH   4  17
BRANCH  11  19
ATOM     19  O   UNL     1      -0.399  10.779  21.253  0.00  0.00    +0.000 OA
ATOM     20  H   UNL     1      -0.525  10.688  22.211  0.00  0.00    +0.000 HD
ENDBRANCH  11  19
TORSDOF 2
ENDMDL
