MODEL 1
REMARK VINA RESULT:      -7.9      0.000      0.000
REMARK  Name = 
REMARK  9 active torsions:
REMARK  status: ('A' for Active; 'I' for Inactive)
REMARK    1  A    between atoms: C_1  and  C_2
REMARK    2  A    between atoms: C_2  and  C_3
REMARK    3  A    between atoms: C_3  and  C_4
REMARK    4  A    between atoms: N_6  and  C_7
REMARK    5  A    between atoms: C_14  and  C_15
REMARK    6  A    between atoms: C_15  and  C_16
REMARK    7  A    between atoms: C_16  and  N_17
REMARK    8  A    between atoms: C_18  and  C_20
REMARK    9  A    between atoms: N_26  and  C_27
REMARK                            x       y       z     vdW  Elec       q    Type
REMARK                         _______ _______ _______ _____ _____    ______ ____
ROOT
ATOM      1  C   UNL     1       4.684   4.657  16.638  0.00  0.00    +0.000 A 
ATOM      2  C   UNL     1       4.517   3.623  17.565  0.00  0.00    +0.000 A 
ATOM      3  C   UNL     1       3.828   3.805  18.763  0.00  0.00    +0.000 A 
ATOM      4  C   UNL     1       3.312   5.076  18.998  0.00  0.00    +0.000 A 
ATOM      5  C   UNL     1       3.509   6.144  18.138  0.00  0.00    +0.000 A 
ATOM      6  C   UNL     1       4.228   5.951  16.946  0.00  0.00    +0.000 A 
ATOM      7  N   UNL     1       2.900   7.274  18.635  0.00  0.00    +0.000 NA
ATOM      8  C   UNL     1       2.293   6.908  19.749  0.00  0.00    +0.000 A 
ATOM      9  N   UNL     1       2.542   5.580  20.019  0.00  0.00    +0.000 N 
ATOM     10  C   UNL     1       2.088   4.774  21.127  0.00  0.00    +0.000 C 
ENDROOT
BRANCH   1  13
ATOM     11  C   UNL     1       6.512   4.986  14.991  0.00  0.00    +0.000 C 
ATOM     12  O   UNL     1       7.275   5.644  15.690  0.00  0.00    +0.000 OA
ATOM     13  N   UNL     1       5.299   4.437  15.385  0.00  0.00    +0.000 N 
ATOM     14  H   UNL     1       4.900   3.712  14.803  0.00  0.00    +0.000 HD
BRANCH  11  15
ATOM     15  C   UNL     1       6.886   4.680  13.556  0.00  0.00    +0.000 C 
BRANCH  15  17
ATOM     16  C   UNL     1       5.176   3.631  11.996  0.00  0.00    +0.000 C 
ATOM     17  C   UNL     1       6.261   3.389  13.037  0.00  0.00    +0.000 C 
ENDBRANCH  15  17
ENDBRANCH  11  15
ENDBRANCH   1  13
BRANCH   8  18
ATOM     18  C   UNL     1       1.452   7.800  20.610  0.00  0.00    +0.000 C 
BRANCH  18  19
ATOM     19  C   UNL     1       1.392   9.229  20.053  0.00  0.00    +0.000 C 
BRANCH  19  20
ATOM     20  N   UNL     1       0.276   9.458  19.146  0.00  0.00    +0.000 N 
ATOM     21  C   UNL     1      -0.526  10.574  19.241  0.00  0.00    +0.000 C 
ATOM     22  O   UNL     1      -0.315  11.498  20.019  0.00  0.00    +0.000 OA
ATOM     23  H   UNL     1       0.089   8.758  18.442  0.00  0.00    +0.000 HD
BRANCH  21  24
ATOM     24  C   UNL     1      -1.672  10.648  18.297  0.00  0.00    +0.000 A 
ATOM     25  C   UNL     1      -2.760  11.501  18.518  0.00  0.00    +0.000 A 
ATOM     26  C   UNL     1      -3.809  11.542  17.595  0.00  0.00    +0.000 A 
ATOM     27  C   UNL     1      -3.771  10.737  16.455  0.00  0.00    +0.000 A 
ATOM     28  C   UNL     1      -2.683   9.895  16.227  0.00  0.00    +0.000 A 
ATOM     29  C   UNL     1      -1.632   9.855  17.143  0.00  0.00    +0.000 A 
ENDBRANCH  21  24
ENDBRANCH  19  20
ENDBRANCH  18  19
ENDBRANCH   8  18
TORSDOF 7
ENDMDL
MODEL 2
REMARK VINA RESULT:      -7.8      3.852      5.653
REMARK  Name = 
REMARK  9 active torsions:
REMARK  status: ('A' for Active; 'I' for Inactive)
REMARK    1  A    between atoms: C_1  and  C_2
REMARK    2  A    between atoms: C_2  and  C_3
REMARK    3  A    between atoms: C_3  and  C_4
REMARK    4  A    between atoms: N_6  and  C_7
REMARK    5  A    between atoms: C_14  and  C_15
REMARK    6  A    between atoms: C_15  and  C_16
REMARK    7  A    between atoms: C_16  and  N_17
REMARK    8  A    between atoms: C_18  and  C_20
REMARK    9  A    between atoms: N_26  and  C_27
REMARK                            x       y       z     vdW  Elec       q    Type
REMARK                         _______ _______ _______ _____ _____    ______ ____
ROOT
ATOM      1  C   UNL     1       6.163   6.353  17.281  0.00  0.00    +0.000 A 
ATOM      2  C   UNL     1       5.466   5.745  16.232  0.00  0.00    +0.000 A 
ATOM      3  C   UNL     1       4.693   4.601  16.419  0.00  0.00    +0.000 A 
ATOM      4  C   UNL     1       4.651   4.082  17.710  0.00  0.00    +0.000 A 
ATOM      5  C   UNL     1       5.377   4.614  18.764  0.00  0.00    +0.000 A 
ATOM      6  C   UNL     1       6.171   5.754  18.553  0.00  0.00    +0.000 A 
ATOM      7  N   UNL     1       5.151   3.888  19.912  0.00  0.00    +0.000 NA
ATOM      8  C   UNL     1       4.265   2.960  19.595  0.00  0.00    +0.000 A 
ATOM      9  N   UNL     1       3.955   3.029  18.254  0.00  0.00    +0.000 N 
ATOM     10  C   UNL     1       3.049   2.211  17.486  0.00  0.00    +0.000 C 
ENDROOT
BRANCH   1  13
ATOM     11  C   UNL     1       7.905   8.007  17.907  0.00  0.00    +0.000 C 
ATOM     12  O   UNL     1       8.440   7.379  18.814  0.00  0.00    +0.000 OA
ATOM     13  N   UNL     1       6.864   7.567  17.101  0.00  0.00    +0.000 N 
ATOM     14  H   UNL     1       6.692   8.068  16.239  0.00  0.00    +0.000 HD
BRANCH  11  15
ATOM     15  C   UNL     1       8.403   9.395  17.561  0.00  0.00    +0.000 C 
BRANCH  15  17
ATOM     16  C   UNL     1       9.933  11.282  18.308  0.00  0.00    +0.000 C 
ATOM     17  C   UNL     1       9.069  10.102  18.736  0.00  0.00    +0.000 C 
ENDBRANCH  15  17
ENDBRANCH  11  15
ENDBRANCH   1  13
BRANCH   8  18
ATOM     18  C   UNL     1       3.676   1.966  20.548  0.00  0.00    +0.000 C 
BRANCH  18  19
ATOM     19  C   UNL     1       2.705   2.633  21.531  0.00  0.00    +0.000 C 
BRANCH  19  20
ATOM     20  N   UNL     1       2.542   4.064  21.314  0.00  0.00    +0.000 N 
ATOM     21  C   UNL     1       1.618   4.568  20.425  0.00  0.00    +0.000 C 
ATOM     22  O   UNL     1       0.805   3.874  19.825  0.00  0.00    +0.000 OA
ATOM     23  H   UNL     1       3.146   4.691  21.827  0.00  0.00    +0.000 HD
BRANCH  21  24
ATOM     24  C   UNL     1       1.606   6.044  20.249  0.00  0.00    +0.000 A 
ATOM     25  C   UNL     1       1.040   6.899  21.202  0.00  0.00    +0.000 A 
ATOM     26  C   UNL     1       1.063   8.281  20.995  0.00  0.00    +0.000 A 
ATOM     27  C   UNL     1       1.650   8.808  19.843  0.00  0.00    +0.000 A 
ATOM     28  C   UNL     1       2.224   7.958  18.898  0.00  0.00    +0.000 A 
ATOM     29  C   UNL     1       2.208   6.579  19.103  0.00  0.00    +0.000 A 
ENDBRANCH  21  24
ENDBRANCH  19  20
ENDBRANCH  18  19
ENDBRANCH   8  18
TORSDOF 7
ENDMDL
MODEL 3
REMARK VINA RESULT:      -7.8      0.809      1.249
REMARK  Name = 
REMARK  9 active torsions:
REMARK  status: ('A' for Active; 'I' for Inactive)
REMARK    1  A    between atoms: C_1  and  C_2
REMARK    2  A    between atoms: C_2  and  C_3
REMARK    3  A    between atoms: C_3  and  C_4
REMARK    4  A    between atoms: N_6  and  C_7
REMARK    5  A    between atoms: C_14  and  C_15
REMARK    6  A    between atoms: C_15  and  C_16
REMARK    7  A    between atoms: C_16  and  N_17
REMARK    8  A    between atoms: C_18  and  C_20
REMARK    9  A    between atoms: N_26  and  C_27
REMARK                            x       y       z     vdW  Elec       q    Type
REMARK                         _______ _______ _______ _____ _____    ______ ____
ROOT
ATOM      1  C   UNL     1       4.587   4.516  16.741  0.00  0.00    +0.000 A 
ATOM      2  C   UNL     1       4.152   3.366  17.408  0.00  0.00    +0.000 A 
ATOM      3  C   UNL     1       3.347   3.427  18.544  0.00  0.00    +0.000 A 
ATOM      4  C   UNL     1       2.997   4.697  18.993  0.00  0.00    +0.000 A 
ATOM      5  C   UNL     1       3.459   5.862  18.402  0.00  0.00    +0.000 A 
ATOM      6  C   UNL     1       4.290   5.784  17.271  0.00  0.00    +0.000 A 
ATOM      7  N   UNL     1       2.963   6.961  19.065  0.00  0.00    +0.000 NA
ATOM      8  C   UNL     1       2.169   6.495  20.013  0.00  0.00    +0.000 A 
ATOM      9  N   UNL     1       2.184   5.117  20.018  0.00  0.00    +0.000 N 
ATOM     10  C   UNL     1       1.478   4.202  20.881  0.00  0.00    +0.000 C 
ENDROOT
BRANCH   1  13
ATOM     11  C   UNL     1       6.660   4.777  15.401  0.00  0.00    +0.000 C 
ATOM     12  O   UNL     1       7.429   5.081  16.307  0.00  0.00    +0.000 OA
ATOM     13  N   UNL     1       5.320   4.441  15.535  0.00  0.00    +0.000 N 
ATOM     14  H   UNL     1       4.874   3.968  14.760  0.00  0.00    +0.000 HD
BRANCH  11  15
ATOM     15  C   UNL     1       7.168   4.714  13.976  0.00  0.00    +0.000 C 
BRANCH  15  17
ATOM     16  C   UNL     1       6.926   3.608  11.701  0.00  0.00    +0.000 C 
ATOM     17  C   UNL     1       6.302   3.845  13.070  0.00  0.00    +0.000 C 
ENDBRANCH  15  17
ENDBRANCH  11  15
ENDBRANCH   1  13
BRANCH   8  18
ATOM     18  C   UNL     1       1.364   7.334  20.957  0.00  0.00    +0.000 C 
BRANCH  18  19
ATOM     19  C   UNL     1       1.368   8.811  20.544  0.00  0.00    +0.000 C 
BRANCH  19  20
ATOM     20  N   UNL     1       0.123   9.251  19.929  0.00  0.00    +0.000 N 
ATOM     21  C   UNL     1       0.104  10.075  18.824  0.00  0.00    +0.000 C 
ATOM     22  O   UNL     1       1.112  10.422  18.220  0.00  0.00    +0.000 OA
ATOM     23  H   UNL     1      -0.744   8.946  20.348  0.00  0.00    +0.000 HD
BRANCH  21  24
ATOM     24  C   UNL     1      -1.234  10.503  18.341  0.00  0.00    +0.000 A 
ATOM     25  C   UNL     1      -1.801   9.984  17.171  0.00  0.00    +0.000 A 
ATOM     26  C   UNL     1      -3.068  10.412  16.764  0.00  0.00    +0.000 A 
ATOM     27  C   UNL     1      -3.768  11.352  17.523  0.00  0.00    +0.000 A 
ATOM     28  C   UNL     1      -3.211  11.861  18.695  0.00  0.00    +0.000 A 
ATOM     29  C   UNL     1      -1.949  11.433  19.107  0.00  0.00    +0.000 A 
ENDBRANCH  21  24
ENDBRANCH  19  20
ENDBRANCH  18  19
ENDBRANCH   8  18
TORSDOF 7
ENDMDL
MODEL 4
REMARK VINA RESULT:      -7.7      3.889      5.986
REMARK  Name = 
REMARK  9 active torsions:
REMARK  status: ('A' for Active; 'I' for Inactive)
REMARK    1  A    between atoms: C_1  and  C_2
REMARK    2  A    between atoms: C_2  and  C_3
REMARK    3  A    between atoms: C_3  and  C_4
REMARK    4  A    between atoms: N_6  and  C_7
REMARK    5  A    between atoms: C_14  and  C_15
REMARK    6  A    between atoms: C_15  and  C_16
REMARK    7  A    between atoms: C_16  and  N_17
REMARK    8  A    between atoms: C_18  and  C_20
REMARK    9  A    between atoms: N_26  and  C_27
REMARK                            x       y       z     vdW  Elec       q    Type
REMARK                         _______ _______ _______ _____ _____    ______ ____
ROOT
ATOM      1  C   UNL     1       7.725   6.847  18.371  0.00  0.00    +0.000 A 
ATOM      2  C   UNL     1       7.419   6.726  17.011  0.00  0.00    +0.000 A 
ATOM      3  C   UNL     1       6.529   5.765  16.535  0.00  0.00    +0.000 A 
ATOM      4  C   UNL     1       5.957   4.920  17.482  0.00  0.00    +0.000 A 
ATOM      5  C   UNL     1       6.282   4.963  18.828  0.00  0.00    +0.000 A 
ATOM      6  C   UNL     1       7.200   5.923  19.290  0.00  0.00    +0.000 A 
ATOM      7  N   UNL     1       5.576   4.005  19.519  0.00  0.00    +0.000 NA
ATOM      8  C   UNL     1       4.791   3.414  18.636  0.00  0.00    +0.000 A 
ATOM      9  N   UNL     1       5.013   3.927  17.376  0.00  0.00    +0.000 N 
ATOM     10  C   UNL     1       4.389   3.573  16.125  0.00  0.00    +0.000 C 
ENDROOT
BRANCH   1  13
ATOM     11  C   UNL     1       8.487   9.209  18.439  0.00  0.00    +0.000 C 
ATOM     12  O   UNL     1       7.651   9.695  17.685  0.00  0.00    +0.000 OA
ATOM     13  N   UNL     1       8.552   7.886  18.854  0.00  0.00    +0.000 N 
ATOM     14  H   UNL     1       9.121   7.676  19.664  0.00  0.00    +0.000 HD
BRANCH  11  15
ATOM     15  C   UNL     1       9.563  10.092  19.034  0.00  0.00    +0.000 C 
BRANCH  15  17
ATOM     16  C   UNL     1       9.627  12.592  18.578  0.00  0.00    +0.000 C 
ATOM     17  C   UNL     1      10.016  11.202  18.090  0.00  0.00    +0.000 C 
ENDBRANCH  15  17
ENDBRANCH  11  15
ENDBRANCH   1  13
BRANCH   8  18
ATOM     18  C   UNL     1       3.798   2.337  18.945  0.00  0.00    +0.000 C 
BRANCH  18  19
ATOM     19  C   UNL     1       2.424   2.920  19.302  0.00  0.00    +0.000 C 
BRANCH  19  20
ATOM     20  N   UNL     1       2.299   4.342  19.014  0.00  0.00    +0.000 N 
ATOM     21  C   UNL     1       2.279   5.292  20.012  0.00  0.00    +0.000 C 
ATOM     22  O   UNL     1       2.458   5.034  21.198  0.00  0.00    +0.000 OA
ATOM     23  H   UNL     1       2.208   4.622  18.048  0.00  0.00    +0.000 HD
BRANCH  21  24
ATOM     24  C   UNL     1       2.075   6.700  19.583  0.00  0.00    +0.000 A 
ATOM     25  C   UNL     1       1.472   7.649  20.417  0.00  0.00    +0.000 A 
ATOM     26  C   UNL     1       1.312   8.964  19.971  0.00  0.00    +0.000 A 
ATOM     27  C   UNL     1       1.755   9.331  18.699  0.00  0.00    +0.000 A 
ATOM     28  C   UNL     1       2.367   8.391  17.871  0.00  0.00    +0.000 A 
ATOM     29  C   UNL     1       2.532   7.078  18.314  0.00  0.00    +0.000 A 
ENDBRANCH  21  24
ENDBRANCH  19  20
ENDBRANCH  18  19
ENDBRANCH   8  18
TORSDOF 7
ENDMDL
MODEL 5
REMARK VINA RESULT:      -7.6      4.022      6.272
REMARK  Name = 
REMARK  9 active torsions:
REMARK  status: ('A' for Active; 'I' for Inactive)
REMARK    1  A    between atoms: C_1  and  C_2
REMARK    2  A    between atoms: C_2  and  C_3
REMARK    3  A    between atoms: C_3  and  C_4
REMARK    4  A    between atoms: N_6  and  C_7
REMARK    5  A    between atoms: C_14  and  C_15
REMARK    6  A    between atoms: C_15  and  C_16
REMARK    7  A    between atoms: C_16  and  N_17
REMARK    8  A    between atoms: C_18  and  C_20
REMARK    9  A    between atoms: N_26  and  C_27
REMARK                            x       y       z     vdW  Elec       q    Type
REMARK                         _______ _______ _______ _____ _____    ______ ____
ROOT
ATOM      1  C   UNL     1       7.953   7.144  18.427  0.00  0.00    +0.000 A 
ATOM      2  C   UNL     1       7.628   7.072  17.069  0.00  0.00    +0.000 A 
ATOM      3  C   UNL     1       6.750   6.114  16.566  0.00  0.00    +0.000 A 
ATOM      4  C   UNL     1       6.211   5.219  17.485  0.00  0.00    +0.000 A 
ATOM      5  C   UNL     1       6.555   5.213  18.827  0.00  0.00    +0.000 A 
ATOM      6  C   UNL     1       7.461   6.171  19.315  0.00  0.00    +0.000 A 
ATOM      7  N   UNL     1       5.879   4.212  19.488  0.00  0.00    +0.000 NA
ATOM      8  C   UNL     1       5.093   3.642  18.592  0.00  0.00    +0.000 A 
ATOM      9  N   UNL     1       5.285   4.211  17.352  0.00  0.00    +0.000 N 
ATOM     10  C   UNL     1       4.649   3.896  16.096  0.00  0.00    +0.000 C 
ENDROOT
BRANCH   1  13
ATOM     11  C   UNL     1       8.685   9.511  18.563  0.00  0.00    +0.000 C 
ATOM     12  O   UNL     1       7.845  10.009  17.822  0.00  0.00    +0.000 OA
ATOM     13  N   UNL     1       8.766   8.179  18.942  0.00  0.00    +0.000 N 
ATOM     14  H   UNL     1       9.336   7.952  19.746  0.00  0.00    +0.000 HD
BRANCH  11  15
ATOM     15  C   UNL     1       9.750  10.391  19.185  0.00  0.00    +0.000 C 
BRANCH  15  17
ATOM     16  C   UNL     1       9.825  12.285  20.878  0.00  0.00    +0.000 C 
ATOM     17  C   UNL     1       9.397  10.851  20.596  0.00  0.00    +0.000 C 
ENDBRANCH  15  17
ENDBRANCH  11  15
ENDBRANCH   1  13
BRANCH   8  18
ATOM     18  C   UNL     1       4.127   2.533  18.870  0.00  0.00    +0.000 C 
BRANCH  18  19
ATOM     19  C   UNL     1       2.787   3.068  19.393  0.00  0.00    +0.000 C 
BRANCH  19  20
ATOM     20  N   UNL     1       2.577   4.484  19.124  0.00  0.00    +0.000 N 
ATOM     21  C   UNL     1       2.276   5.382  20.125  0.00  0.00    +0.000 C 
ATOM     22  O   UNL     1       2.255   5.089  21.315  0.00  0.00    +0.000 OA
ATOM     23  H   UNL     1       2.641   4.797  18.165  0.00  0.00    +0.000 HD
BRANCH  21  24
ATOM     24  C   UNL     1       2.017   6.783  19.701  0.00  0.00    +0.000 A 
ATOM     25  C   UNL     1       2.284   7.225  18.400  0.00  0.00    +0.000 A 
ATOM     26  C   UNL     1       2.013   8.550  18.048  0.00  0.00    +0.000 A 
ATOM     27  C   UNL     1       1.475   9.430  18.989  0.00  0.00    +0.000 A 
ATOM     28  C   UNL     1       1.197   8.988  20.282  0.00  0.00    +0.000 A 
ATOM     29  C   UNL     1       1.462   7.665  20.636  0.00  0.00    +0.000 A 
ENDBRANCH  21  24
ENDBRANCH  19  20
ENDBRANCH  18  19
ENDBRANCH   8  18
TORSDOF 7
ENDMDL
MODEL 6
REMARK VINA RESULT:      -7.6      2.132      2.733
REMARK  Name = 
REMARK  9 active torsions:
REMARK  status: ('A' for Active; 'I' for Inactive)
REMARK    1  A    between atoms: C_1  and  C_2
REMARK    2  A    between atoms: C_2  and  C_3
REMARK    3  A    between atoms: C_3  and  C_4
REMARK    4  A    between atoms: N_6  and  C_7
REMARK    5  A    between atoms: C_14  and  C_15
REMARK    6  A    between atoms: C_15  and  C_16
REMARK    7  A    between atoms: C_16  and  N_17
REMARK    8  A    between atoms: C_18  and  C_20
REMARK    9  A    between atoms: N_26  and  C_27
REMARK                            x       y       z     vdW  Elec       q    Type
REMARK                         _______ _______ _______ _____ _____    ______ ____
ROOT
ATOM      1  C   UNL     1       4.612   4.464  16.853  0.00  0.00    +0.000 A 
ATOM      2  C   UNL     1       4.589   3.400  17.761  0.00  0.00    +0.000 A 
ATOM      3  C   UNL     1       3.917   3.480  18.980  0.00  0.00    +0.000 A 
ATOM      4  C   UNL     1       3.268   4.680  19.257  0.00  0.00    +0.000 A 
ATOM      5  C   UNL     1       3.320   5.780  18.416  0.00  0.00    +0.000 A 
ATOM      6  C   UNL     1       4.022   5.692  17.201  0.00  0.00    +0.000 A 
ATOM      7  N   UNL     1       2.601   6.824  18.953  0.00  0.00    +0.000 NA
ATOM      8  C   UNL     1       2.070   6.370  20.074  0.00  0.00    +0.000 A 
ATOM      9  N   UNL     1       2.475   5.074  20.308  0.00  0.00    +0.000 N 
ATOM     10  C   UNL     1       2.146   4.201  21.409  0.00  0.00    +0.000 C 
ENDROOT
BRANCH   1  13
ATOM     11  C   UNL     1       6.573   4.455  15.331  0.00  0.00    +0.000 C 
ATOM     12  O   UNL     1       7.459   4.573  16.170  0.00  0.00    +0.000 OA
ATOM     13  N   UNL     1       5.212   4.340  15.580  0.00  0.00    +0.000 N 
ATOM     14  H   UNL     1       4.625   3.993  14.832  0.00  0.00    +0.000 HD
BRANCH  11  15
ATOM     15  C   UNL     1       6.935   4.392  13.862  0.00  0.00    +0.000 C 
BRANCH  15  17
ATOM     16  C   UNL     1       6.485   2.930  11.832  0.00  0.00    +0.000 C 
ATOM     17  C   UNL     1       5.886   3.677  13.018  0.00  0.00    +0.000 C 
ENDBRANCH  15  17
ENDBRANCH  11  15
ENDBRANCH   1  13
BRANCH   8  18
ATOM     18  C   UNL     1       1.158   7.144  20.975  0.00  0.00    +0.000 C 
BRANCH  18  19
ATOM     19  C   UNL     1       1.716   8.542  21.277  0.00  0.00    +0.000 C 
BRANCH  19  20
ATOM     20  N   UNL     1       0.719   9.600  21.192  0.00  0.00    +0.000 N 
ATOM     21  C   UNL     1       0.107  10.121  22.312  0.00  0.00    +0.000 C 
ATOM     22  O   UNL     1       0.413   9.811  23.458  0.00  0.00    +0.000 OA
ATOM     23  H   UNL     1       0.468   9.941  20.275  0.00  0.00    +0.000 HD
BRANCH  21  24
ATOM     24  C   UNL     1      -0.942  11.147  22.077  0.00  0.00    +0.000 A 
ATOM     25  C   UNL     1      -1.286  11.572  20.789  0.00  0.00    +0.000 A 
ATOM     26  C   UNL     1      -2.288  12.533  20.620  0.00  0.00    +0.000 A 
ATOM     27  C   UNL     1      -2.945  13.064  21.732  0.00  0.00    +0.000 A 
ATOM     28  C   UNL     1      -2.611  12.633  23.014  0.00  0.00    +0.000 A 
ATOM     29  C   UNL     1      -1.616  11.671  23.187  0.00  0.00    +0.000 A 
ENDBRANCH  21  24
ENDBRANCH  19  20
ENDBRANCH  18  19
ENDBRANCH   8  18
TORSDOF 7
ENDMDL
MODEL 7
REMARK VINA RESULT:      -7.5      3.054      8.020
REMARK  Name = 
REMARK  9 active torsions:
REMARK  status: ('A' for Active; 'I' for Inactive)
REMARK    1  A    between atoms: C_1  and  C_2
REMARK    2  A    between atoms: C_2  and  C_3
REMARK    3  A    between atoms: C_3  and  C_4
REMARK    4  A    between atoms: N_6  and  C_7
REMARK    5  A    between atoms: C_14  and  C_15
REMARK    6  A    between atoms: C_15  and  C_16
REMARK    7  A    between atoms: C_16  and  N_17
REMARK    8  A    between atoms: C_18  and  C_20
REMARK    9  A    between atoms: N_26  and  C_27
REMARK                            x       y       z     vdW  Elec       q    Type
REMARK                         _______ _______ _______ _____ _____    ______ ____
ROOT
ATOM      1  C   UNL     1       1.749   8.207  19.347  0.00  0.00    +0.000 A 
ATOM      2  C   UNL     1       1.625   7.711  20.649  0.00  0.00    +0.000 A 
ATOM      3  C   UNL     1       1.671   6.346  20.930  0.00  0.00    +0.000 A 
ATOM      4  C   UNL     1       1.843   5.492  19.844  0.00  0.00    +0.000 A 
ATOM      5  C   UNL     1       1.905   5.936  18.534  0.00  0.00    +0.000 A 
ATOM      6  C   UNL     1       1.832   7.314  18.264  0.00  0.00    +0.000 A 
ATOM      7  N   UNL     1       2.062   4.871  17.677  0.00  0.00    +0.000 NA
ATOM      8  C   UNL     1       2.149   3.794  18.436  0.00  0.00    +0.000 A 
ATOM      9  N   UNL     1       1.994   4.128  19.764  0.00  0.00    +0.000 N 
ATOM     10  C   UNL     1       2.010   3.274  20.927  0.00  0.00    +0.000 C 
ENDROOT
BRANCH   1  13
ATOM     11  C   UNL     1       0.696  10.437  19.064  0.00  0.00    +0.000 C 
ATOM     12  O   UNL     1      -0.454  10.139  19.369  0.00  0.00    +0.000 OA
ATOM     13  N   UNL     1       1.799   9.595  19.084  0.00  0.00    +0.000 N 
ATOM     14  H   UNL     1       2.716  10.021  19.062  0.00  0.00    +0.000 HD
BRANCH  11  15
ATOM     15  C   UNL     1       1.016  11.856  18.643  0.00  0.00    +0.000 C 
BRANCH  15  17
ATOM     16  C   UNL     1       2.917  13.480  18.186  0.00  0.00    +0.000 C 
ATOM     17  C   UNL     1       2.453  12.028  18.165  0.00  0.00    +0.000 C 
ENDBRANCH  15  17
ENDBRANCH  11  15
ENDBRANCH   1  13
BRANCH   8  18
ATOM     18  C   UNL     1       2.381   2.400  17.939  0.00  0.00    +0.000 C 
BRANCH  18  19
ATOM     19  C   UNL     1       3.877   2.098  17.782  0.00  0.00    +0.000 C 
BRANCH  19  20
ATOM     20  N   UNL     1       4.698   3.286  17.591  0.00  0.00    +0.000 N 
ATOM     21  C   UNL     1       5.375   3.883  18.632  0.00  0.00    +0.000 C 
ATOM     22  O   UNL     1       5.422   3.418  19.766  0.00  0.00    +0.000 OA
ATOM     23  H   UNL     1       4.746   3.682  16.662  0.00  0.00    +0.000 HD
BRANCH  21  24
ATOM     24  C   UNL     1       6.118   5.129  18.311  0.00  0.00    +0.000 A 
ATOM     25  C   UNL     1       7.327   5.454  18.938  0.00  0.00    +0.000 A 
ATOM     26  C   UNL     1       7.993   6.634  18.593  0.00  0.00    +0.000 A 
ATOM     27  C   UNL     1       7.455   7.485  17.625  0.00  0.00    +0.000 A 
ATOM     28  C   UNL     1       6.258   7.157  16.991  0.00  0.00    +0.000 A 
ATOM     29  C   UNL     1       5.593   5.979  17.328  0.00  0.00    +0.000 A 
ENDBRANCH  21  24
ENDBRANCH  19  20
ENDBRANCH  18  19
ENDBRANCH   8  18
TORSDOF 7
ENDMDL
MODEL 8
REMARK VINA RESULT:      -7.4      2.007      2.519
REMARK  Name = 
REMARK  9 active torsions:
REMARK  status: ('A' for Active; 'I' for Inactive)
REMARK    1  A    between atoms: C_1  and  C_2
REMARK    2  A    between atoms: C_2  and  C_3
REMARK    3  A    between atoms: C_3  and  C_4
REMARK    4  A    between atoms: N_6  and  C_7
REMARK    5  A    between atoms: C_14  and  C_15
REMARK    6  A    between atoms: C_15  and  C_16
REMARK    7  A    between atoms: C_16  and  N_17
REMARK    8  A    between atoms: C_18  and  C_20
REMARK    9  A    between atoms: N_26  and  C_27
REMARK                            x       y       z     vdW  Elec       q    Type
REMARK                         _______ _______ _______ _____ _____    ______ ____
ROOT
ATOM      1  C   UNL     1       4.680   4.318  16.658  0.00  0.00    +0.000 A 
ATOM      2  C   UNL     1       4.473   3.287  17.581  0.00  0.00    +0.000 A 
ATOM      3  C   UNL     1       3.793   3.490  18.780  0.00  0.00    +0.000 A 
ATOM      4  C   UNL     1       3.329   4.779  19.023  0.00  0.00    +0.000 A 
ATOM      5  C   UNL     1       3.568   5.843  18.168  0.00  0.00    +0.000 A 
ATOM      6  C   UNL     1       4.276   5.627  16.973  0.00  0.00    +0.000 A 
ATOM      7  N   UNL     1       3.005   6.994  18.671  0.00  0.00    +0.000 NA
ATOM      8  C   UNL     1       2.385   6.647  19.785  0.00  0.00    +0.000 A 
ATOM      9  N   UNL     1       2.581   5.309  20.048  0.00  0.00    +0.000 N 
ATOM     10  C   UNL     1       2.098   4.516  21.152  0.00  0.00    +0.000 C 
ENDROOT
BRANCH   1  13
ATOM     11  C   UNL     1       6.288   4.860  14.847  0.00  0.00    +0.000 C 
ATOM     12  O   UNL     1       6.871   5.792  15.389  0.00  0.00    +0.000 OA
ATOM     13  N   UNL     1       5.284   4.080  15.403  0.00  0.00    +0.000 N 
ATOM     14  H   UNL     1       5.073   3.196  14.957  0.00  0.00    +0.000 HD
BRANCH  11  15
ATOM     15  C   UNL     1       6.676   4.449  13.442  0.00  0.00    +0.000 C 
BRANCH  15  17
ATOM     16  C   UNL     1       4.994   3.479  11.802  0.00  0.00    +0.000 C 
ATOM     17  C   UNL     1       5.944   3.201  12.959  0.00  0.00    +0.000 C 
ENDBRANCH  15  17
ENDBRANCH  11  15
ENDBRANCH   1  13
BRANCH   8  18
ATOM     18  C   UNL     1       1.582   7.568  20.651  0.00  0.00    +0.000 C 
BRANCH  18  19
ATOM     19  C   UNL     1       1.372   8.933  19.982  0.00  0.00    +0.000 C 
BRANCH  19  20
ATOM     20  N   UNL     1       0.201   9.649  20.467  0.00  0.00    +0.000 N 
ATOM     21  C   UNL     1       0.298  10.869  21.098  0.00  0.00    +0.000 C 
ATOM     22  O   UNL     1       1.349  11.489  21.218  0.00  0.00    +0.000 OA
ATOM     23  H   UNL     1      -0.703   9.214  20.342  0.00  0.00    +0.000 HD
BRANCH  21  24
ATOM     24  C   UNL     1      -0.970  11.456  21.605  0.00  0.00    +0.000 A 
ATOM     25  C   UNL     1      -1.355  11.341  22.946  0.00  0.00    +0.000 A 
ATOM     26  C   UNL     1      -2.552  11.920  23.377  0.00  0.00    +0.000 A 
ATOM     27  C   UNL     1      -3.360  12.613  22.473  0.00  0.00    +0.000 A 
ATOM     28  C   UNL     1      -2.973  12.739  21.140  0.00  0.00    +0.000 A 
ATOM     29  C   UNL     1      -1.776  12.167  20.708  0.00  0.00    +0.000 A 
ENDBRANCH  21  24
ENDBRANCH  19  20
ENDBRANCH  18  19
ENDBRANCH   8  18
TORSDOF 7
ENDMDL
MODEL 9
REMARK VINA RESULT:      -7.4      3.919      6.162
REMARK  Name = 
REMARK  9 active torsions:
REMARK  status: ('A' for Active; 'I' for Inactive)
REMARK    1  A    between atoms: C_1  and  C_2
REMARK    2  A    between atoms: C_2  and  C_3
REMARK    3  A    between atoms: C_3  and  C_4
REMARK    4  A    between atoms: N_6  and  C_7
REMARK    5  A    between atoms: C_14  and  C_15
REMARK    6  A    between atoms: C_15  and  C_16
REMARK    7  A    between atoms: C_16  and  N_17
REMARK    8  A    between atoms: C_18  and  C_20
REMARK    9  A    between atoms: N_26  and  C_27
REMARK                            x       y       z     vdW  Elec       q    Type
REMARK                         _______ _______ _______ _____ _____    ______ ____
ROOT
ATOM      1  C   UNL     1       7.831   7.021  18.356  0.00  0.00    +0.000 A 
ATOM      2  C   UNL     1       7.399   6.948  17.027  0.00  0.00    +0.000 A 
ATOM      3  C   UNL     1       6.486   5.987  16.596  0.00  0.00    +0.000 A 
ATOM      4  C   UNL     1       6.024   5.092  17.556  0.00  0.00    +0.000 A 
ATOM      5  C   UNL     1       6.475   5.088  18.867  0.00  0.00    +0.000 A 
ATOM      6  C   UNL     1       7.414   6.048  19.280  0.00  0.00    +0.000 A 
ATOM      7  N   UNL     1       5.856   4.086  19.579  0.00  0.00    +0.000 NA
ATOM      8  C   UNL     1       5.002   3.513  18.750  0.00  0.00    +0.000 A 
ATOM      9  N   UNL     1       5.093   4.082  17.498  0.00  0.00    +0.000 N 
ATOM     10  C   UNL     1       4.360   3.764  16.297  0.00  0.00    +0.000 C 
ENDROOT
BRANCH   1  13
ATOM     11  C   UNL     1       8.575   9.389  18.421  0.00  0.00    +0.000 C 
ATOM     12  O   UNL     1       7.684   9.882  17.737  0.00  0.00    +0.000 OA
ATOM     13  N   UNL     1       8.680   8.059  18.803  0.00  0.00    +0.000 N 
ATOM     14  H   UNL     1       9.306   7.837  19.567  0.00  0.00    +0.000 HD
BRANCH  11  15
ATOM     15  C   UNL     1       9.682  10.271  18.959  0.00  0.00    +0.000 C 
BRANCH  15  17
ATOM     16  C   UNL     1      10.244  12.340  17.594  0.00  0.00    +0.000 C 
ATOM     17  C   UNL     1       9.423  11.757  18.737  0.00  0.00    +0.000 C 
ENDBRANCH  15  17
ENDBRANCH  11  15
ENDBRANCH   1  13
BRANCH   8  18
ATOM     18  C   UNL     1       4.064   2.401  19.105  0.00  0.00    +0.000 C 
BRANCH  18  19
ATOM     19  C   UNL     1       3.047   2.838  20.167  0.00  0.00    +0.000 C 
BRANCH  19  20
ATOM     20  N   UNL     1       2.796   4.272  20.184  0.00  0.00    +0.000 N 
ATOM     21  C   UNL     1       2.068   4.899  19.196  0.00  0.00    +0.000 C 
ATOM     22  O   UNL     1       1.499   4.301  18.289  0.00  0.00    +0.000 OA
ATOM     23  H   UNL     1       3.190   4.812  20.941  0.00  0.00    +0.000 HD
BRANCH  21  24
ATOM     24  C   UNL     1       1.948   6.377  19.298  0.00  0.00    +0.000 A 
ATOM     25  C   UNL     1       2.208   7.218  18.209  0.00  0.00    +0.000 A 
ATOM     26  C   UNL     1       2.071   8.602  18.353  0.00  0.00    +0.000 A 
ATOM     27  C   UNL     1       1.673   9.143  19.577  0.00  0.00    +0.000 A 
ATOM     28  C   UNL     1       1.401   8.307  20.658  0.00  0.00    +0.000 A 
ATOM     29  C   UNL     1       1.533   6.925  20.518  0.00  0.00    +0.000 A 
ENDBRANCH  21  24
ENDBRANCH  19  20
ENDBRANCH  18  19
ENDBRANCH   8  18
TORSDOF 7
ENDMDL
