MODEL 1
REMARK VINA RESULT:      -8.2      0.000      0.000
REMARK  Name = 
REMARK  4 active torsions:
REMARK  status: ('A' for Active; 'I' for Inactive)
REMARK    1  A    between atoms: S_2  and  N_4
REMARK    2  A    between atoms: S_2  and  C_19
REMARK    3  A    between atoms: N_4  and  C_5
REMARK    4  A    between atoms: C_9  and  C_10
REMARK                            x       y       z     vdW  Elec       q    Type
REMARK                         _______ _______ _______ _____ _____    ______ ____
ROOT
ATOM      1  N   UNL     1       3.259   5.976  20.035  0.00  0.00    +0.000 N 
ATOM      2  H   UNL     1       2.843   6.491  20.821  0.00  0.00    +0.000 HD
ENDROOT
BRANCH   1   3
ATOM      3  C   UNL     1       2.911   4.580  20.076  0.00  0.00    +0.000 A 
ATOM      4  S   UNL     1       1.814   3.981  21.239  0.00  0.00    +0.000 S 
ATOM      5  C   UNL     1       1.826   2.420  20.538  0.00  0.00    +0.000 A 
ATOM      6  C   UNL     1       2.659   2.354  19.447  0.00  0.00    +0.000 A 
ATOM      7  C   UNL     1       3.321   3.599  19.191  0.00  0.00    +0.000 A 
BRANCH   7   8
ATOM      8  C   UNL     1       4.390   3.769  18.147  0.00  0.00    +0.000 A 
ATOM      9  N   UNL     1       4.180   3.470  16.885  0.00  0.00    +0.000 NA
ATOM     10  C   UNL     1       5.219   3.970  16.112  0.00  0.00    +0.000 A 
ATOM     11  C   UNL     1       5.268   3.989  14.706  0.00  0.00    +0.000 A 
ATOM     12  C   UNL     1       6.381   4.537  14.058  0.00  0.00    +0.000 A 
ATOM     13  C   UNL     1       7.450   5.044  14.792  0.00  0.00    +0.000 A 
ATOM     14  C   UNL     1       7.425   5.042  16.188  0.00  0.00    +0.000 A 
ATOM     15  C   UNL     1       6.288   4.517  16.824  0.00  0.00    +0.000 A 
ATOM     16  S   UNL     1       5.930   4.450  18.499  0.00  0.00    +0.000 S 
ENDBRANCH   7   8
ENDBRANCH   1   3
BRANCH   1  18
ATOM     17  O   UNL     1       3.781   7.285  17.850  0.00  0.00    +0.000 OA
ATOM     18  S   UNL     1       2.675   6.798  18.651  0.00  0.00    +0.000 S 
ATOM     19  O   UNL     1       1.652   5.951  18.076  0.00  0.00    +0.000 OA
BRANCH  18  20
ATOM     20  C   UNL     1       1.821   8.212  19.327  0.00  0.00    +0.000 A 
ATOM     21  C   UNL     1       1.438   9.268  18.498  0.00  0.00    +0.000 A 
ATOM     22  C   UNL     1       0.680  10.331  19.016  0.00  0.00    +0.000 A 
ATOM     23  C   UNL     1       0.288  10.320  20.374  0.00  0.00    +0.000 A 
ATOM     24  N   UNL     1      -0.478  11.286  21.005  0.00  0.00    +0.000 NA
ATOM     25  C   UNL     1      -0.666  10.941  22.260  0.00  0.00    +0.000 A 
ATOM     26  S   UNL     1       0.057   9.474  22.765  0.00  0.00    +0.000 S 
ATOM     27  C   UNL     1       0.680   9.246  21.174  0.00  0.00    +0.000 A 
ATOM     28  C   UNL     1       1.453   8.180  20.678  0.00  0.00    +0.000 A 
ENDBRANCH  18  20
ENDBRANCH   1  18
TORSDOF 4
ENDMDL
MODEL 2
REMARK VINA RESULT:      -7.8      0.997      1.381
REMARK  Name = 
REMARK  4 active torsions:
REMARK  status: ('A' for Active; 'I' for Inactive)
REMARK    1  A    between atoms: S_2  and  N_4
REMARK    2  A    between atoms: S_2  and  C_19
REMARK    3  A    between atoms: N_4  and  C_5
REMARK    4  A    between atoms: C_9  and  C_10
REMARK                            x       y       z     vdW  Elec       q    Type
REMARK                         _______ _______ _______ _____ _____    ______ ____
ROOT
ATOM      1  N   UNL     1       3.335   5.941  20.020  0.00  0.00    +0.000 N 
ATOM      2  H   UNL     1       2.996   6.428  20.858  0.00  0.00    +0.000 HD
ENDROOT
BRANCH   1   3
ATOM      3  C   UNL     1       2.975   4.548  20.037  0.00  0.00    +0.000 A 
ATOM      4  S   UNL     1       1.878   3.937  21.196  0.00  0.00    +0.000 S 
ATOM      5  C   UNL     1       1.871   2.390  20.465  0.00  0.00    +0.000 A 
ATOM      6  C   UNL     1       2.697   2.336  19.368  0.00  0.00    +0.000 A 
ATOM      7  C   UNL     1       3.370   3.579  19.132  0.00  0.00    +0.000 A 
BRANCH   7   8
ATOM      8  C   UNL     1       4.435   3.759  18.085  0.00  0.00    +0.000 A 
ATOM      9  N   UNL     1       4.250   3.388  16.838  0.00  0.00    +0.000 NA
ATOM     10  C   UNL     1       5.265   3.907  16.046  0.00  0.00    +0.000 A 
ATOM     11  C   UNL     1       5.321   3.862  14.640  0.00  0.00    +0.000 A 
ATOM     12  C   UNL     1       6.406   4.439  13.971  0.00  0.00    +0.000 A 
ATOM     13  C   UNL     1       7.440   5.040  14.683  0.00  0.00    +0.000 A 
ATOM     14  C   UNL     1       7.406   5.104  16.078  0.00  0.00    +0.000 A 
ATOM     15  C   UNL     1       6.296   4.548  16.734  0.00  0.00    +0.000 A 
ATOM     16  S   UNL     1       5.932   4.541  18.409  0.00  0.00    +0.000 S 
ENDBRANCH   7   8
ENDBRANCH   1   3
BRANCH   1  18
ATOM     17  O   UNL     1       3.686   7.438  17.924  0.00  0.00    +0.000 OA
ATOM     18  S   UNL     1       2.646   6.822  18.726  0.00  0.00    +0.000 S 
ATOM     19  O   UNL     1       1.655   5.955  18.125  0.00  0.00    +0.000 OA
BRANCH  18  20
ATOM     20  C   UNL     1       1.734   8.124  19.537  0.00  0.00    +0.000 A 
ATOM     21  C   UNL     1       1.423   8.029  20.894  0.00  0.00    +0.000 A 
ATOM     22  C   UNL     1       0.792   9.099  21.550  0.00  0.00    +0.000 A 
ATOM     23  C   UNL     1       0.493  10.283  20.837  0.00  0.00    +0.000 A 
ATOM     24  N   UNL     1      -0.100  11.418  21.363  0.00  0.00    +0.000 NA
ATOM     25  C   UNL     1      -0.207  12.330  20.422  0.00  0.00    +0.000 A 
ATOM     26  S   UNL     1       0.371  11.896  18.870  0.00  0.00    +0.000 S 
ATOM     27  C   UNL     1       0.825  10.350  19.483  0.00  0.00    +0.000 A 
ATOM     28  C   UNL     1       1.441   9.283  18.806  0.00  0.00    +0.000 A 
ENDBRANCH  18  20
ENDBRANCH   1  18
TORSDOF 4
ENDMDL
MODEL 3
REMARK VINA RESULT:      -7.5      2.290      7.324
REMARK  Name = 
REMARK  4 active torsions:
REMARK  status: ('A' for Active; 'I' for Inactive)
REMARK    1  A    between atoms: S_2  and  N_4
REMARK    2  A    between atoms: S_2  and  C_19
REMARK    3  A    between atoms: N_4  and  C_5
REMARK    4  A    between atoms: C_9  and  C_10
REMARK                            x       y       z     vdW  Elec       q    Type
REMARK                         _______ _______ _______ _____ _____    ______ ____
ROOT
ATOM      1  N   UNL     1       4.157   3.992  18.945  0.00  0.00    +0.000 N 
ATOM      2  H   UNL     1       4.196   4.997  18.740  0.00  0.00    +0.000 HD
ENDROOT
BRANCH   1   3
ATOM      3  C   UNL     1       3.153   3.693  19.932  0.00  0.00    +0.000 A 
ATOM      4  S   UNL     1       2.912   2.095  20.486  0.00  0.00    +0.000 S 
ATOM      5  C   UNL     1       1.773   2.606  21.656  0.00  0.00    +0.000 A 
ATOM      6  C   UNL     1       1.572   3.966  21.618  0.00  0.00    +0.000 A 
ATOM      7  C   UNL     1       2.346   4.602  20.594  0.00  0.00    +0.000 A 
BRANCH   7   8
ATOM      8  C   UNL     1       2.214   6.058  20.239  0.00  0.00    +0.000 A 
ATOM      9  N   UNL     1       2.713   6.548  19.126  0.00  0.00    +0.000 NA
ATOM     10  C   UNL     1       2.221   7.830  18.925  0.00  0.00    +0.000 A 
ATOM     11  C   UNL     1       2.399   8.611  17.768  0.00  0.00    +0.000 A 
ATOM     12  C   UNL     1       1.834   9.889  17.701  0.00  0.00    +0.000 A 
ATOM     13  C   UNL     1       1.115  10.405  18.776  0.00  0.00    +0.000 A 
ATOM     14  C   UNL     1       0.919   9.649  19.934  0.00  0.00    +0.000 A 
ATOM     15  C   UNL     1       1.465   8.355  19.975  0.00  0.00    +0.000 A 
ATOM     16  S   UNL     1       1.329   7.171  21.206  0.00  0.00    +0.000 S 
ENDBRANCH   7   8
ENDBRANCH   1   3
BRANCH   1  18
ATOM     17  O   UNL     1       4.176   1.856  17.463  0.00  0.00    +0.000 OA
ATOM     18  S   UNL     1       3.867   3.273  17.419  0.00  0.00    +0.000 S 
ATOM     19  O   UNL     1       2.567   3.740  16.990  0.00  0.00    +0.000 OA
BRANCH  18  20
ATOM     20  C   UNL     1       5.054   4.062  16.346  0.00  0.00    +0.000 A 
ATOM     21  C   UNL     1       5.956   4.997  16.857  0.00  0.00    +0.000 A 
ATOM     22  C   UNL     1       6.952   5.541  16.028  0.00  0.00    +0.000 A 
ATOM     23  C   UNL     1       7.052   5.123  14.681  0.00  0.00    +0.000 A 
ATOM     24  N   UNL     1       7.997   5.557  13.767  0.00  0.00    +0.000 NA
ATOM     25  C   UNL     1       7.805   4.944  12.619  0.00  0.00    +0.000 A 
ATOM     26  S   UNL     1       6.499   3.840  12.552  0.00  0.00    +0.000 S 
ATOM     27  C   UNL     1       6.141   4.181  14.204  0.00  0.00    +0.000 A 
ATOM     28  C   UNL     1       5.127   3.637  15.013  0.00  0.00    +0.000 A 
ENDBRANCH  18  20
ENDBRANCH   1  18
TORSDOF 4
ENDMDL
MODEL 4
REMARK VINA RESULT:      -7.5      2.217      7.443
REMARK  Name = 
REMARK  4 active torsions:
REMARK  status: ('A' for Active; 'I' for Inactive)
REMARK    1  A    between atoms: S_2  and  N_4
REMARK    2  A    between atoms: S_2  and  C_19
REMARK    3  A    between atoms: N_4  and  C_5
REMARK    4  A    between atoms: C_9  and  C_10
REMARK                            x       y       z     vdW  Elec       q    Type
REMARK                         _______ _______ _______ _____ _____    ______ ____
ROOT
ATOM      1  N   UNL     1       3.362   4.359  17.988  0.00  0.00    +0.000 N 
ATOM      2  H   UNL     1       3.305   3.675  17.223  0.00  0.00    +0.000 HD
ENDROOT
BRANCH   1   3
ATOM      3  C   UNL     1       2.524   3.982  19.095  0.00  0.00    +0.000 A 
ATOM      4  S   UNL     1       2.214   2.339  19.444  0.00  0.00    +0.000 S 
ATOM      5  C   UNL     1       1.363   2.738  20.874  0.00  0.00    +0.000 A 
ATOM      6  C   UNL     1       1.307   4.097  21.075  0.00  0.00    +0.000 A 
ATOM      7  C   UNL     1       1.951   4.830  20.026  0.00  0.00    +0.000 A 
BRANCH   7   8
ATOM      8  C   UNL     1       1.916   6.330  19.921  0.00  0.00    +0.000 A 
ATOM      9  N   UNL     1       2.358   6.961  18.856  0.00  0.00    +0.000 NA
ATOM     10  C   UNL     1       1.964   8.291  18.910  0.00  0.00    +0.000 A 
ATOM     11  C   UNL     1       2.109   9.238  17.879  0.00  0.00    +0.000 A 
ATOM     12  C   UNL     1       1.654  10.547  18.071  0.00  0.00    +0.000 A 
ATOM     13  C   UNL     1       1.077  10.927  19.280  0.00  0.00    +0.000 A 
ATOM     14  C   UNL     1       0.915  10.006  20.316  0.00  0.00    +0.000 A 
ATOM     15  C   UNL     1       1.349   8.688  20.098  0.00  0.00    +0.000 A 
ATOM     16  S   UNL     1       1.216   7.329  21.134  0.00  0.00    +0.000 S 
ENDBRANCH   7   8
ENDBRANCH   1   3
BRANCH   1  18
ATOM     17  O   UNL     1       5.310   5.522  19.258  0.00  0.00    +0.000 OA
ATOM     18  S   UNL     1       5.030   4.412  18.367  0.00  0.00    +0.000 S 
ATOM     19  O   UNL     1       5.413   3.061  18.714  0.00  0.00    +0.000 OA
BRANCH  18  20
ATOM     20  C   UNL     1       5.810   4.757  16.798  0.00  0.00    +0.000 A 
ATOM     21  C   UNL     1       6.889   5.640  16.725  0.00  0.00    +0.000 A 
ATOM     22  C   UNL     1       7.561   5.832  15.506  0.00  0.00    +0.000 A 
ATOM     23  C   UNL     1       7.156   5.112  14.359  0.00  0.00    +0.000 A 
ATOM     24  N   UNL     1       7.744   5.185  13.107  0.00  0.00    +0.000 NA
ATOM     25  C   UNL     1       7.125   4.365  12.287  0.00  0.00    +0.000 A 
ATOM     26  S   UNL     1       5.814   3.478  12.939  0.00  0.00    +0.000 S 
ATOM     27  C   UNL     1       6.081   4.230  14.468  0.00  0.00    +0.000 A 
ATOM     28  C   UNL     1       5.385   4.038  15.675  0.00  0.00    +0.000 A 
ENDBRANCH  18  20
ENDBRANCH   1  18
TORSDOF 4
ENDMDL
MODEL 5
REMARK VINA RESULT:      -7.5      2.445      6.259
REMARK  Name = 
REMARK  4 active torsions:
REMARK  status: ('A' for Active; 'I' for Inactive)
REMARK    1  A    between atoms: S_2  and  N_4
REMARK    2  A    between atoms: S_2  and  C_19
REMARK    3  A    between atoms: N_4  and  C_5
REMARK    4  A    between atoms: C_9  and  C_10
REMARK                            x       y       z     vdW  Elec       q    Type
REMARK                         _______ _______ _______ _____ _____    ______ ____
ROOT
ATOM      1  N   UNL     1       1.881   4.003  18.056  0.00  0.00    +0.000 N 
ATOM      2  H   UNL     1       1.038   3.590  17.638  0.00  0.00    +0.000 HD
ENDROOT
BRANCH   1   3
ATOM      3  C   UNL     1       1.901   3.828  19.484  0.00  0.00    +0.000 A 
ATOM      4  S   UNL     1       1.826   2.270  20.180  0.00  0.00    +0.000 S 
ATOM      5  C   UNL     1       2.062   2.894  21.756  0.00  0.00    +0.000 A 
ATOM      6  C   UNL     1       2.183   4.263  21.753  0.00  0.00    +0.000 A 
ATOM      7  C   UNL     1       2.056   4.818  20.438  0.00  0.00    +0.000 A 
BRANCH   7   8
ATOM      8  C   UNL     1       2.008   6.296  20.163  0.00  0.00    +0.000 A 
ATOM      9  N   UNL     1       2.520   6.815  19.070  0.00  0.00    +0.000 NA
ATOM     10  C   UNL     1       2.105   8.133  18.945  0.00  0.00    +0.000 A 
ATOM     11  C   UNL     1       2.314   8.964  17.828  0.00  0.00    +0.000 A 
ATOM     12  C   UNL     1       1.827  10.275  17.839  0.00  0.00    +0.000 A 
ATOM     13  C   UNL     1       1.156  10.774  18.952  0.00  0.00    +0.000 A 
ATOM     14  C   UNL     1       0.930   9.970  20.071  0.00  0.00    +0.000 A 
ATOM     15  C   UNL     1       1.397   8.646  20.034  0.00  0.00    +0.000 A 
ATOM     16  S   UNL     1       1.206   7.407  21.203  0.00  0.00    +0.000 S 
ENDBRANCH   7   8
ENDBRANCH   1   3
BRANCH   1  18
ATOM     17  O   UNL     1       3.679   2.126  18.041  0.00  0.00    +0.000 OA
ATOM     18  S   UNL     1       3.168   3.223  17.242  0.00  0.00    +0.000 S 
ATOM     19  O   UNL     1       2.721   3.012  15.882  0.00  0.00    +0.000 OA
BRANCH  18  20
ATOM     20  C   UNL     1       4.436   4.477  17.154  0.00  0.00    +0.000 A 
ATOM     21  C   UNL     1       4.352   5.501  16.209  0.00  0.00    +0.000 A 
ATOM     22  C   UNL     1       5.299   6.539  16.209  0.00  0.00    +0.000 A 
ATOM     23  C   UNL     1       6.325   6.556  17.182  0.00  0.00    +0.000 A 
ATOM     24  N   UNL     1       7.302   7.528  17.313  0.00  0.00    +0.000 NA
ATOM     25  C   UNL     1       8.074   7.234  18.336  0.00  0.00    +0.000 A 
ATOM     26  S   UNL     1       7.699   5.798  19.188  0.00  0.00    +0.000 S 
ATOM     27  C   UNL     1       6.375   5.523  18.119  0.00  0.00    +0.000 A 
ATOM     28  C   UNL     1       5.446   4.466  18.124  0.00  0.00    +0.000 A 
ENDBRANCH  18  20
ENDBRANCH   1  18
TORSDOF 4
ENDMDL
MODEL 6
REMARK VINA RESULT:      -7.3      3.496      8.640
REMARK  Name = 
REMARK  4 active torsions:
REMARK  status: ('A' for Active; 'I' for Inactive)
REMARK    1  A    between atoms: S_2  and  N_4
REMARK    2  A    between atoms: S_2  and  C_19
REMARK    3  A    between atoms: N_4  and  C_5
REMARK    4  A    between atoms: C_9  and  C_10
REMARK                            x       y       z     vdW  Elec       q    Type
REMARK                         _______ _______ _______ _____ _____    ______ ____
ROOT
ATOM      1  N   UNL     1      -0.005  11.051  20.894  0.00  0.00    +0.000 N 
ATOM      2  H   UNL     1      -0.139  10.873  19.891  0.00  0.00    +0.000 HD
ENDROOT
BRANCH   1   3
ATOM      3  C   UNL     1      -1.178  11.639  21.486  0.00  0.00    +0.000 A 
ATOM      4  S   UNL     1      -1.245  11.969  23.161  0.00  0.00    +0.000 S 
ATOM      5  C   UNL     1      -2.762  12.745  23.011  0.00  0.00    +0.000 A 
ATOM      6  C   UNL     1      -3.214  12.742  21.712  0.00  0.00    +0.000 A 
ATOM      7  C   UNL     1      -2.313  12.069  20.824  0.00  0.00    +0.000 A 
BRANCH   7   8
ATOM      8  C   UNL     1      -2.625  11.797  19.378  0.00  0.00    +0.000 A 
ATOM      9  N   UNL     1      -1.791  11.143  18.600  0.00  0.00    +0.000 NA
ATOM     10  C   UNL     1      -2.432  10.801  17.418  0.00  0.00    +0.000 A 
ATOM     11  C   UNL     1      -1.918   9.963  16.411  0.00  0.00    +0.000 A 
ATOM     12  C   UNL     1      -2.685   9.697  15.272  0.00  0.00    +0.000 A 
ATOM     13  C   UNL     1      -3.944  10.270  15.114  0.00  0.00    +0.000 A 
ATOM     14  C   UNL     1      -4.480  11.102  16.100  0.00  0.00    +0.000 A 
ATOM     15  C   UNL     1      -3.711  11.335  17.253  0.00  0.00    +0.000 A 
ATOM     16  S   UNL     1      -4.123  12.231  18.654  0.00  0.00    +0.000 S 
ENDBRANCH   7   8
ENDBRANCH   1   3
BRANCH   1  18
ATOM     17  O   UNL     1       1.326   9.658  22.639  0.00  0.00    +0.000 OA
ATOM     18  S   UNL     1       0.400   9.515  21.532  0.00  0.00    +0.000 S 
ATOM     19  O   UNL     1      -0.846   8.797  21.688  0.00  0.00    +0.000 OA
BRANCH  18  20
ATOM     20  C   UNL     1       1.266   8.714  20.192  0.00  0.00    +0.000 A 
ATOM     21  C   UNL     1       1.427   9.364  18.967  0.00  0.00    +0.000 A 
ATOM     22  C   UNL     1       2.193   8.770  17.950  0.00  0.00    +0.000 A 
ATOM     23  C   UNL     1       2.820   7.523  18.178  0.00  0.00    +0.000 A 
ATOM     24  N   UNL     1       3.620   6.842  17.276  0.00  0.00    +0.000 NA
ATOM     25  C   UNL     1       4.050   5.730  17.830  0.00  0.00    +0.000 A 
ATOM     26  S   UNL     1       3.526   5.422  19.431  0.00  0.00    +0.000 S 
ATOM     27  C   UNL     1       2.647   6.905  19.416  0.00  0.00    +0.000 A 
ATOM     28  C   UNL     1       1.870   7.475  20.441  0.00  0.00    +0.000 A 
ENDBRANCH  18  20
ENDBRANCH   1  18
TORSDOF 4
ENDMDL
MODEL 7
REMARK VINA RESULT:      -7.3      2.097      2.545
REMARK  Name = 
REMARK  4 active torsions:
REMARK  status: ('A' for Active; 'I' for Inactive)
REMARK    1  A    between atoms: S_2  and  N_4
REMARK    2  A    between atoms: S_2  and  C_19
REMARK    3  A    between atoms: N_4  and  C_5
REMARK    4  A    between atoms: C_9  and  C_10
REMARK                            x       y       z     vdW  Elec       q    Type
REMARK                         _______ _______ _______ _____ _____    ______ ____
ROOT
ATOM      1  N   UNL     1       1.869   5.403  18.395  0.00  0.00    +0.000 N 
ATOM      2  H   UNL     1       2.411   5.986  17.746  0.00  0.00    +0.000 HD
ENDROOT
BRANCH   1   3
ATOM      3  C   UNL     1       2.290   4.028  18.346  0.00  0.00    +0.000 A 
ATOM      4  S   UNL     1       1.162   2.757  18.525  0.00  0.00    +0.000 S 
ATOM      5  C   UNL     1       2.351   1.572  18.193  0.00  0.00    +0.000 A 
ATOM      6  C   UNL     1       3.585   2.133  17.962  0.00  0.00    +0.000 A 
ATOM      7  C   UNL     1       3.565   3.561  18.083  0.00  0.00    +0.000 A 
BRANCH   7   8
ATOM      8  C   UNL     1       4.802   4.415  18.020  0.00  0.00    +0.000 A 
ATOM      9  N   UNL     1       4.900   5.431  17.193  0.00  0.00    +0.000 NA
ATOM     10  C   UNL     1       6.010   6.194  17.528  0.00  0.00    +0.000 A 
ATOM     11  C   UNL     1       6.352   7.443  16.977  0.00  0.00    +0.000 A 
ATOM     12  C   UNL     1       7.501   8.106  17.422  0.00  0.00    +0.000 A 
ATOM     13  C   UNL     1       8.322   7.532  18.389  0.00  0.00    +0.000 A 
ATOM     14  C   UNL     1       8.003   6.297  18.956  0.00  0.00    +0.000 A 
ATOM     15  C   UNL     1       6.830   5.657  18.523  0.00  0.00    +0.000 A 
ATOM     16  S   UNL     1       6.138   4.191  19.080  0.00  0.00    +0.000 S 
ENDBRANCH   7   8
ENDBRANCH   1   3
BRANCH   1  18
ATOM     17  O   UNL     1       1.119   5.688  20.868  0.00  0.00    +0.000 OA
ATOM     18  S   UNL     1       2.111   6.150  19.916  0.00  0.00    +0.000 S 
ATOM     19  O   UNL     1       3.526   6.043  20.201  0.00  0.00    +0.000 OA
BRANCH  18  20
ATOM     20  C   UNL     1       1.802   7.878  19.594  0.00  0.00    +0.000 A 
ATOM     21  C   UNL     1       2.088   8.425  18.342  0.00  0.00    +0.000 A 
ATOM     22  C   UNL     1       1.752   9.760  18.064  0.00  0.00    +0.000 A 
ATOM     23  C   UNL     1       1.103  10.543  19.047  0.00  0.00    +0.000 A 
ATOM     24  N   UNL     1       0.693  11.857  18.896  0.00  0.00    +0.000 NA
ATOM     25  C   UNL     1       0.107  12.259  20.002  0.00  0.00    +0.000 A 
ATOM     26  S   UNL     1       0.019  11.121  21.277  0.00  0.00    +0.000 S 
ATOM     27  C   UNL     1       0.822   9.963  20.284  0.00  0.00    +0.000 A 
ATOM     28  C   UNL     1       1.167   8.634  20.588  0.00  0.00    +0.000 A 
ENDBRANCH  18  20
ENDBRANCH   1  18
TORSDOF 4
ENDMDL
MODEL 8
REMARK VINA RESULT:      -7.1      3.675     10.451
REMARK  Name = 
REMARK  4 active torsions:
REMARK  status: ('A' for Active; 'I' for Inactive)
REMARK    1  A    between atoms: S_2  and  N_4
REMARK    2  A    between atoms: S_2  and  C_19
REMARK    3  A    between atoms: N_4  and  C_5
REMARK    4  A    between atoms: C_9  and  C_10
REMARK                            x       y       z     vdW  Elec       q    Type
REMARK                         _______ _______ _______ _____ _____    ______ ____
ROOT
ATOM      1  N   UNL     1      -0.619  10.950  19.419  0.00  0.00    +0.000 N 
ATOM      2  H   UNL     1      -1.596  10.704  19.618  0.00  0.00    +0.000 HD
ENDROOT
BRANCH   1   3
ATOM      3  C   UNL     1      -0.411  12.373  19.473  0.00  0.00    +0.000 A 
ATOM      4  S   UNL     1       0.924  13.097  18.690  0.00  0.00    +0.000 S 
ATOM      5  C   UNL     1       0.370  14.672  19.068  0.00  0.00    +0.000 A 
ATOM      6  C   UNL     1      -0.801  14.645  19.786  0.00  0.00    +0.000 A 
ATOM      7  C   UNL     1      -1.245  13.310  20.056  0.00  0.00    +0.000 A 
BRANCH   7   8
ATOM      8  C   UNL     1      -2.420  12.989  20.940  0.00  0.00    +0.000 A 
ATOM      9  N   UNL     1      -2.263  12.503  22.150  0.00  0.00    +0.000 NA
ATOM     10  C   UNL     1      -3.472  12.557  22.830  0.00  0.00    +0.000 A 
ATOM     11  C   UNL     1      -3.666  12.278  24.196  0.00  0.00    +0.000 A 
ATOM     12  C   UNL     1      -4.945  12.384  24.750  0.00  0.00    +0.000 A 
ATOM     13  C   UNL     1      -6.034  12.744  23.960  0.00  0.00    +0.000 A 
ATOM     14  C   UNL     1      -5.868  13.032  22.604  0.00  0.00    +0.000 A 
ATOM     15  C   UNL     1      -4.573  12.951  22.067  0.00  0.00    +0.000 A 
ATOM     16  S   UNL     1      -4.044  13.317  20.479  0.00  0.00    +0.000 S 
ENDBRANCH   7   8
ENDBRANCH   1   3
BRANCH   1  18
ATOM     17  O   UNL     1       1.194  10.950  21.282  0.00  0.00    +0.000 OA
ATOM     18  S   UNL     1       0.272  10.072  20.587  0.00  0.00    +0.000 S 
ATOM     19  O   UNL     1      -0.688   9.271  21.314  0.00  0.00    +0.000 OA
BRANCH  18  20
ATOM     20  C   UNL     1       1.234   8.926  19.613  0.00  0.00    +0.000 A 
ATOM     21  C   UNL     1       1.646   9.266  18.324  0.00  0.00    +0.000 A 
ATOM     22  C   UNL     1       2.484   8.402  17.601  0.00  0.00    +0.000 A 
ATOM     23  C   UNL     1       2.928   7.195  18.190  0.00  0.00    +0.000 A 
ATOM     24  N   UNL     1       3.774   6.270  17.603  0.00  0.00    +0.000 NA
ATOM     25  C   UNL     1       3.990   5.283  18.444  0.00  0.00    +0.000 A 
ATOM     26  S   UNL     1       3.203   5.386  19.961  0.00  0.00    +0.000 S 
ATOM     27  C   UNL     1       2.506   6.889  19.484  0.00  0.00    +0.000 A 
ATOM     28  C   UNL     1       1.653   7.733  20.217  0.00  0.00    +0.000 A 
ENDBRANCH  18  20
ENDBRANCH   1  18
TORSDOF 4
ENDMDL
MODEL 9
REMARK VINA RESULT:      -7.0      7.024     10.075
REMARK  Name = 
REMARK  4 active torsions:
REMARK  status: ('A' for Active; 'I' for Inactive)
REMARK    1  A    between atoms: S_2  and  N_4
REMARK    2  A    between atoms: S_2  and  C_19
REMARK    3  A    between atoms: N_4  and  C_5
REMARK    4  A    between atoms: C_9  and  C_10
REMARK                            x       y       z     vdW  Elec       q    Type
REMARK                         _______ _______ _______ _____ _____    ______ ____
ROOT
ATOM      1  N   UNL     1      -4.467  12.644  22.253  0.00  0.00    +0.000 N 
ATOM      2  H   UNL     1      -3.852  12.021  21.716  0.00  0.00    +0.000 HD
ENDROOT
BRANCH   1   3
ATOM      3  C   UNL     1      -3.712  13.513  23.118  0.00  0.00    +0.000 A 
ATOM      4  S   UNL     1      -4.465  14.813  23.931  0.00  0.00    +0.000 S 
ATOM      5  C   UNL     1      -3.034  15.182  24.795  0.00  0.00    +0.000 A 
ATOM      6  C   UNL     1      -2.001  14.339  24.460  0.00  0.00    +0.000 A 
ATOM      7  C   UNL     1      -2.378  13.385  23.459  0.00  0.00    +0.000 A 
BRANCH   7   8
ATOM      8  C   UNL     1      -1.407  12.438  22.810  0.00  0.00    +0.000 A 
ATOM      9  N   UNL     1      -1.221  11.218  23.263  0.00  0.00    +0.000 NA
ATOM     10  C   UNL     1      -0.493  10.487  22.335  0.00  0.00    +0.000 A 
ATOM     11  C   UNL     1      -0.236   9.104  22.391  0.00  0.00    +0.000 A 
ATOM     12  C   UNL     1       0.509   8.496  21.374  0.00  0.00    +0.000 A 
ATOM     13  C   UNL     1       1.016   9.249  20.318  0.00  0.00    +0.000 A 
ATOM     14  C   UNL     1       0.771  10.621  20.236  0.00  0.00    +0.000 A 
ATOM     15  C   UNL     1      -0.004  11.213  21.247  0.00  0.00    +0.000 A 
ATOM     16  S   UNL     1      -0.537  12.836  21.380  0.00  0.00    +0.000 S 
ENDBRANCH   7   8
ENDBRANCH   1   3
BRANCH   1  18
ATOM     17  O   UNL     1      -6.788  13.342  21.312  0.00  0.00    +0.000 OA
ATOM     18  S   UNL     1      -5.366  13.468  21.053  0.00  0.00    +0.000 S 
ATOM     19  O   UNL     1      -4.747  14.767  20.900  0.00  0.00    +0.000 OA
BRANCH  18  20
ATOM     20  C   UNL     1      -4.998  12.568  19.555  0.00  0.00    +0.000 A 
ATOM     21  C   UNL     1      -5.949  12.472  18.538  0.00  0.00    +0.000 A 
ATOM     22  C   UNL     1      -5.620  11.848  17.323  0.00  0.00    +0.000 A 
ATOM     23  C   UNL     1      -4.317  11.337  17.125  0.00  0.00    +0.000 A 
ATOM     24  N   UNL     1      -3.853  10.725  15.972  0.00  0.00    +0.000 NA
ATOM     25  C   UNL     1      -2.591  10.395  16.133  0.00  0.00    +0.000 A 
ATOM     26  S   UNL     1      -1.889  10.775  17.647  0.00  0.00    +0.000 S 
ATOM     27  C   UNL     1      -3.387  11.458  18.158  0.00  0.00    +0.000 A 
ATOM     28  C   UNL     1      -3.703  12.064  19.387  0.00  0.00    +0.000 A 
ENDBRANCH  18  20
ENDBRANCH   1  18
TORSDOF 4
ENDMDL
