MODEL 1
REMARK VINA RESULT:      -8.4      0.000      0.000
REMARK  Name = 
REMARK  11 active torsions:
REMARK  status: ('A' for Active; 'I' for Inactive)
REMARK    1  A    between atoms: C_1  and  O_2
REMARK    2  A    between atoms: O_2  and  C_3
REMARK    3  A    between atoms: C_4  and  C_5
REMARK    4  A    between atoms: C_7  and  O_8
REMARK    5  A    between atoms: C_9  and  O_10
REMARK    6  A    between atoms: C_11  and  O_12
REMARK    7  A    between atoms: C_17  and  O_18
REMARK    8  A    between atoms: C_20  and  O_21
REMARK    9  A    between atoms: O_21  and  C_22
REMARK   10  A    between atoms: C_22  and  C_23
REMARK   11  A    between atoms: C_23  and  N_24
REMARK                            x       y       z     vdW  Elec       q    Type
REMARK                         _______ _______ _______ _____ _____    ______ ____
ROOT
ATOM      1  C   UNL     1       2.419   7.473  18.272  0.00  0.00    +0.000 A 
ATOM      2  C   UNL     1       2.259   6.626  19.304  0.00  0.00    +0.000 A 
ATOM      3  O   UNL     1       1.685   6.942  20.519  0.00  0.00    +0.000 OA
ATOM      4  C   UNL     1       1.291   8.230  20.747  0.00  0.00    +0.000 A 
ATOM      5  C   UNL     1       0.814   8.498  22.031  0.00  0.00    +0.000 A 
ATOM      6  C   UNL     1       0.387   9.779  22.336  0.00  0.00    +0.000 A 
ATOM      7  C   UNL     1       0.432  10.790  21.383  0.00  0.00    +0.000 A 
ATOM      8  C   UNL     1       0.920  10.530  20.095  0.00  0.00    +0.000 A 
ATOM      9  C   UNL     1       1.347   9.228  19.775  0.00  0.00    +0.000 A 
ATOM     10  C   UNL     1       1.881   8.866  18.441  0.00  0.00    +0.000 A 
ATOM     11  O   UNL     1       1.887   9.673  17.518  0.00  0.00    +0.000 OA
ENDROOT
BRANCH   2  12
ATOM     12  C   UNL     1       2.697   5.221  19.277  0.00  0.00    +0.000 A 
ATOM     13  C   UNL     1       1.770   4.198  19.009  0.00  0.00    +0.000 A 
ATOM     14  C   UNL     1       2.220   2.891  18.840  0.00  0.00    +0.000 A 
ATOM     15  C   UNL     1       3.576   2.598  18.940  0.00  0.00    +0.000 A 
ATOM     16  C   UNL     1       4.490   3.603  19.224  0.00  0.00    +0.000 A 
ATOM     17  C   UNL     1       4.063   4.913  19.397  0.00  0.00    +0.000 A 
BRANCH  14  18
ATOM     18  O   UNL     1       1.368   1.862  18.542  0.00  0.00    +0.000 OA
ATOM     19  H   UNL     1       1.414   1.697  17.585  0.00  0.00    +0.000 HD
ENDBRANCH  14  18
BRANCH  15  20
ATOM     20  O   UNL     1       4.029   1.322  18.737  0.00  0.00    +0.000 OA
ATOM     21  H   UNL     1       4.139   0.960  19.640  0.00  0.00    +0.000 HD
ENDBRANCH  15  20
BRANCH  16  22
ATOM     22  O   UNL     1       5.821   3.311  19.304  0.00  0.00    +0.000 OA
ATOM     23  H   UNL     1       6.214   3.733  18.512  0.00  0.00    +0.000 HD
ENDBRANCH  16  22
ENDBRANCH   2  12
BRANCH   1  25
ATOM     24  C   UNL     1       4.425   7.298  16.984  0.00  0.00    +0.000 C 
ATOM     25  O   UNL     1       3.028   7.044  17.097  0.00  0.00    +0.000 OA
ENDBRANCH   1  25
BRANCH   6  26
ATOM     26  O   UNL     1      -0.096  10.096  23.570  0.00  0.00    +0.000 OA
ATOM     27  H   UNL     1      -1.051   9.921  23.594  0.00  0.00    +0.000 HD
ENDBRANCH   6  26
BRANCH   8  28
ATOM     28  O   UNL     1       0.947  11.478  19.106  0.00  0.00    +0.000 OA
BRANCH  28  29
ATOM     29  C   UNL     1      -0.180  12.349  19.031  0.00  0.00    +0.000 C 
BRANCH  29  30
ATOM     30  C   UNL     1      -1.478  11.523  19.092  0.00  0.00    +0.000 C 
BRANCH  30  31
ATOM     31  N   UNL     1      -2.244  11.528  17.825  0.00  0.00    +0.000 NA
ATOM     32  C   UNL     1      -1.868  10.365  17.002  0.00  0.00    +0.000 C 
ATOM     33  C   UNL     1      -2.586  10.386  15.649  0.00  0.00    +0.000 C 
ATOM     34  C   UNL     1      -4.099  10.467  15.817  0.00  0.00    +0.000 C 
ATOM     35  C   UNL     1      -4.467  11.619  16.738  0.00  0.00    +0.000 C 
ATOM     36  C   UNL     1      -3.698  11.544  18.053  0.00  0.00    +0.000 C 
ENDBRANCH  30  31
ENDBRANCH  29  30
ENDBRANCH  28  29
ENDBRANCH   8  28
TORSDOF 10
ENDMDL
MODEL 2
REMARK VINA RESULT:      -8.3      0.622      1.041
REMARK  Name = 
REMARK  11 active torsions:
REMARK  status: ('A' for Active; 'I' for Inactive)
REMARK    1  A    between atoms: C_1  and  O_2
REMARK    2  A    between atoms: O_2  and  C_3
REMARK    3  A    between atoms: C_4  and  C_5
REMARK    4  A    between atoms: C_7  and  O_8
REMARK    5  A    between atoms: C_9  and  O_10
REMARK    6  A    between atoms: C_11  and  O_12
REMARK    7  A    between atoms: C_17  and  O_18
REMARK    8  A    between atoms: C_20  and  O_21
REMARK    9  A    between atoms: O_21  and  C_22
REMARK   10  A    between atoms: C_22  and  C_23
REMARK   11  A    between atoms: C_23  and  N_24
REMARK                            x       y       z     vdW  Elec       q    Type
REMARK                         _______ _______ _______ _____ _____    ______ ____
ROOT
ATOM      1  C   UNL     1       2.447   7.487  18.252  0.00  0.00    +0.000 A 
ATOM      2  C   UNL     1       2.256   6.644  19.282  0.00  0.00    +0.000 A 
ATOM      3  O   UNL     1       1.661   6.970  20.484  0.00  0.00    +0.000 OA
ATOM      4  C   UNL     1       1.278   8.263  20.702  0.00  0.00    +0.000 A 
ATOM      5  C   UNL     1       0.777   8.539  21.975  0.00  0.00    +0.000 A 
ATOM      6  C   UNL     1       0.360   9.826  22.269  0.00  0.00    +0.000 A 
ATOM      7  C   UNL     1       0.436  10.834  21.315  0.00  0.00    +0.000 A 
ATOM      8  C   UNL     1       0.947  10.566  20.037  0.00  0.00    +0.000 A 
ATOM      9  C   UNL     1       1.366   9.258  19.729  0.00  0.00    +0.000 A 
ATOM     10  C   UNL     1       1.923   8.886  18.407  0.00  0.00    +0.000 A 
ATOM     11  O   UNL     1       1.958   9.692  17.482  0.00  0.00    +0.000 OA
ENDROOT
BRANCH   2  12
ATOM     12  C   UNL     1       2.678   5.234  19.267  0.00  0.00    +0.000 A 
ATOM     13  C   UNL     1       1.743   4.220  18.992  0.00  0.00    +0.000 A 
ATOM     14  C   UNL     1       2.179   2.908  18.834  0.00  0.00    +0.000 A 
ATOM     15  C   UNL     1       3.529   2.599  18.953  0.00  0.00    +0.000 A 
ATOM     16  C   UNL     1       4.452   3.595  19.244  0.00  0.00    +0.000 A 
ATOM     17  C   UNL     1       4.039   4.911  19.405  0.00  0.00    +0.000 A 
BRANCH  14  18
ATOM     18  O   UNL     1       1.319   1.888  18.530  0.00  0.00    +0.000 OA
ATOM     19  H   UNL     1       0.563   2.262  18.045  0.00  0.00    +0.000 HD
ENDBRANCH  14  18
BRANCH  15  20
ATOM     20  O   UNL     1       3.970   1.317  18.761  0.00  0.00    +0.000 OA
ATOM     21  H   UNL     1       4.812   1.424  18.272  0.00  0.00    +0.000 HD
ENDBRANCH  15  20
BRANCH  16  22
ATOM     22  O   UNL     1       5.779   3.288  19.341  0.00  0.00    +0.000 OA
ATOM     23  H   UNL     1       6.215   4.142  19.536  0.00  0.00    +0.000 HD
ENDBRANCH  16  22
ENDBRANCH   2  12
BRANCH   1  25
ATOM     24  C   UNL     1       4.477   7.287  17.005  0.00  0.00    +0.000 C 
ATOM     25  O   UNL     1       3.076   7.048  17.090  0.00  0.00    +0.000 OA
ENDBRANCH   1  25
BRANCH   6  26
ATOM     26  O   UNL     1      -0.145  10.151  23.492  0.00  0.00    +0.000 OA
ATOM     27  H   UNL     1       0.482   9.874  24.180  0.00  0.00    +0.000 HD
ENDBRANCH   6  26
BRANCH   8  28
ATOM     28  O   UNL     1       1.006  11.511  19.047  0.00  0.00    +0.000 OA
BRANCH  28  29
ATOM     29  C   UNL     1      -0.198  12.228  18.783  0.00  0.00    +0.000 C 
BRANCH  29  30
ATOM     30  C   UNL     1      -1.196  11.312  18.051  0.00  0.00    +0.000 C 
BRANCH  30  31
ATOM     31  N   UNL     1      -2.587  11.817  18.069  0.00  0.00    +0.000 NA
ATOM     32  C   UNL     1      -3.447  10.960  17.234  0.00  0.00    +0.000 C 
ATOM     33  C   UNL     1      -4.878  11.505  17.168  0.00  0.00    +0.000 C 
ATOM     34  C   UNL     1      -5.475  11.683  18.559  0.00  0.00    +0.000 C 
ATOM     35  C   UNL     1      -4.537  12.496  19.436  0.00  0.00    +0.000 C 
ATOM     36  C   UNL     1      -3.130  11.908  19.435  0.00  0.00    +0.000 C 
ENDBRANCH  30  31
ENDBRANCH  29  30
ENDBRANCH  28  29
ENDBRANCH   8  28
TORSDOF 10
ENDMDL
MODEL 3
REMARK VINA RESULT:      -8.1      0.664      1.623
REMARK  Name = 
REMARK  11 active torsions:
REMARK  status: ('A' for Active; 'I' for Inactive)
REMARK    1  A    between atoms: C_1  and  O_2
REMARK    2  A    between atoms: O_2  and  C_3
REMARK    3  A    between atoms: C_4  and  C_5
REMARK    4  A    between atoms: C_7  and  O_8
REMARK    5  A    between atoms: C_9  and  O_10
REMARK    6  A    between atoms: C_11  and  O_12
REMARK    7  A    between atoms: C_17  and  O_18
REMARK    8  A    between atoms: C_20  and  O_21
REMARK    9  A    between atoms: O_21  and  C_22
REMARK   10  A    between atoms: C_22  and  C_23
REMARK   11  A    between atoms: C_23  and  N_24
REMARK                            x       y       z     vdW  Elec       q    Type
REMARK                         _______ _______ _______ _____ _____    ______ ____
ROOT
ATOM      1  C   UNL     1       2.501   7.680  18.152  0.00  0.00    +0.000 A 
ATOM      2  C   UNL     1       2.327   6.699  19.055  0.00  0.00    +0.000 A 
ATOM      3  O   UNL     1       1.720   6.843  20.287  0.00  0.00    +0.000 OA
ATOM      4  C   UNL     1       1.305   8.084  20.677  0.00  0.00    +0.000 A 
ATOM      5  C   UNL     1       0.793   8.170  21.973  0.00  0.00    +0.000 A 
ATOM      6  C   UNL     1       0.343   9.395  22.437  0.00  0.00    +0.000 A 
ATOM      7  C   UNL     1       0.398  10.526  21.632  0.00  0.00    +0.000 A 
ATOM      8  C   UNL     1       0.920  10.447  20.333  0.00  0.00    +0.000 A 
ATOM      9  C   UNL     1       1.372   9.204  19.850  0.00  0.00    +0.000 A 
ATOM     10  C   UNL     1       1.942   9.032  18.494  0.00  0.00    +0.000 A 
ATOM     11  O   UNL     1       1.960   9.957  17.689  0.00  0.00    +0.000 OA
ENDROOT
BRANCH   2  12
ATOM     12  C   UNL     1       2.784   5.315  18.850  0.00  0.00    +0.000 A 
ATOM     13  C   UNL     1       4.085   4.937  19.228  0.00  0.00    +0.000 A 
ATOM     14  C   UNL     1       4.455   3.596  19.167  0.00  0.00    +0.000 A 
ATOM     15  C   UNL     1       3.548   2.637  18.731  0.00  0.00    +0.000 A 
ATOM     16  C   UNL     1       2.269   3.010  18.339  0.00  0.00    +0.000 A 
ATOM     17  C   UNL     1       1.878   4.342  18.392  0.00  0.00    +0.000 A 
BRANCH  14  18
ATOM     18  O   UNL     1       5.695   3.167  19.555  0.00  0.00    +0.000 OA
ATOM     19  H   UNL     1       5.902   2.353  19.064  0.00  0.00    +0.000 HD
ENDBRANCH  14  18
BRANCH  15  20
ATOM     20  O   UNL     1       3.893   1.313  18.705  0.00  0.00    +0.000 OA
ATOM     21  H   UNL     1       4.869   1.321  18.626  0.00  0.00    +0.000 HD
ENDBRANCH  15  20
BRANCH  16  22
ATOM     22  O   UNL     1       1.377   2.062  17.929  0.00  0.00    +0.000 OA
ATOM     23  H   UNL     1       1.329   1.430  18.675  0.00  0.00    +0.000 HD
ENDBRANCH  16  22
ENDBRANCH   2  12
BRANCH   1  25
ATOM     24  C   UNL     1       4.567   7.459  16.970  0.00  0.00    +0.000 C 
ATOM     25  O   UNL     1       3.144   7.420  16.945  0.00  0.00    +0.000 OA
ENDBRANCH   1  25
BRANCH   6  26
ATOM     26  O   UNL     1      -0.174   9.536  23.690  0.00  0.00    +0.000 OA
ATOM     27  H   UNL     1       0.515   9.880  24.284  0.00  0.00    +0.000 HD
ENDBRANCH   6  26
BRANCH   8  28
ATOM     28  O   UNL     1       0.958  11.520  19.482  0.00  0.00    +0.000 OA
BRANCH  28  29
ATOM     29  C   UNL     1      -0.164  12.400  19.519  0.00  0.00    +0.000 C 
BRANCH  29  30
ATOM     30  C   UNL     1      -0.627  12.709  18.083  0.00  0.00    +0.000 C 
BRANCH  30  31
ATOM     31  N   UNL     1      -1.842  11.966  17.679  0.00  0.00    +0.000 NA
ATOM     32  C   UNL     1      -1.490  10.586  17.302  0.00  0.00    +0.000 C 
ATOM     33  C   UNL     1      -2.717   9.817  16.801  0.00  0.00    +0.000 C 
ATOM     34  C   UNL     1      -3.844   9.829  17.827  0.00  0.00    +0.000 C 
ATOM     35  C   UNL     1      -4.138  11.253  18.272  0.00  0.00    +0.000 C 
ATOM     36  C   UNL     1      -2.870  11.962  18.734  0.00  0.00    +0.000 C 
ENDBRANCH  30  31
ENDBRANCH  29  30
ENDBRANCH  28  29
ENDBRANCH   8  28
TORSDOF 10
ENDMDL
MODEL 4
REMARK VINA RESULT:      -8.1      0.958      1.492
REMARK  Name = 
REMARK  11 active torsions:
REMARK  status: ('A' for Active; 'I' for Inactive)
REMARK    1  A    between atoms: C_1  and  O_2
REMARK    2  A    between atoms: O_2  and  C_3
REMARK    3  A    between atoms: C_4  and  C_5
REMARK    4  A    between atoms: C_7  and  O_8
REMARK    5  A    between atoms: C_9  and  O_10
REMARK    6  A    between atoms: C_11  and  O_12
REMARK    7  A    between atoms: C_17  and  O_18
REMARK    8  A    between atoms: C_20  and  O_21
REMARK    9  A    between atoms: O_21  and  C_22
REMARK   10  A    between atoms: C_22  and  C_23
REMARK   11  A    between atoms: C_23  and  N_24
REMARK                            x       y       z     vdW  Elec       q    Type
REMARK                         _______ _______ _______ _____ _____    ______ ____
ROOT
ATOM      1  C   UNL     1       2.392   7.610  18.438  0.00  0.00    +0.000 A 
ATOM      2  C   UNL     1       2.319   6.856  19.549  0.00  0.00    +0.000 A 
ATOM      3  O   UNL     1       1.717   7.230  20.734  0.00  0.00    +0.000 OA
ATOM      4  C   UNL     1       1.197   8.488  20.840  0.00  0.00    +0.000 A 
ATOM      5  C   UNL     1       0.696   8.830  22.097  0.00  0.00    +0.000 A 
ATOM      6  C   UNL     1       0.143  10.087  22.281  0.00  0.00    +0.000 A 
ATOM      7  C   UNL     1       0.085  10.999  21.235  0.00  0.00    +0.000 A 
ATOM      8  C   UNL     1       0.596  10.665  19.973  0.00  0.00    +0.000 A 
ATOM      9  C   UNL     1       1.152   9.387  19.775  0.00  0.00    +0.000 A 
ATOM     10  C   UNL     1       1.718   8.952  18.477  0.00  0.00    +0.000 A 
ATOM     11  O   UNL     1       1.642   9.662  17.480  0.00  0.00    +0.000 OA
ENDROOT
BRANCH   2  12
ATOM     12  C   UNL     1       2.896   5.505  19.654  0.00  0.00    +0.000 A 
ATOM     13  C   UNL     1       2.068   4.404  19.937  0.00  0.00    +0.000 A 
ATOM     14  C   UNL     1       2.597   3.117  19.887  0.00  0.00    +0.000 A 
ATOM     15  C   UNL     1       3.935   2.921  19.565  0.00  0.00    +0.000 A 
ATOM     16  C   UNL     1       4.758   4.007  19.303  0.00  0.00    +0.000 A 
ATOM     17  C   UNL     1       4.252   5.300  19.347  0.00  0.00    +0.000 A 
BRANCH  14  18
ATOM     18  O   UNL     1       1.830   2.008  20.119  0.00  0.00    +0.000 OA
ATOM     19  H   UNL     1       2.186   1.276  19.587  0.00  0.00    +0.000 HD
ENDBRANCH  14  18
BRANCH  15  20
ATOM     20  O   UNL     1       4.451   1.656  19.476  0.00  0.00    +0.000 OA
ATOM     21  H   UNL     1       3.858   1.199  18.845  0.00  0.00    +0.000 HD
ENDBRANCH  15  20
BRANCH  16  22
ATOM     22  O   UNL     1       6.067   3.807  18.970  0.00  0.00    +0.000 OA
ATOM     23  H   UNL     1       6.099   3.951  18.002  0.00  0.00    +0.000 HD
ENDBRANCH  16  22
ENDBRANCH   2  12
BRANCH   1  25
ATOM     24  C   UNL     1       4.366   7.608  17.089  0.00  0.00    +0.000 C 
ATOM     25  O   UNL     1       3.041   7.131  17.303  0.00  0.00    +0.000 OA
ENDBRANCH   1  25
BRANCH   6  26
ATOM     26  O   UNL     1      -0.369  10.471  23.484  0.00  0.00    +0.000 OA
ATOM     27  H   UNL     1       0.295  10.319  24.178  0.00  0.00    +0.000 HD
ENDBRANCH   6  26
BRANCH   8  28
ATOM     28  O   UNL     1       0.527  11.510  18.896  0.00  0.00    +0.000 OA
BRANCH  28  29
ATOM     29  C   UNL     1      -0.702  12.212  18.719  0.00  0.00    +0.000 C 
BRANCH  29  30
ATOM     30  C   UNL     1      -1.673  11.354  17.888  0.00  0.00    +0.000 C 
BRANCH  30  31
ATOM     31  N   UNL     1      -3.056  11.344  18.415  0.00  0.00    +0.000 NA
ATOM     32  C   UNL     1      -3.219  12.400  19.429  0.00  0.00    +0.000 C 
ATOM     33  C   UNL     1      -4.618  12.361  20.053  0.00  0.00    +0.000 C 
ATOM     34  C   UNL     1      -5.708  12.454  18.991  0.00  0.00    +0.000 C 
ATOM     35  C   UNL     1      -5.478  11.415  17.906  0.00  0.00    +0.000 C 
ATOM     36  C   UNL     1      -4.061  11.499  17.350  0.00  0.00    +0.000 C 
ENDBRANCH  30  31
ENDBRANCH  29  30
ENDBRANCH  28  29
ENDBRANCH   8  28
TORSDOF 10
ENDMDL
MODEL 5
REMARK VINA RESULT:      -8.0      2.514      3.425
REMARK  Name = 
REMARK  11 active torsions:
REMARK  status: ('A' for Active; 'I' for Inactive)
REMARK    1  A    between atoms: C_1  and  O_2
REMARK    2  A    between atoms: O_2  and  C_3
REMARK    3  A    between atoms: C_4  and  C_5
REMARK    4  A    between atoms: C_7  and  O_8
REMARK    5  A    between atoms: C_9  and  O_10
REMARK    6  A    between atoms: C_11  and  O_12
REMARK    7  A    between atoms: C_17  and  O_18
REMARK    8  A    between atoms: C_20  and  O_21
REMARK    9  A    between atoms: O_21  and  C_22
REMARK   10  A    between atoms: C_22  and  C_23
REMARK   11  A    between atoms: C_23  and  N_24
REMARK                            x       y       z     vdW  Elec       q    Type
REMARK                         _______ _______ _______ _____ _____    ______ ____
ROOT
ATOM      1  C   UNL     1       2.470   7.475  18.251  0.00  0.00    +0.000 A 
ATOM      2  C   UNL     1       2.268   6.631  19.278  0.00  0.00    +0.000 A 
ATOM      3  O   UNL     1       1.668   6.958  20.478  0.00  0.00    +0.000 OA
ATOM      4  C   UNL     1       1.293   8.253  20.696  0.00  0.00    +0.000 A 
ATOM      5  C   UNL     1       0.787   8.530  21.967  0.00  0.00    +0.000 A 
ATOM      6  C   UNL     1       0.376   9.819  22.261  0.00  0.00    +0.000 A 
ATOM      7  C   UNL     1       0.465  10.829  21.310  0.00  0.00    +0.000 A 
ATOM      8  C   UNL     1       0.982  10.559  20.035  0.00  0.00    +0.000 A 
ATOM      9  C   UNL     1       1.393   9.249  19.726  0.00  0.00    +0.000 A 
ATOM     10  C   UNL     1       1.955   8.877  18.406  0.00  0.00    +0.000 A 
ATOM     11  O   UNL     1       2.001   9.684  17.484  0.00  0.00    +0.000 OA
ENDROOT
BRANCH   2  12
ATOM     12  C   UNL     1       2.680   5.217  19.263  0.00  0.00    +0.000 A 
ATOM     13  C   UNL     1       1.740   4.211  18.977  0.00  0.00    +0.000 A 
ATOM     14  C   UNL     1       2.168   2.896  18.818  0.00  0.00    +0.000 A 
ATOM     15  C   UNL     1       3.516   2.578  18.947  0.00  0.00    +0.000 A 
ATOM     16  C   UNL     1       4.443   3.566  19.248  0.00  0.00    +0.000 A 
ATOM     17  C   UNL     1       4.037   4.885  19.410  0.00  0.00    +0.000 A 
BRANCH  14  18
ATOM     18  O   UNL     1       1.303   1.883  18.505  0.00  0.00    +0.000 OA
ATOM     19  H   UNL     1       0.544   2.267  18.033  0.00  0.00    +0.000 HD
ENDBRANCH  14  18
BRANCH  15  20
ATOM     20  O   UNL     1       3.949   1.294  18.755  0.00  0.00    +0.000 OA
ATOM     21  H   UNL     1       3.534   0.789  19.484  0.00  0.00    +0.000 HD
ENDBRANCH  15  20
BRANCH  16  22
ATOM     22  O   UNL     1       5.766   3.250  19.355  0.00  0.00    +0.000 OA
ATOM     23  H   UNL     1       6.236   4.025  18.987  0.00  0.00    +0.000 HD
ENDBRANCH  16  22
ENDBRANCH   2  12
BRANCH   1  25
ATOM     24  C   UNL     1       4.505   7.271  17.012  0.00  0.00    +0.000 C 
ATOM     25  O   UNL     1       3.103   7.034  17.092  0.00  0.00    +0.000 OA
ENDBRANCH   1  25
BRANCH   6  26
ATOM     26  O   UNL     1      -0.133  10.144  23.482  0.00  0.00    +0.000 OA
ATOM     27  H   UNL     1       0.242   9.551  24.154  0.00  0.00    +0.000 HD
ENDBRANCH   6  26
BRANCH   8  28
ATOM     28  O   UNL     1       1.053  11.506  19.047  0.00  0.00    +0.000 OA
BRANCH  28  29
ATOM     29  C   UNL     1       1.024  12.868  19.471  0.00  0.00    +0.000 C 
BRANCH  29  30
ATOM     30  C   UNL     1       2.450  13.447  19.449  0.00  0.00    +0.000 C 
BRANCH  30  31
ATOM     31  N   UNL     1       2.499  14.893  19.138  0.00  0.00    +0.000 NA
ATOM     32  C   UNL     1       3.160  15.109  17.839  0.00  0.00    +0.000 C 
ATOM     33  C   UNL     1       3.299  16.602  17.527  0.00  0.00    +0.000 C 
ATOM     34  C   UNL     1       1.951  17.312  17.575  0.00  0.00    +0.000 C 
ATOM     35  C   UNL     1       1.241  17.011  18.885  0.00  0.00    +0.000 C 
ATOM     36  C   UNL     1       1.162  15.509  19.139  0.00  0.00    +0.000 C 
ENDBRANCH  30  31
ENDBRANCH  29  30
ENDBRANCH  28  29
ENDBRANCH   8  28
TORSDOF 10
ENDMDL
MODEL 6
REMARK VINA RESULT:      -8.0      1.008      1.560
REMARK  Name = 
REMARK  11 active torsions:
REMARK  status: ('A' for Active; 'I' for Inactive)
REMARK    1  A    between atoms: C_1  and  O_2
REMARK    2  A    between atoms: O_2  and  C_3
REMARK    3  A    between atoms: C_4  and  C_5
REMARK    4  A    between atoms: C_7  and  O_8
REMARK    5  A    between atoms: C_9  and  O_10
REMARK    6  A    between atoms: C_11  and  O_12
REMARK    7  A    between atoms: C_17  and  O_18
REMARK    8  A    between atoms: C_20  and  O_21
REMARK    9  A    between atoms: O_21  and  C_22
REMARK   10  A    between atoms: C_22  and  C_23
REMARK   11  A    between atoms: C_23  and  N_24
REMARK                            x       y       z     vdW  Elec       q    Type
REMARK                         _______ _______ _______ _____ _____    ______ ____
ROOT
ATOM      1  C   UNL     1       2.479   7.232  18.288  0.00  0.00    +0.000 A 
ATOM      2  C   UNL     1       2.177   6.392  19.293  0.00  0.00    +0.000 A 
ATOM      3  O   UNL     1       1.578   6.750  20.485  0.00  0.00    +0.000 OA
ATOM      4  C   UNL     1       1.313   8.069  20.719  0.00  0.00    +0.000 A 
ATOM      5  C   UNL     1       0.801   8.368  21.983  0.00  0.00    +0.000 A 
ATOM      6  C   UNL     1       0.499   9.683  22.292  0.00  0.00    +0.000 A 
ATOM      7  C   UNL     1       0.700  10.697  21.363  0.00  0.00    +0.000 A 
ATOM      8  C   UNL     1       1.223  10.405  20.096  0.00  0.00    +0.000 A 
ATOM      9  C   UNL     1       1.525   9.069  19.771  0.00  0.00    +0.000 A 
ATOM     10  C   UNL     1       2.085   8.672  18.458  0.00  0.00    +0.000 A 
ATOM     11  O   UNL     1       2.225   9.488  17.553  0.00  0.00    +0.000 OA
ENDROOT
BRANCH   2  12
ATOM     12  C   UNL     1       2.463   4.948  19.260  0.00  0.00    +0.000 A 
ATOM     13  C   UNL     1       1.469   4.041  18.851  0.00  0.00    +0.000 A 
ATOM     14  C   UNL     1       1.793   2.698  18.681  0.00  0.00    +0.000 A 
ATOM     15  C   UNL     1       3.090   2.254  18.918  0.00  0.00    +0.000 A 
ATOM     16  C   UNL     1       4.068   3.144  19.340  0.00  0.00    +0.000 A 
ATOM     17  C   UNL     1       3.766   4.489  19.516  0.00  0.00    +0.000 A 
BRANCH  14  18
ATOM     18  O   UNL     1       0.876   1.778  18.252  0.00  0.00    +0.000 OA
ATOM     19  H   UNL     1       0.826   1.828  17.282  0.00  0.00    +0.000 HD
ENDBRANCH  14  18
BRANCH  15  20
ATOM     20  O   UNL     1       3.424   0.943  18.716  0.00  0.00    +0.000 OA
ATOM     21  H   UNL     1       2.964   0.703  17.885  0.00  0.00    +0.000 HD
ENDBRANCH  15  20
BRANCH  16  22
ATOM     22  O   UNL     1       5.343   2.706  19.554  0.00  0.00    +0.000 OA
ATOM     23  H   UNL     1       5.299   2.226  20.405  0.00  0.00    +0.000 HD
ENDBRANCH  16  22
ENDBRANCH   2  12
BRANCH   1  25
ATOM     24  C   UNL     1       4.509   6.944  17.058  0.00  0.00    +0.000 C 
ATOM     25  O   UNL     1       3.099   6.757  17.136  0.00  0.00    +0.000 OA
ENDBRANCH   1  25
BRANCH   6  26
ATOM     26  O   UNL     1      -0.011  10.031  23.507  0.00  0.00    +0.000 OA
ATOM     27  H   UNL     1      -0.948  10.266  23.405  0.00  0.00    +0.000 HD
ENDBRANCH   6  26
BRANCH   8  28
ATOM     28  O   UNL     1       1.402  11.359  19.129  0.00  0.00    +0.000 OA
BRANCH  28  29
ATOM     29  C   UNL     1       1.217  12.714  19.532  0.00  0.00    +0.000 C 
BRANCH  29  30
ATOM     30  C   UNL     1      -0.029  13.295  18.840  0.00  0.00    +0.000 C 
BRANCH  30  31
ATOM     31  N   UNL     1      -1.264  12.518  19.092  0.00  0.00    +0.000 NA
ATOM     32  C   UNL     1      -2.238  13.342  19.828  0.00  0.00    +0.000 C 
ATOM     33  C   UNL     1      -3.496  12.538  20.175  0.00  0.00    +0.000 C 
ATOM     34  C   UNL     1      -4.131  11.926  18.932  0.00  0.00    +0.000 C 
ATOM     35  C   UNL     1      -3.093  11.151  18.136  0.00  0.00    +0.000 C 
ATOM     36  C   UNL     1      -1.864  12.005  17.849  0.00  0.00    +0.000 C 
ENDBRANCH  30  31
ENDBRANCH  29  30
ENDBRANCH  28  29
ENDBRANCH   8  28
TORSDOF 10
ENDMDL
MODEL 7
REMARK VINA RESULT:      -7.9      2.548      3.911
REMARK  Name = 
REMARK  11 active torsions:
REMARK  status: ('A' for Active; 'I' for Inactive)
REMARK    1  A    between atoms: C_1  and  O_2
REMARK    2  A    between atoms: O_2  and  C_3
REMARK    3  A    between atoms: C_4  and  C_5
REMARK    4  A    between atoms: C_7  and  O_8
REMARK    5  A    between atoms: C_9  and  O_10
REMARK    6  A    between atoms: C_11  and  O_12
REMARK    7  A    between atoms: C_17  and  O_18
REMARK    8  A    between atoms: C_20  and  O_21
REMARK    9  A    between atoms: O_21  and  C_22
REMARK   10  A    between atoms: C_22  and  C_23
REMARK   11  A    between atoms: C_23  and  N_24
REMARK                            x       y       z     vdW  Elec       q    Type
REMARK                         _______ _______ _______ _____ _____    ______ ____
ROOT
ATOM      1  C   UNL     1       2.446   7.441  18.260  0.00  0.00    +0.000 A 
ATOM      2  C   UNL     1       2.256   6.601  19.293  0.00  0.00    +0.000 A 
ATOM      3  O   UNL     1       1.666   6.932  20.496  0.00  0.00    +0.000 OA
ATOM      4  C   UNL     1       1.287   8.227  20.711  0.00  0.00    +0.000 A 
ATOM      5  C   UNL     1       0.792   8.507  21.986  0.00  0.00    +0.000 A 
ATOM      6  C   UNL     1       0.379   9.797  22.277  0.00  0.00    +0.000 A 
ATOM      7  C   UNL     1       0.455  10.802  21.320  0.00  0.00    +0.000 A 
ATOM      8  C   UNL     1       0.961  10.528  20.041  0.00  0.00    +0.000 A 
ATOM      9  C   UNL     1       1.375   9.218  19.735  0.00  0.00    +0.000 A 
ATOM     10  C   UNL     1       1.926   8.842  18.412  0.00  0.00    +0.000 A 
ATOM     11  O   UNL     1       1.960   9.644  17.485  0.00  0.00    +0.000 OA
ENDROOT
BRANCH   2  12
ATOM     12  C   UNL     1       2.674   5.189  19.281  0.00  0.00    +0.000 A 
ATOM     13  C   UNL     1       1.739   4.179  18.992  0.00  0.00    +0.000 A 
ATOM     14  C   UNL     1       2.174   2.866  18.837  0.00  0.00    +0.000 A 
ATOM     15  C   UNL     1       3.522   2.553  18.972  0.00  0.00    +0.000 A 
ATOM     16  C   UNL     1       4.444   3.545  19.275  0.00  0.00    +0.000 A 
ATOM     17  C   UNL     1       4.033   4.863  19.434  0.00  0.00    +0.000 A 
BRANCH  14  18
ATOM     18  O   UNL     1       1.315   1.849  18.522  0.00  0.00    +0.000 OA
ATOM     19  H   UNL     1       1.168   1.316  19.323  0.00  0.00    +0.000 HD
ENDBRANCH  14  18
BRANCH  15  20
ATOM     20  O   UNL     1       3.961   1.270  18.783  0.00  0.00    +0.000 OA
ATOM     21  H   UNL     1       4.043   0.909  19.689  0.00  0.00    +0.000 HD
ENDBRANCH  15  20
BRANCH  16  22
ATOM     22  O   UNL     1       5.769   3.235  19.388  0.00  0.00    +0.000 OA
ATOM     23  H   UNL     1       6.065   3.080  18.468  0.00  0.00    +0.000 HD
ENDBRANCH  16  22
ENDBRANCH   2  12
BRANCH   1  25
ATOM     24  C   UNL     1       4.468   7.249  16.998  0.00  0.00    +0.000 C 
ATOM     25  O   UNL     1       3.069   6.996  17.097  0.00  0.00    +0.000 OA
ENDBRANCH   1  25
BRANCH   6  26
ATOM     26  O   UNL     1      -0.121  10.126  23.501  0.00  0.00    +0.000 OA
ATOM     27  H   UNL     1      -0.100  11.092  23.606  0.00  0.00    +0.000 HD
ENDBRANCH   6  26
BRANCH   8  28
ATOM     28  O   UNL     1       1.018  11.470  19.048  0.00  0.00    +0.000 OA
BRANCH  28  29
ATOM     29  C   UNL     1       1.713  12.676  19.358  0.00  0.00    +0.000 C 
BRANCH  29  30
ATOM     30  C   UNL     1       2.614  13.073  18.174  0.00  0.00    +0.000 C 
BRANCH  30  31
ATOM     31  N   UNL     1       3.022  14.496  18.189  0.00  0.00    +0.000 NA
ATOM     32  C   UNL     1       2.138  15.266  19.081  0.00  0.00    +0.000 C 
ATOM     33  C   UNL     1       2.485  16.758  19.055  0.00  0.00    +0.000 C 
ATOM     34  C   UNL     1       3.950  17.000  19.399  0.00  0.00    +0.000 C 
ATOM     35  C   UNL     1       4.847  16.134  18.529  0.00  0.00    +0.000 C 
ATOM     36  C   UNL     1       4.428  14.669  18.589  0.00  0.00    +0.000 C 
ENDBRANCH  30  31
ENDBRANCH  29  30
ENDBRANCH  28  29
ENDBRANCH   8  28
TORSDOF 10
ENDMDL
MODEL 8
REMARK VINA RESULT:      -7.9      1.248      2.069
REMARK  Name = 
REMARK  11 active torsions:
REMARK  status: ('A' for Active; 'I' for Inactive)
REMARK    1  A    between atoms: C_1  and  O_2
REMARK    2  A    between atoms: O_2  and  C_3
REMARK    3  A    between atoms: C_4  and  C_5
REMARK    4  A    between atoms: C_7  and  O_8
REMARK    5  A    between atoms: C_9  and  O_10
REMARK    6  A    between atoms: C_11  and  O_12
REMARK    7  A    between atoms: C_17  and  O_18
REMARK    8  A    between atoms: C_20  and  O_21
REMARK    9  A    between atoms: O_21  and  C_22
REMARK   10  A    between atoms: C_22  and  C_23
REMARK   11  A    between atoms: C_23  and  N_24
REMARK                            x       y       z     vdW  Elec       q    Type
REMARK                         _______ _______ _______ _____ _____    ______ ____
ROOT
ATOM      1  C   UNL     1       2.347   7.448  18.582  0.00  0.00    +0.000 A 
ATOM      2  C   UNL     1       2.208   6.751  19.723  0.00  0.00    +0.000 A 
ATOM      3  O   UNL     1       1.589   7.208  20.870  0.00  0.00    +0.000 OA
ATOM      4  C   UNL     1       1.123   8.491  20.902  0.00  0.00    +0.000 A 
ATOM      5  C   UNL     1       0.602   8.915  22.125  0.00  0.00    +0.000 A 
ATOM      6  C   UNL     1       0.101  10.201  22.234  0.00  0.00    +0.000 A 
ATOM      7  C   UNL     1       0.115  11.064  21.144  0.00  0.00    +0.000 A 
ATOM      8  C   UNL     1       0.646  10.648  19.916  0.00  0.00    +0.000 A 
ATOM      9  C   UNL     1       1.149   9.339  19.796  0.00  0.00    +0.000 A 
ATOM     10  C   UNL     1       1.733   8.818  18.537  0.00  0.00    +0.000 A 
ATOM     11  O   UNL     1       1.718   9.483  17.506  0.00  0.00    +0.000 OA
ENDROOT
BRANCH   2  12
ATOM     12  C   UNL     1       2.720   5.384  19.909  0.00  0.00    +0.000 A 
ATOM     13  C   UNL     1       3.923   4.991  19.296  0.00  0.00    +0.000 A 
ATOM     14  C   UNL     1       4.473   3.748  19.596  0.00  0.00    +0.000 A 
ATOM     15  C   UNL     1       3.836   2.897  20.492  0.00  0.00    +0.000 A 
ATOM     16  C   UNL     1       2.638   3.274  21.084  0.00  0.00    +0.000 A 
ATOM     17  C   UNL     1       2.071   4.510  20.798  0.00  0.00    +0.000 A 
BRANCH  14  18
ATOM     18  O   UNL     1       5.659   3.329  19.057  0.00  0.00    +0.000 OA
ATOM     19  H   UNL     1       6.190   4.116  18.843  0.00  0.00    +0.000 HD
ENDBRANCH  14  18
BRANCH  15  20
ATOM     20  O   UNL     1       4.391   1.690  20.821  0.00  0.00    +0.000 OA
ATOM     21  H   UNL     1       3.973   1.460  21.676  0.00  0.00    +0.000 HD
ENDBRANCH  15  20
BRANCH  16  22
ATOM     22  O   UNL     1       2.026   2.442  21.976  0.00  0.00    +0.000 OA
ATOM     23  H   UNL     1       1.551   3.041  22.586  0.00  0.00    +0.000 HD
ENDBRANCH  16  22
ENDBRANCH   2  12
BRANCH   1  25
ATOM     24  C   UNL     1       4.297   7.414  17.199  0.00  0.00    +0.000 C 
ATOM     25  O   UNL     1       3.006   6.888  17.491  0.00  0.00    +0.000 OA
ENDBRANCH   1  25
BRANCH   6  26
ATOM     26  O   UNL     1      -0.428  10.665  23.401  0.00  0.00    +0.000 OA
ATOM     27  H   UNL     1      -0.911   9.946  23.841  0.00  0.00    +0.000 HD
ENDBRANCH   6  26
BRANCH   8  28
ATOM     28  O   UNL     1       0.646  11.443  18.799  0.00  0.00    +0.000 OA
BRANCH  28  29
ATOM     29  C   UNL     1      -0.577  12.110  18.496  0.00  0.00    +0.000 C 
BRANCH  29  30
ATOM     30  C   UNL     1      -1.563  11.118  17.854  0.00  0.00    +0.000 C 
BRANCH  30  31
ATOM     31  N   UNL     1      -2.939  11.220  18.388  0.00  0.00    +0.000 NA
ATOM     32  C   UNL     1      -3.022  12.318  19.367  0.00  0.00    +0.000 C 
ATOM     33  C   UNL     1      -4.417  12.396  19.998  0.00  0.00    +0.000 C 
ATOM     34  C   UNL     1      -5.505  12.529  18.939  0.00  0.00    +0.000 C 
ATOM     35  C   UNL     1      -5.354  11.441  17.888  0.00  0.00    +0.000 C 
ATOM     36  C   UNL     1      -3.938  11.409  17.323  0.00  0.00    +0.000 C 
ENDBRANCH  30  31
ENDBRANCH  29  30
ENDBRANCH  28  29
ENDBRANCH   8  28
TORSDOF 10
ENDMDL
MODEL 9
REMARK VINA RESULT:      -7.9      1.691      2.332
REMARK  Name = 
REMARK  11 active torsions:
REMARK  status: ('A' for Active; 'I' for Inactive)
REMARK    1  A    between atoms: C_1  and  O_2
REMARK    2  A    between atoms: O_2  and  C_3
REMARK    3  A    between atoms: C_4  and  C_5
REMARK    4  A    between atoms: C_7  and  O_8
REMARK    5  A    between atoms: C_9  and  O_10
REMARK    6  A    between atoms: C_11  and  O_12
REMARK    7  A    between atoms: C_17  and  O_18
REMARK    8  A    between atoms: C_20  and  O_21
REMARK    9  A    between atoms: O_21  and  C_22
REMARK   10  A    between atoms: C_22  and  C_23
REMARK   11  A    between atoms: C_23  and  N_24
REMARK                            x       y       z     vdW  Elec       q    Type
REMARK                         _______ _______ _______ _____ _____    ______ ____
ROOT
ATOM      1  C   UNL     1       2.481   7.423  18.239  0.00  0.00    +0.000 A 
ATOM      2  C   UNL     1       2.272   6.577  19.264  0.00  0.00    +0.000 A 
ATOM      3  O   UNL     1       1.676   6.906  20.465  0.00  0.00    +0.000 OA
ATOM      4  C   UNL     1       1.314   8.204  20.689  0.00  0.00    +0.000 A 
ATOM      5  C   UNL     1       0.812   8.480  21.961  0.00  0.00    +0.000 A 
ATOM      6  C   UNL     1       0.414   9.773  22.260  0.00  0.00    +0.000 A 
ATOM      7  C   UNL     1       0.511  10.784  21.313  0.00  0.00    +0.000 A 
ATOM      8  C   UNL     1       1.023  10.515  20.036  0.00  0.00    +0.000 A 
ATOM      9  C   UNL     1       1.422   9.202  19.722  0.00  0.00    +0.000 A 
ATOM     10  C   UNL     1       1.979   8.830  18.400  0.00  0.00    +0.000 A 
ATOM     11  O   UNL     1       2.031   9.640  17.481  0.00  0.00    +0.000 OA
ENDROOT
BRANCH   2  12
ATOM     12  C   UNL     1       2.671   5.160  19.242  0.00  0.00    +0.000 A 
ATOM     13  C   UNL     1       1.719   4.163  18.961  0.00  0.00    +0.000 A 
ATOM     14  C   UNL     1       2.134   2.845  18.797  0.00  0.00    +0.000 A 
ATOM     15  C   UNL     1       3.480   2.514  18.916  0.00  0.00    +0.000 A 
ATOM     16  C   UNL     1       4.418   3.493  19.212  0.00  0.00    +0.000 A 
ATOM     17  C   UNL     1       4.026   4.815  19.380  0.00  0.00    +0.000 A 
BRANCH  14  18
ATOM     18  O   UNL     1       1.258   1.840  18.488  0.00  0.00    +0.000 OA
ATOM     19  H   UNL     1       0.613   1.766  19.213  0.00  0.00    +0.000 HD
ENDBRANCH  14  18
BRANCH  15  20
ATOM     20  O   UNL     1       3.899   1.226  18.718  0.00  0.00    +0.000 OA
ATOM     21  H   UNL     1       3.094   0.754  18.421  0.00  0.00    +0.000 HD
ENDBRANCH  15  20
BRANCH  16  22
ATOM     22  O   UNL     1       5.739   3.164  19.310  0.00  0.00    +0.000 OA
ATOM     23  H   UNL     1       5.783   2.539  20.061  0.00  0.00    +0.000 HD
ENDBRANCH  16  22
ENDBRANCH   2  12
BRANCH   1  25
ATOM     24  C   UNL     1       4.508   7.224  16.987  0.00  0.00    +0.000 C 
ATOM     25  O   UNL     1       3.108   6.981  17.078  0.00  0.00    +0.000 OA
ENDBRANCH   1  25
BRANCH   6  26
ATOM     26  O   UNL     1      -0.091  10.098  23.483  0.00  0.00    +0.000 OA
ATOM     27  H   UNL     1      -0.434   9.296  23.912  0.00  0.00    +0.000 HD
ENDBRANCH   6  26
BRANCH   8  28
ATOM     28  O   UNL     1       1.102  11.465  19.052  0.00  0.00    +0.000 OA
BRANCH  28  29
ATOM     29  C   UNL     1       0.911  12.818  19.459  0.00  0.00    +0.000 C 
BRANCH  29  30
ATOM     30  C   UNL     1      -0.355  13.385  18.793  0.00  0.00    +0.000 C 
BRANCH  30  31
ATOM     31  N   UNL     1      -1.452  13.667  19.747  0.00  0.00    +0.000 NA
ATOM     32  C   UNL     1      -2.360  12.510  19.831  0.00  0.00    +0.000 C 
ATOM     33  C   UNL     1      -3.550  12.803  20.750  0.00  0.00    +0.000 C 
ATOM     34  C   UNL     1      -3.094  13.238  22.138  0.00  0.00    +0.000 C 
ATOM     35  C   UNL     1      -2.092  14.376  22.032  0.00  0.00    +0.000 C 
ATOM     36  C   UNL     1      -0.950  14.021  21.085  0.00  0.00    +0.000 C 
ENDBRANCH  30  31
ENDBRANCH  29  30
ENDBRANCH  28  29
ENDBRANCH   8  28
TORSDOF 10
ENDMDL
