MODEL 1
REMARK VINA RESULT:      -7.8      0.000      0.000
REMARK  Name = 
REMARK  8 active torsions:
REMARK  status: ('A' for Active; 'I' for Inactive)
REMARK    1  A    between atoms: C_1  and  C_2
REMARK    2  A    between atoms: C_2  and  O_4
REMARK    3  A    between atoms: O_4  and  C_5
REMARK    4  A    between atoms: C_5  and  C_6
REMARK    5  A    between atoms: C_5  and  C_12
REMARK    6  A    between atoms: C_12  and  C_13
REMARK    7  A    between atoms: C_12  and  C_19
REMARK    8  A    between atoms: C_13  and  N_14
REMARK                            x       y       z     vdW  Elec       q    Type
REMARK                         _______ _______ _______ _____ _____    ______ ____
ROOT
ATOM      1  C   UNL     1       4.272   5.147  17.610  0.00  0.00    +0.000 C 
ENDROOT
BRANCH   1   2
ATOM      2  C   UNL     1       3.510   6.349  18.211  0.00  0.00    +0.000 A 
ATOM      3  C   UNL     1       2.937   6.326  19.493  0.00  0.00    +0.000 A 
ATOM      4  C   UNL     1       2.109   7.363  19.940  0.00  0.00    +0.000 A 
ATOM      5  C   UNL     1       1.861   8.454  19.118  0.00  0.00    +0.000 A 
ATOM      6 BR   UNL     1       0.675   9.811  19.688  0.00  0.00    +0.000 Br
ATOM      7  C   UNL     1       2.474   8.544  17.873  0.00  0.00    +0.000 A 
ATOM      8  C   UNL     1       3.311   7.510  17.435  0.00  0.00    +0.000 A 
ENDBRANCH   1   2
BRANCH   1   9
ATOM      9  C   UNL     1       5.723   5.458  17.092  0.00  0.00    +0.000 C 
BRANCH   9  10
ATOM     10  C   UNL     1       5.984   5.012  15.655  0.00  0.00    +0.000 A 
ATOM     11  C   UNL     1       5.049   4.239  14.944  0.00  0.00    +0.000 A 
ATOM     12  C   UNL     1       5.323   3.776  13.658  0.00  0.00    +0.000 A 
ATOM     13  C   UNL     1       6.542   4.067  13.064  0.00  0.00    +0.000 A 
ATOM     14  C   UNL     1       7.483   4.836  13.750  0.00  0.00    +0.000 A 
ATOM     15  C   UNL     1       7.204   5.313  15.035  0.00  0.00    +0.000 A 
ENDBRANCH   9  10
BRANCH   9  16
ATOM     16  O   UNL     1       6.699   4.843  17.960  0.00  0.00    +0.000 OA
BRANCH  16  18
ATOM     17  C   UNL     1       7.782   6.903  18.249  0.00  0.00    +0.000 C 
ATOM     18  C   UNL     1       7.269   5.653  18.894  0.00  0.00    +0.000 C 
ATOM     19  O   UNL     1       7.408   5.385  20.079  0.00  0.00    +0.000 OA
ENDBRANCH  16  18
ENDBRANCH   9  16
ENDBRANCH   1   9
BRANCH   1  20
ATOM     20  C   UNL     1       4.227   3.917  18.561  0.00  0.00    +0.000 C 
BRANCH  20  21
ATOM     21  N   UNL     1       2.944   3.261  18.704  0.00  0.00    +0.000 N 
ATOM     22  C   UNL     1       2.372   2.706  19.809  0.00  0.00    +0.000 A 
ATOM     23  C   UNL     1       1.194   2.178  19.343  0.00  0.00    +0.000 A 
ATOM     24  N   UNL     1       1.047   2.491  18.023  0.00  0.00    +0.000 NA
ATOM     25  N   UNL     1       2.106   3.197  17.652  0.00  0.00    +0.000 NA
ENDBRANCH  20  21
ENDBRANCH   1  20
TORSDOF 7
ENDMDL
MODEL 2
REMARK VINA RESULT:      -7.6      1.535      3.272
REMARK  Name = 
REMARK  8 active torsions:
REMARK  status: ('A' for Active; 'I' for Inactive)
REMARK    1  A    between atoms: C_1  and  C_2
REMARK    2  A    between atoms: C_2  and  O_4
REMARK    3  A    between atoms: O_4  and  C_5
REMARK    4  A    between atoms: C_5  and  C_6
REMARK    5  A    between atoms: C_5  and  C_12
REMARK    6  A    between atoms: C_12  and  C_13
REMARK    7  A    between atoms: C_12  and  C_19
REMARK    8  A    between atoms: C_13  and  N_14
REMARK                            x       y       z     vdW  Elec       q    Type
REMARK                         _______ _______ _______ _____ _____    ______ ____
ROOT
ATOM      1  C   UNL     1       4.309   4.436  16.909  0.00  0.00    +0.000 C 
ENDROOT
BRANCH   1   2
ATOM      2  C   UNL     1       3.736   5.503  17.869  0.00  0.00    +0.000 A 
ATOM      3  C   UNL     1       3.686   5.330  19.262  0.00  0.00    +0.000 A 
ATOM      4  C   UNL     1       3.008   6.236  20.085  0.00  0.00    +0.000 A 
ATOM      5  C   UNL     1       2.386   7.347  19.529  0.00  0.00    +0.000 A 
ATOM      6 BR   UNL     1       1.398   8.522  20.630  0.00  0.00    +0.000 Br
ATOM      7  C   UNL     1       2.482   7.588  18.163  0.00  0.00    +0.000 A 
ATOM      8  C   UNL     1       3.172   6.686  17.344  0.00  0.00    +0.000 A 
ENDBRANCH   1   2
BRANCH   1   9
ATOM      9  C   UNL     1       5.753   4.728  16.361  0.00  0.00    +0.000 C 
BRANCH   9  10
ATOM     10  C   UNL     1       6.587   5.647  17.251  0.00  0.00    +0.000 A 
ATOM     11  C   UNL     1       6.788   7.000  16.926  0.00  0.00    +0.000 A 
ATOM     12  C   UNL     1       7.608   7.815  17.705  0.00  0.00    +0.000 A 
ATOM     13  C   UNL     1       8.252   7.289  18.816  0.00  0.00    +0.000 A 
ATOM     14  C   UNL     1       8.064   5.949  19.157  0.00  0.00    +0.000 A 
ATOM     15  C   UNL     1       7.231   5.134  18.385  0.00  0.00    +0.000 A 
ENDBRANCH   9  10
BRANCH   9  16
ATOM     16  O   UNL     1       5.672   5.300  15.038  0.00  0.00    +0.000 OA
BRANCH  16  18
ATOM     17  C   UNL     1       6.101   3.730  13.350  0.00  0.00    +0.000 C 
ATOM     18  C   UNL     1       6.615   4.890  14.146  0.00  0.00    +0.000 C 
ATOM     19  O   UNL     1       7.743   5.348  14.042  0.00  0.00    +0.000 OA
ENDBRANCH  16  18
ENDBRANCH   9  16
ENDBRANCH   1   9
BRANCH   1  20
ATOM     20  C   UNL     1       4.173   3.007  17.508  0.00  0.00    +0.000 C 
BRANCH  20  21
ATOM     21  N   UNL     1       2.908   2.692  18.139  0.00  0.00    +0.000 N 
ATOM     22  C   UNL     1       2.661   2.175  19.374  0.00  0.00    +0.000 A 
ATOM     23  C   UNL     1       1.297   2.028  19.405  0.00  0.00    +0.000 A 
ATOM     24  N   UNL     1       0.761   2.522  18.252  0.00  0.00    +0.000 NA
ATOM     25  N   UNL     1       1.756   2.971  17.500  0.00  0.00    +0.000 NA
ENDBRANCH  20  21
ENDBRANCH   1  20
TORSDOF 7
ENDMDL
MODEL 3
REMARK VINA RESULT:      -7.6      1.490      3.289
REMARK  Name = 
REMARK  8 active torsions:
REMARK  status: ('A' for Active; 'I' for Inactive)
REMARK    1  A    between atoms: C_1  and  C_2
REMARK    2  A    between atoms: C_2  and  O_4
REMARK    3  A    between atoms: O_4  and  C_5
REMARK    4  A    between atoms: C_5  and  C_6
REMARK    5  A    between atoms: C_5  and  C_12
REMARK    6  A    between atoms: C_12  and  C_13
REMARK    7  A    between atoms: C_12  and  C_19
REMARK    8  A    between atoms: C_13  and  N_14
REMARK                            x       y       z     vdW  Elec       q    Type
REMARK                         _______ _______ _______ _____ _____    ______ ____
ROOT
ATOM      1  C   UNL     1       4.310   4.691  17.389  0.00  0.00    +0.000 C 
ENDROOT
BRANCH   1   2
ATOM      2  C   UNL     1       3.641   5.954  17.976  0.00  0.00    +0.000 A 
ATOM      3  C   UNL     1       3.190   6.032  19.303  0.00  0.00    +0.000 A 
ATOM      4  C   UNL     1       2.437   7.123  19.754  0.00  0.00    +0.000 A 
ATOM      5  C   UNL     1       2.142   8.167  18.887  0.00  0.00    +0.000 A 
ATOM      6 BR   UNL     1       1.053   9.596  19.471  0.00  0.00    +0.000 Br
ATOM      7  C   UNL     1       2.638   8.156  17.588  0.00  0.00    +0.000 A 
ATOM      8  C   UNL     1       3.402   7.069  17.145  0.00  0.00    +0.000 A 
ENDBRANCH   1   2
BRANCH   1   9
ATOM      9  C   UNL     1       5.716   4.919  16.725  0.00  0.00    +0.000 C 
BRANCH   9  10
ATOM     10  C   UNL     1       6.611   5.901  17.477  0.00  0.00    +0.000 A 
ATOM     11  C   UNL     1       6.821   7.211  17.010  0.00  0.00    +0.000 A 
ATOM     12  C   UNL     1       7.694   8.078  17.662  0.00  0.00    +0.000 A 
ATOM     13  C   UNL     1       8.386   7.649  18.786  0.00  0.00    +0.000 A 
ATOM     14  C   UNL     1       8.191   6.354  19.268  0.00  0.00    +0.000 A 
ATOM     15  C   UNL     1       7.304   5.486  18.623  0.00  0.00    +0.000 A 
ENDBRANCH   9  10
BRANCH   9  16
ATOM     16  O   UNL     1       5.551   5.377  15.366  0.00  0.00    +0.000 OA
BRANCH  16  18
ATOM     17  C   UNL     1       5.808   3.799  13.652  0.00  0.00    +0.000 C 
ATOM     18  C   UNL     1       6.439   4.893  14.455  0.00  0.00    +0.000 C 
ATOM     19  O   UNL     1       7.604   5.244  14.341  0.00  0.00    +0.000 OA
ENDBRANCH  16  18
ENDBRANCH   9  16
ENDBRANCH   1   9
BRANCH   1  20
ATOM     20  C   UNL     1       4.316   3.525  18.418  0.00  0.00    +0.000 C 
BRANCH  20  21
ATOM     21  N   UNL     1       3.026   2.963  18.762  0.00  0.00    +0.000 N 
ATOM     22  C   UNL     1       1.980   2.636  17.954  0.00  0.00    +0.000 A 
ATOM     23  C   UNL     1       1.008   2.212  18.824  0.00  0.00    +0.000 A 
ATOM     24  N   UNL     1       1.504   2.216  20.095  0.00  0.00    +0.000 NA
ATOM     25  N   UNL     1       2.761   2.634  20.040  0.00  0.00    +0.000 NA
ENDBRANCH  20  21
ENDBRANCH   1  20
TORSDOF 7
ENDMDL
MODEL 4
REMARK VINA RESULT:      -7.5      1.199      1.418
REMARK  Name = 
REMARK  8 active torsions:
REMARK  status: ('A' for Active; 'I' for Inactive)
REMARK    1  A    between atoms: C_1  and  C_2
REMARK    2  A    between atoms: C_2  and  O_4
REMARK    3  A    between atoms: O_4  and  C_5
REMARK    4  A    between atoms: C_5  and  C_6
REMARK    5  A    between atoms: C_5  and  C_12
REMARK    6  A    between atoms: C_12  and  C_13
REMARK    7  A    between atoms: C_12  and  C_19
REMARK    8  A    between atoms: C_13  and  N_14
REMARK                            x       y       z     vdW  Elec       q    Type
REMARK                         _______ _______ _______ _____ _____    ______ ____
ROOT
ATOM      1  C   UNL     1       3.535   5.901  18.358  0.00  0.00    +0.000 C 
ENDROOT
BRANCH   1   2
ATOM      2  C   UNL     1       2.800   7.225  18.666  0.00  0.00    +0.000 A 
ATOM      3  C   UNL     1       2.136   7.465  19.879  0.00  0.00    +0.000 A 
ATOM      4  C   UNL     1       1.338   8.601  20.060  0.00  0.00    +0.000 A 
ATOM      5  C   UNL     1       1.211   9.529  19.035  0.00  0.00    +0.000 A 
ATOM      6 BR   UNL     1       0.065  11.016  19.250  0.00  0.00    +0.000 Br
ATOM      7  C   UNL     1       1.916   9.359  17.849  0.00  0.00    +0.000 A 
ATOM      8  C   UNL     1       2.723   8.228  17.677  0.00  0.00    +0.000 A 
ENDBRANCH   1   2
BRANCH   1   9
ATOM      9  C   UNL     1       5.022   6.051  17.872  0.00  0.00    +0.000 C 
BRANCH   9  10
ATOM     10  C   UNL     1       5.341   5.289  16.588  0.00  0.00    +0.000 A 
ATOM     11  C   UNL     1       5.156   3.898  16.494  0.00  0.00    +0.000 A 
ATOM     12  C   UNL     1       5.516   3.198  15.344  0.00  0.00    +0.000 A 
ATOM     13  C   UNL     1       6.079   3.873  14.271  0.00  0.00    +0.000 A 
ATOM     14  C   UNL     1       6.270   5.253  14.342  0.00  0.00    +0.000 A 
ATOM     15  C   UNL     1       5.896   5.960  15.490  0.00  0.00    +0.000 A 
ENDBRANCH   9  10
BRANCH   9  16
ATOM     16  O   UNL     1       5.926   5.623  18.912  0.00  0.00    +0.000 OA
BRANCH  16  18
ATOM     17  C   UNL     1       7.759   6.986  18.382  0.00  0.00    +0.000 C 
ATOM     18  C   UNL     1       7.248   5.594  18.587  0.00  0.00    +0.000 C 
ATOM     19  O   UNL     1       7.917   4.585  18.418  0.00  0.00    +0.000 OA
ENDBRANCH  16  18
ENDBRANCH   9  16
ENDBRANCH   1   9
BRANCH   1  20
ATOM     20  C   UNL     1       3.387   4.888  19.529  0.00  0.00    +0.000 C 
BRANCH  20  21
ATOM     21  N   UNL     1       2.479   3.782  19.313  0.00  0.00    +0.000 N 
ATOM     22  C   UNL     1       1.379   3.707  18.514  0.00  0.00    +0.000 A 
ATOM     23  C   UNL     1       0.877   2.453  18.756  0.00  0.00    +0.000 A 
ATOM     24  N   UNL     1       1.710   1.788  19.608  0.00  0.00    +0.000 NA
ATOM     25  N   UNL     1       2.716   2.597  19.907  0.00  0.00    +0.000 NA
ENDBRANCH  20  21
ENDBRANCH   1  20
TORSDOF 7
ENDMDL
MODEL 5
REMARK VINA RESULT:      -7.4      1.338      1.854
REMARK  Name = 
REMARK  8 active torsions:
REMARK  status: ('A' for Active; 'I' for Inactive)
REMARK    1  A    between atoms: C_1  and  C_2
REMARK    2  A    between atoms: C_2  and  O_4
REMARK    3  A    between atoms: O_4  and  C_5
REMARK    4  A    between atoms: C_5  and  C_6
REMARK    5  A    between atoms: C_5  and  C_12
REMARK    6  A    between atoms: C_12  and  C_13
REMARK    7  A    between atoms: C_12  and  C_19
REMARK    8  A    between atoms: C_13  and  N_14
REMARK                            x       y       z     vdW  Elec       q    Type
REMARK                         _______ _______ _______ _____ _____    ______ ____
ROOT
ATOM      1  C   UNL     1       3.776   5.450  18.737  0.00  0.00    +0.000 C 
ENDROOT
BRANCH   1   2
ATOM      2  C   UNL     1       2.924   6.739  18.763  0.00  0.00    +0.000 A 
ATOM      3  C   UNL     1       2.858   7.634  17.683  0.00  0.00    +0.000 A 
ATOM      4  C   UNL     1       2.217   8.872  17.801  0.00  0.00    +0.000 A 
ATOM      5  C   UNL     1       1.608   9.226  18.998  0.00  0.00    +0.000 A 
ATOM      6 BR   UNL     1       0.819  10.933  19.183  0.00  0.00    +0.000 Br
ATOM      7  C   UNL     1       1.589   8.331  20.062  0.00  0.00    +0.000 A 
ATOM      8  C   UNL     1       2.221   7.088  19.936  0.00  0.00    +0.000 A 
ENDBRANCH   1   2
BRANCH   1   9
ATOM      9  C   UNL     1       5.239   5.620  18.187  0.00  0.00    +0.000 C 
BRANCH   9  10
ATOM     10  C   UNL     1       5.422   5.159  16.743  0.00  0.00    +0.000 A 
ATOM     11  C   UNL     1       5.794   3.839  16.434  0.00  0.00    +0.000 A 
ATOM     12  C   UNL     1       6.029   3.444  15.119  0.00  0.00    +0.000 A 
ATOM     13  C   UNL     1       5.908   4.364  14.088  0.00  0.00    +0.000 A 
ATOM     14  C   UNL     1       5.537   5.679  14.371  0.00  0.00    +0.000 A 
ATOM     15  C   UNL     1       5.288   6.074  15.689  0.00  0.00    +0.000 A 
ENDBRANCH   9  10
BRANCH   9  16
ATOM     16  O   UNL     1       6.168   4.907  19.031  0.00  0.00    +0.000 OA
BRANCH  16  18
ATOM     17  C   UNL     1       7.686   6.580  18.401  0.00  0.00    +0.000 C 
ATOM     18  C   UNL     1       7.256   5.608  19.455  0.00  0.00    +0.000 C 
ATOM     19  O   UNL     1       7.845   5.435  20.512  0.00  0.00    +0.000 OA
ENDBRANCH  16  18
ENDBRANCH   9  16
ENDBRANCH   1   9
BRANCH   1  20
ATOM     20  C   UNL     1       3.733   4.717  20.108  0.00  0.00    +0.000 C 
BRANCH  20  21
ATOM     21  N   UNL     1       2.655   3.769  20.298  0.00  0.00    +0.000 N 
ATOM     22  C   UNL     1       1.971   3.039  19.374  0.00  0.00    +0.000 A 
ATOM     23  C   UNL     1       1.027   2.370  20.113  0.00  0.00    +0.000 A 
ATOM     24  N   UNL     1       1.212   2.641  21.437  0.00  0.00    +0.000 NA
ATOM     25  N   UNL     1       2.245   3.464  21.543  0.00  0.00    +0.000 NA
ENDBRANCH  20  21
ENDBRANCH   1  20
TORSDOF 7
ENDMDL
MODEL 6
REMARK VINA RESULT:      -7.4      1.064      1.454
REMARK  Name = 
REMARK  8 active torsions:
REMARK  status: ('A' for Active; 'I' for Inactive)
REMARK    1  A    between atoms: C_1  and  C_2
REMARK    2  A    between atoms: C_2  and  O_4
REMARK    3  A    between atoms: O_4  and  C_5
REMARK    4  A    between atoms: C_5  and  C_6
REMARK    5  A    between atoms: C_5  and  C_12
REMARK    6  A    between atoms: C_12  and  C_13
REMARK    7  A    between atoms: C_12  and  C_19
REMARK    8  A    between atoms: C_13  and  N_14
REMARK                            x       y       z     vdW  Elec       q    Type
REMARK                         _______ _______ _______ _____ _____    ______ ____
ROOT
ATOM      1  C   UNL     1       3.566   5.891  18.340  0.00  0.00    +0.000 C 
ENDROOT
BRANCH   1   2
ATOM      2  C   UNL     1       2.819   7.207  18.654  0.00  0.00    +0.000 A 
ATOM      3  C   UNL     1       2.177   7.446  19.880  0.00  0.00    +0.000 A 
ATOM      4  C   UNL     1       1.367   8.572  20.070  0.00  0.00    +0.000 A 
ATOM      5  C   UNL     1       1.206   9.492  19.041  0.00  0.00    +0.000 A 
ATOM      6 BR   UNL     1       0.044  10.964  19.270  0.00  0.00    +0.000 Br
ATOM      7  C   UNL     1       1.889   9.323  17.842  0.00  0.00    +0.000 A 
ATOM      8  C   UNL     1       2.708   8.202  17.661  0.00  0.00    +0.000 A 
ENDBRANCH   1   2
BRANCH   1   9
ATOM      9  C   UNL     1       5.064   6.055  17.894  0.00  0.00    +0.000 C 
BRANCH   9  10
ATOM     10  C   UNL     1       5.426   5.292  16.622  0.00  0.00    +0.000 A 
ATOM     11  C   UNL     1       5.851   5.961  15.460  0.00  0.00    +0.000 A 
ATOM     12  C   UNL     1       6.112   5.265  14.281  0.00  0.00    +0.000 A 
ATOM     13  C   UNL     1       5.939   3.889  14.237  0.00  0.00    +0.000 A 
ATOM     14  C   UNL     1       5.520   3.205  15.379  0.00  0.00    +0.000 A 
ATOM     15  C   UNL     1       5.272   3.900  16.567  0.00  0.00    +0.000 A 
ENDBRANCH   9  10
BRANCH   9  16
ATOM     16  O   UNL     1       5.944   5.638  18.960  0.00  0.00    +0.000 OA
BRANCH  16  18
ATOM     17  C   UNL     1       7.748   7.014  18.367  0.00  0.00    +0.000 C 
ATOM     18  C   UNL     1       7.275   5.627  18.672  0.00  0.00    +0.000 C 
ATOM     19  O   UNL     1       7.979   4.630  18.605  0.00  0.00    +0.000 OA
ENDBRANCH  16  18
ENDBRANCH   9  16
ENDBRANCH   1   9
BRANCH   1  20
ATOM     20  C   UNL     1       3.393   4.856  19.488  0.00  0.00    +0.000 C 
BRANCH  20  21
ATOM     21  N   UNL     1       2.297   3.920  19.351  0.00  0.00    +0.000 N 
ATOM     22  C   UNL     1       1.414   3.475  20.288  0.00  0.00    +0.000 A 
ATOM     23  C   UNL     1       0.646   2.560  19.612  0.00  0.00    +0.000 A 
ATOM     24  N   UNL     1       1.019   2.535  18.300  0.00  0.00    +0.000 NA
ATOM     25  N   UNL     1       2.002   3.409  18.140  0.00  0.00    +0.000 NA
ENDBRANCH  20  21
ENDBRANCH   1  20
TORSDOF 7
ENDMDL
MODEL 7
REMARK VINA RESULT:      -7.4      1.427      3.192
REMARK  Name = 
REMARK  8 active torsions:
REMARK  status: ('A' for Active; 'I' for Inactive)
REMARK    1  A    between atoms: C_1  and  C_2
REMARK    2  A    between atoms: C_2  and  O_4
REMARK    3  A    between atoms: O_4  and  C_5
REMARK    4  A    between atoms: C_5  and  C_6
REMARK    5  A    between atoms: C_5  and  C_12
REMARK    6  A    between atoms: C_12  and  C_13
REMARK    7  A    between atoms: C_12  and  C_19
REMARK    8  A    between atoms: C_13  and  N_14
REMARK                            x       y       z     vdW  Elec       q    Type
REMARK                         _______ _______ _______ _____ _____    ______ ____
ROOT
ATOM      1  C   UNL     1       4.315   4.580  17.152  0.00  0.00    +0.000 C 
ENDROOT
BRANCH   1   2
ATOM      2  C   UNL     1       3.700   5.837  17.807  0.00  0.00    +0.000 A 
ATOM      3  C   UNL     1       3.310   5.882  19.156  0.00  0.00    +0.000 A 
ATOM      4  C   UNL     1       2.601   6.973  19.673  0.00  0.00    +0.000 A 
ATOM      5  C   UNL     1       2.291   8.050  18.853  0.00  0.00    +0.000 A 
ATOM      6 BR   UNL     1       1.260   9.481  19.529  0.00  0.00    +0.000 Br
ATOM      7  C   UNL     1       2.729   8.070  17.533  0.00  0.00    +0.000 A 
ATOM      8  C   UNL     1       3.448   6.983  17.023  0.00  0.00    +0.000 A 
ENDBRANCH   1   2
BRANCH   1   9
ATOM      9  C   UNL     1       5.727   4.784  16.495  0.00  0.00    +0.000 C 
BRANCH   9  10
ATOM     10  C   UNL     1       6.667   5.682  17.297  0.00  0.00    +0.000 A 
ATOM     11  C   UNL     1       7.277   5.234  18.483  0.00  0.00    +0.000 A 
ATOM     12  C   UNL     1       8.077   6.081  19.248  0.00  0.00    +0.000 A 
ATOM     13  C   UNL     1       8.271   7.396  18.849  0.00  0.00    +0.000 A 
ATOM     14  C   UNL     1       7.677   7.860  17.674  0.00  0.00    +0.000 A 
ATOM     15  C   UNL     1       6.886   7.007  16.898  0.00  0.00    +0.000 A 
ENDBRANCH   9  10
BRANCH   9  16
ATOM     16  O   UNL     1       5.580   5.326  15.165  0.00  0.00    +0.000 OA
BRANCH  16  18
ATOM     17  C   UNL     1       5.916   3.736  13.475  0.00  0.00    +0.000 C 
ATOM     18  C   UNL     1       6.478   4.896  14.236  0.00  0.00    +0.000 C 
ATOM     19  O   UNL     1       7.606   5.339  14.080  0.00  0.00    +0.000 OA
ENDBRANCH  16  18
ENDBRANCH   9  16
ENDBRANCH   1   9
BRANCH   1  20
ATOM     20  C   UNL     1       4.274   3.362  18.119  0.00  0.00    +0.000 C 
BRANCH  20  21
ATOM     21  N   UNL     1       2.960   2.900  18.516  0.00  0.00    +0.000 N 
ATOM     22  C   UNL     1       2.512   2.513  19.743  0.00  0.00    +0.000 A 
ATOM     23  C   UNL     1       1.218   2.117  19.513  0.00  0.00    +0.000 A 
ATOM     24  N   UNL     1       0.899   2.345  18.207  0.00  0.00    +0.000 NA
ATOM     25  N   UNL     1       1.962   2.870  17.614  0.00  0.00    +0.000 NA
ENDBRANCH  20  21
ENDBRANCH   1  20
TORSDOF 7
ENDMDL
MODEL 8
REMARK VINA RESULT:      -7.4      1.014      1.202
REMARK  Name = 
REMARK  8 active torsions:
REMARK  status: ('A' for Active; 'I' for Inactive)
REMARK    1  A    between atoms: C_1  and  C_2
REMARK    2  A    between atoms: C_2  and  O_4
REMARK    3  A    between atoms: O_4  and  C_5
REMARK    4  A    between atoms: C_5  and  C_6
REMARK    5  A    between atoms: C_5  and  C_12
REMARK    6  A    between atoms: C_12  and  C_13
REMARK    7  A    between atoms: C_12  and  C_19
REMARK    8  A    between atoms: C_13  and  N_14
REMARK                            x       y       z     vdW  Elec       q    Type
REMARK                         _______ _______ _______ _____ _____    ______ ____
ROOT
ATOM      1  C   UNL     1       4.509   5.179  17.129  0.00  0.00    +0.000 C 
ENDROOT
BRANCH   1   2
ATOM      2  C   UNL     1       3.728   6.291  17.865  0.00  0.00    +0.000 A 
ATOM      3  C   UNL     1       3.183   6.120  19.149  0.00  0.00    +0.000 A 
ATOM      4  C   UNL     1       2.339   7.081  19.715  0.00  0.00    +0.000 A 
ATOM      5  C   UNL     1       2.043   8.244  19.015  0.00  0.00    +0.000 A 
ATOM      6 BR   UNL     1       0.834   9.500  19.745  0.00  0.00    +0.000 Br
ATOM      7  C   UNL     1       2.626   8.478  17.775  0.00  0.00    +0.000 A 
ATOM      8  C   UNL     1       3.481   7.520  17.217  0.00  0.00    +0.000 A 
ENDBRANCH   1   2
BRANCH   1   9
ATOM      9  C   UNL     1       5.830   5.642  16.416  0.00  0.00    +0.000 C 
BRANCH   9  10
ATOM     10  C   UNL     1       6.030   5.050  15.022  0.00  0.00    +0.000 A 
ATOM     11  C   UNL     1       5.052   4.238  14.422  0.00  0.00    +0.000 A 
ATOM     12  C   UNL     1       5.270   3.644  13.180  0.00  0.00    +0.000 A 
ATOM     13  C   UNL     1       6.475   3.840  12.521  0.00  0.00    +0.000 A 
ATOM     14  C   UNL     1       7.458   4.645  13.098  0.00  0.00    +0.000 A 
ATOM     15  C   UNL     1       7.236   5.253  14.337  0.00  0.00    +0.000 A 
ENDBRANCH   9  10
BRANCH   9  16
ATOM     16  O   UNL     1       6.973   5.315  17.235  0.00  0.00    +0.000 OA
BRANCH  16  18
ATOM     17  C   UNL     1       7.843   5.847  19.346  0.00  0.00    +0.000 C 
ATOM     18  C   UNL     1       7.496   6.332  17.973  0.00  0.00    +0.000 C 
ATOM     19  O   UNL     1       7.611   7.492  17.605  0.00  0.00    +0.000 OA
ENDBRANCH  16  18
ENDBRANCH   9  16
ENDBRANCH   1   9
BRANCH   1  20
ATOM     20  C   UNL     1       4.724   3.940  18.044  0.00  0.00    +0.000 C 
BRANCH  20  21
ATOM     21  N   UNL     1       3.544   3.166  18.368  0.00  0.00    +0.000 N 
ATOM     22  C   UNL     1       2.515   2.778  17.565  0.00  0.00    +0.000 A 
ATOM     23  C   UNL     1       1.655   2.131  18.417  0.00  0.00    +0.000 A 
ATOM     24  N   UNL     1       2.209   2.073  19.662  0.00  0.00    +0.000 NA
ATOM     25  N   UNL     1       3.391   2.671  19.610  0.00  0.00    +0.000 NA
ENDBRANCH  20  21
ENDBRANCH   1  20
TORSDOF 7
ENDMDL
MODEL 9
REMARK VINA RESULT:      -7.3      0.753      1.271
REMARK  Name = 
REMARK  8 active torsions:
REMARK  status: ('A' for Active; 'I' for Inactive)
REMARK    1  A    between atoms: C_1  and  C_2
REMARK    2  A    between atoms: C_2  and  O_4
REMARK    3  A    between atoms: O_4  and  C_5
REMARK    4  A    between atoms: C_5  and  C_6
REMARK    5  A    between atoms: C_5  and  C_12
REMARK    6  A    between atoms: C_12  and  C_13
REMARK    7  A    between atoms: C_12  and  C_19
REMARK    8  A    between atoms: C_13  and  N_14
REMARK                            x       y       z     vdW  Elec       q    Type
REMARK                         _______ _______ _______ _____ _____    ______ ____
ROOT
ATOM      1  C   UNL     1       4.191   5.246  18.038  0.00  0.00    +0.000 C 
ENDROOT
BRANCH   1   2
ATOM      2  C   UNL     1       3.454   6.555  18.403  0.00  0.00    +0.000 A 
ATOM      3  C   UNL     1       2.722   6.713  19.591  0.00  0.00    +0.000 A 
ATOM      4  C   UNL     1       1.928   7.845  19.811  0.00  0.00    +0.000 A 
ATOM      5  C   UNL     1       1.872   8.850  18.854  0.00  0.00    +0.000 A 
ATOM      6 BR   UNL     1       0.733  10.335  19.114  0.00  0.00    +0.000 Br
ATOM      7  C   UNL     1       2.645   8.758  17.701  0.00  0.00    +0.000 A 
ATOM      8  C   UNL     1       3.447   7.631  17.491  0.00  0.00    +0.000 A 
ENDBRANCH   1   2
BRANCH   1   9
ATOM      9  C   UNL     1       5.681   5.418  17.570  0.00  0.00    +0.000 C 
BRANCH   9  10
ATOM     10  C   UNL     1       5.956   4.909  16.157  0.00  0.00    +0.000 A 
ATOM     11  C   UNL     1       7.184   5.151  15.515  0.00  0.00    +0.000 A 
ATOM     12  C   UNL     1       7.402   4.746  14.199  0.00  0.00    +0.000 A 
ATOM     13  C   UNL     1       6.393   4.103  13.496  0.00  0.00    +0.000 A 
ATOM     14  C   UNL     1       5.168   3.852  14.115  0.00  0.00    +0.000 A 
ATOM     15  C   UNL     1       4.952   4.245  15.439  0.00  0.00    +0.000 A 
ENDBRANCH   9  10
BRANCH   9  16
ATOM     16  O   UNL     1       6.567   4.749  18.492  0.00  0.00    +0.000 OA
BRANCH  16  18
ATOM     17  C   UNL     1       7.686   6.809  18.467  0.00  0.00    +0.000 C 
ATOM     18  C   UNL     1       7.395   5.549  19.220  0.00  0.00    +0.000 C 
ATOM     19  O   UNL     1       7.888   5.265  20.302  0.00  0.00    +0.000 OA
ENDBRANCH  16  18
ENDBRANCH   9  16
ENDBRANCH   1   9
BRANCH   1  20
ATOM     20  C   UNL     1       4.034   4.179  19.159  0.00  0.00    +0.000 C 
BRANCH  20  21
ATOM     21  N   UNL     1       2.904   3.282  19.042  0.00  0.00    +0.000 N 
ATOM     22  C   UNL     1       1.693   3.487  18.453  0.00  0.00    +0.000 A 
ATOM     23  C   UNL     1       1.003   2.326  18.701  0.00  0.00    +0.000 A 
ATOM     24  N   UNL     1       1.819   1.442  19.344  0.00  0.00    +0.000 NA
ATOM     25  N   UNL     1       3.000   2.022  19.506  0.00  0.00    +0.000 NA
ENDBRANCH  20  21
ENDBRANCH   1  20
TORSDOF 7
ENDMDL
