MODEL 1
REMARK VINA RESULT:      -8.0      0.000      0.000
REMARK  Name = 
REMARK  6 active torsions:
REMARK  status: ('A' for Active; 'I' for Inactive)
REMARK    1  A    between atoms: C_2  and  C_14
REMARK    2  A    between atoms: N_3  and  C_4
REMARK    3  A    between atoms: C_4  and  C_5
REMARK    4  A    between atoms: C_5  and  C_6
REMARK    5  A    between atoms: C_6  and  O_8
REMARK    6  A    between atoms: C_16  and  C_17
REMARK                            x       y       z     vdW  Elec       q    Type
REMARK                         _______ _______ _______ _____ _____    ______ ____
ROOT
ATOM      1  O   UNL     1       2.545   8.768  17.358  0.00  0.00    +0.000 OA
ATOM      2  C   UNL     1       1.911   8.442  18.352  0.00  0.00    +0.000 C 
ATOM      3  N   UNL     1       2.154   7.258  19.031  0.00  0.00    +0.000 N 
ATOM      4  H   UNL     1       1.532   6.978  19.780  0.00  0.00    +0.000 HD
ENDROOT
BRANCH   2   5
ATOM      5  C   UNL     1       0.829   9.312  18.905  0.00  0.00    +0.000 A 
ATOM      6  C   UNL     1      -0.019   9.959  17.997  0.00  0.00    +0.000 A 
ATOM      7  C   UNL     1      -1.045  10.760  18.468  0.00  0.00    +0.000 A 
ATOM      8  N   UNL     1      -1.247  10.911  19.797  0.00  0.00    +0.000 NA
ATOM      9  C   UNL     1      -0.458  10.278  20.681  0.00  0.00    +0.000 A 
ATOM     10  C   UNL     1      -0.734  10.458  22.031  0.00  0.00    +0.000 A 
ATOM     11  C   UNL     1       0.030   9.858  23.032  0.00  0.00    +0.000 A 
ATOM     12  C   UNL     1       1.104   9.059  22.680  0.00  0.00    +0.000 A 
ATOM     13  C   UNL     1       1.401   8.864  21.331  0.00  0.00    +0.000 A 
ATOM     14  C   UNL     1       0.619   9.457  20.301  0.00  0.00    +0.000 A 
BRANCH   7  15
ATOM     15  C   UNL     1      -1.946  11.516  17.522  0.00  0.00    +0.000 C 
ATOM     16  C   UNL     1      -2.524  10.864  16.287  0.00  0.00    +0.000 C 
ATOM     17  C   UNL     1      -3.413  11.155  17.457  0.00  0.00    +0.000 C 
ENDBRANCH   7  15
ENDBRANCH   2   5
BRANCH   3  18
ATOM     18  C   UNL     1       3.159   6.313  18.575  0.00  0.00    +0.000 C 
BRANCH  18  19
ATOM     19  C   UNL     1       2.887   4.840  18.967  0.00  0.00    +0.000 C 
ATOM     20  C   UNL     1       4.217   4.137  19.335  0.00  0.00    +0.000 C 
ATOM     21  C   UNL     1       4.080   2.619  19.393  0.00  0.00    +0.000 C 
ATOM     22  O   UNL     1       3.559   2.123  18.163  0.00  0.00    +0.000 OA
ATOM     23  C   UNL     1       2.246   2.599  17.905  0.00  0.00    +0.000 C 
ATOM     24  C   UNL     1       2.247   4.115  17.758  0.00  0.00    +0.000 C 
BRANCH  19  25
ATOM     25  C   UNL     1       1.941   4.816  20.173  0.00  0.00    +0.000 C 
ATOM     26  O   UNL     1       0.794   4.400  20.141  0.00  0.00    +0.000 OA
BRANCH  25  27
ATOM     27  O   UNL     1       2.474   5.262  21.334  0.00  0.00    +0.000 OA
ATOM     28  H   UNL     1       3.442   5.208  21.429  0.00  0.00    +0.000 HD
ENDBRANCH  25  27
ENDBRANCH  19  25
ENDBRANCH  18  19
ENDBRANCH   3  18
TORSDOF 6
ENDMDL
MODEL 2
REMARK VINA RESULT:      -7.8      0.872      1.905
REMARK  Name = 
REMARK  6 active torsions:
REMARK  status: ('A' for Active; 'I' for Inactive)
REMARK    1  A    between atoms: C_2  and  C_14
REMARK    2  A    between atoms: N_3  and  C_4
REMARK    3  A    between atoms: C_4  and  C_5
REMARK    4  A    between atoms: C_5  and  C_6
REMARK    5  A    between atoms: C_6  and  O_8
REMARK    6  A    between atoms: C_16  and  C_17
REMARK                            x       y       z     vdW  Elec       q    Type
REMARK                         _______ _______ _______ _____ _____    ______ ____
ROOT
ATOM      1  O   UNL     1       2.591   8.851  17.314  0.00  0.00    +0.000 OA
ATOM      2  C   UNL     1       1.926   8.485  18.273  0.00  0.00    +0.000 C 
ATOM      3  N   UNL     1       2.131   7.263  18.895  0.00  0.00    +0.000 N 
ATOM      4  H   UNL     1       1.484   6.956  19.611  0.00  0.00    +0.000 HD
ENDROOT
BRANCH   2   5
ATOM      5  C   UNL     1       0.844   9.345  18.843  0.00  0.00    +0.000 A 
ATOM      6  C   UNL     1      -0.013   9.998  17.948  0.00  0.00    +0.000 A 
ATOM      7  C   UNL     1      -1.039  10.789  18.435  0.00  0.00    +0.000 A 
ATOM      8  N   UNL     1      -1.231  10.926  19.767  0.00  0.00    +0.000 NA
ATOM      9  C   UNL     1      -0.433  10.288  20.638  0.00  0.00    +0.000 A 
ATOM     10  C   UNL     1      -0.699  10.453  21.992  0.00  0.00    +0.000 A 
ATOM     11  C   UNL     1       0.075   9.846  22.981  0.00  0.00    +0.000 A 
ATOM     12  C   UNL     1       1.150   9.054  22.613  0.00  0.00    +0.000 A 
ATOM     13  C   UNL     1       1.437   8.874  21.260  0.00  0.00    +0.000 A 
ATOM     14  C   UNL     1       0.645   9.474  20.242  0.00  0.00    +0.000 A 
BRANCH   7  15
ATOM     15  C   UNL     1      -1.951  11.551  17.504  0.00  0.00    +0.000 C 
ATOM     16  C   UNL     1      -2.562  10.899  16.285  0.00  0.00    +0.000 C 
ATOM     17  C   UNL     1      -3.423  11.208  17.472  0.00  0.00    +0.000 C 
ENDBRANCH   7  15
ENDBRANCH   2   5
BRANCH   3  18
ATOM     18  C   UNL     1       3.131   6.325  18.416  0.00  0.00    +0.000 C 
BRANCH  18  19
ATOM     19  C   UNL     1       2.902   4.857  18.852  0.00  0.00    +0.000 C 
ATOM     20  C   UNL     1       1.734   4.241  18.044  0.00  0.00    +0.000 C 
ATOM     21  C   UNL     1       1.227   2.935  18.649  0.00  0.00    +0.000 C 
ATOM     22  O   UNL     1       0.864   3.131  20.013  0.00  0.00    +0.000 OA
ATOM     23  C   UNL     1       1.975   3.500  20.817  0.00  0.00    +0.000 C 
ATOM     24  C   UNL     1       2.545   4.836  20.358  0.00  0.00    +0.000 C 
BRANCH  19  25
ATOM     25  C   UNL     1       4.185   4.059  18.590  0.00  0.00    +0.000 C 
ATOM     26  O   UNL     1       5.035   3.825  19.435  0.00  0.00    +0.000 OA
BRANCH  25  27
ATOM     27  O   UNL     1       4.317   3.573  17.334  0.00  0.00    +0.000 OA
ATOM     28  H   UNL     1       5.047   2.948  17.174  0.00  0.00    +0.000 HD
ENDBRANCH  25  27
ENDBRANCH  19  25
ENDBRANCH  18  19
ENDBRANCH   3  18
TORSDOF 6
ENDMDL
MODEL 3
REMARK VINA RESULT:      -7.8      2.379      7.596
REMARK  Name = 
REMARK  6 active torsions:
REMARK  status: ('A' for Active; 'I' for Inactive)
REMARK    1  A    between atoms: C_2  and  C_14
REMARK    2  A    between atoms: N_3  and  C_4
REMARK    3  A    between atoms: C_4  and  C_5
REMARK    4  A    between atoms: C_5  and  C_6
REMARK    5  A    between atoms: C_6  and  O_8
REMARK    6  A    between atoms: C_16  and  C_17
REMARK                            x       y       z     vdW  Elec       q    Type
REMARK                         _______ _______ _______ _____ _____    ______ ____
ROOT
ATOM      1  O   UNL     1       1.832   6.750  20.993  0.00  0.00    +0.000 OA
ATOM      2  C   UNL     1       2.072   7.021  19.824  0.00  0.00    +0.000 C 
ATOM      3  N   UNL     1       1.795   8.265  19.280  0.00  0.00    +0.000 N 
ATOM      4  H   UNL     1       1.907   8.407  18.283  0.00  0.00    +0.000 HD
ENDROOT
BRANCH   2   5
ATOM      5  C   UNL     1       2.690   6.017  18.905  0.00  0.00    +0.000 A 
ATOM      6  C   UNL     1       3.765   6.432  18.110  0.00  0.00    +0.000 A 
ATOM      7  C   UNL     1       4.377   5.528  17.259  0.00  0.00    +0.000 A 
ATOM      8  N   UNL     1       3.956   4.244  17.198  0.00  0.00    +0.000 NA
ATOM      9  C   UNL     1       2.942   3.824  17.972  0.00  0.00    +0.000 A 
ATOM     10  C   UNL     1       2.575   2.487  17.878  0.00  0.00    +0.000 A 
ATOM     11  C   UNL     1       1.527   1.950  18.627  0.00  0.00    +0.000 A 
ATOM     12  C   UNL     1       0.820   2.768  19.491  0.00  0.00    +0.000 A 
ATOM     13  C   UNL     1       1.170   4.114  19.602  0.00  0.00    +0.000 A 
ATOM     14  C   UNL     1       2.247   4.670  18.856  0.00  0.00    +0.000 A 
BRANCH   7  15
ATOM     15  C   UNL     1       5.504   5.950  16.347  0.00  0.00    +0.000 C 
ATOM     16  C   UNL     1       6.537   4.962  15.856  0.00  0.00    +0.000 C 
ATOM     17  C   UNL     1       5.500   5.484  14.908  0.00  0.00    +0.000 C 
ENDBRANCH   7  15
ENDBRANCH   2   5
BRANCH   3  18
ATOM     18  C   UNL     1       1.167   9.314  20.062  0.00  0.00    +0.000 C 
BRANCH  18  19
ATOM     19  C   UNL     1       0.433  10.393  19.228  0.00  0.00    +0.000 C 
ATOM     20  C   UNL     1      -0.465  11.254  20.150  0.00  0.00    +0.000 C 
ATOM     21  C   UNL     1      -1.469  12.096  19.368  0.00  0.00    +0.000 C 
ATOM     22  O   UNL     1      -2.252  11.266  18.515  0.00  0.00    +0.000 OA
ATOM     23  C   UNL     1      -1.465  10.621  17.523  0.00  0.00    +0.000 C 
ATOM     24  C   UNL     1      -0.451   9.687  18.171  0.00  0.00    +0.000 C 
BRANCH  19  25
ATOM     25  C   UNL     1       1.478  11.287  18.549  0.00  0.00    +0.000 C 
ATOM     26  O   UNL     1       1.806  12.391  18.952  0.00  0.00    +0.000 OA
BRANCH  25  27
ATOM     27  O   UNL     1       2.072  10.754  17.456  0.00  0.00    +0.000 OA
ATOM     28  H   UNL     1       1.769  11.072  16.586  0.00  0.00    +0.000 HD
ENDBRANCH  25  27
ENDBRANCH  19  25
ENDBRANCH  18  19
ENDBRANCH   3  18
TORSDOF 6
ENDMDL
MODEL 4
REMARK VINA RESULT:      -7.7      1.542      3.822
REMARK  Name = 
REMARK  6 active torsions:
REMARK  status: ('A' for Active; 'I' for Inactive)
REMARK    1  A    between atoms: C_2  and  C_14
REMARK    2  A    between atoms: N_3  and  C_4
REMARK    3  A    between atoms: C_4  and  C_5
REMARK    4  A    between atoms: C_5  and  C_6
REMARK    5  A    between atoms: C_6  and  O_8
REMARK    6  A    between atoms: C_16  and  C_17
REMARK                            x       y       z     vdW  Elec       q    Type
REMARK                         _______ _______ _______ _____ _____    ______ ____
ROOT
ATOM      1  O   UNL     1       2.126   9.857  17.484  0.00  0.00    +0.000 OA
ATOM      2  C   UNL     1       1.367   9.336  18.290  0.00  0.00    +0.000 C 
ATOM      3  N   UNL     1       1.529   8.031  18.726  0.00  0.00    +0.000 N 
ATOM      4  H   UNL     1       0.814   7.609  19.307  0.00  0.00    +0.000 HD
ENDROOT
BRANCH   2   5
ATOM      5  C   UNL     1       0.210  10.088  18.865  0.00  0.00    +0.000 A 
ATOM      6  C   UNL     1       0.367  10.667  20.130  0.00  0.00    +0.000 A 
ATOM      7  C   UNL     1      -0.674  11.387  20.689  0.00  0.00    +0.000 A 
ATOM      8  N   UNL     1      -1.837  11.550  20.019  0.00  0.00    +0.000 NA
ATOM      9  C   UNL     1      -1.996  11.022  18.794  0.00  0.00    +0.000 A 
ATOM     10  C   UNL     1      -3.207  11.246  18.151  0.00  0.00    +0.000 A 
ATOM     11  C   UNL     1      -3.482  10.733  16.883  0.00  0.00    +0.000 A 
ATOM     12  C   UNL     1      -2.525   9.969  16.237  0.00  0.00    +0.000 A 
ATOM     13  C   UNL     1      -1.302   9.730  16.863  0.00  0.00    +0.000 A 
ATOM     14  C   UNL     1      -1.004  10.262  18.149  0.00  0.00    +0.000 A 
BRANCH   7  15
ATOM     15  C   UNL     1      -0.562  11.981  22.072  0.00  0.00    +0.000 C 
ATOM     16  C   UNL     1      -1.768  12.535  22.797  0.00  0.00    +0.000 C 
ATOM     17  C   UNL     1      -1.165  11.237  23.243  0.00  0.00    +0.000 C 
ENDBRANCH   7  15
ENDBRANCH   2   5
BRANCH   3  18
ATOM     18  C   UNL     1       2.597   7.188  18.219  0.00  0.00    +0.000 C 
BRANCH  18  19
ATOM     19  C   UNL     1       2.607   5.745  18.784  0.00  0.00    +0.000 C 
ATOM     20  C   UNL     1       1.732   4.825  17.897  0.00  0.00    +0.000 C 
ATOM     21  C   UNL     1       1.413   3.494  18.571  0.00  0.00    +0.000 C 
ATOM     22  O   UNL     1       0.805   3.716  19.840  0.00  0.00    +0.000 OA
ATOM     23  C   UNL     1       1.674   4.384  20.743  0.00  0.00    +0.000 C 
ATOM     24  C   UNL     1       2.025   5.771  20.218  0.00  0.00    +0.000 C 
BRANCH  19  25
ATOM     25  C   UNL     1       4.050   5.229  18.794  0.00  0.00    +0.000 C 
ATOM     26  O   UNL     1       4.559   4.591  17.886  0.00  0.00    +0.000 OA
BRANCH  25  27
ATOM     27  O   UNL     1       4.775   5.560  19.888  0.00  0.00    +0.000 OA
ATOM     28  H   UNL     1       5.739   5.428  19.839  0.00  0.00    +0.000 HD
ENDBRANCH  25  27
ENDBRANCH  19  25
ENDBRANCH  18  19
ENDBRANCH   3  18
TORSDOF 6
ENDMDL
MODEL 5
REMARK VINA RESULT:      -7.7      2.374      7.651
REMARK  Name = 
REMARK  6 active torsions:
REMARK  status: ('A' for Active; 'I' for Inactive)
REMARK    1  A    between atoms: C_2  and  C_14
REMARK    2  A    between atoms: N_3  and  C_4
REMARK    3  A    between atoms: C_4  and  C_5
REMARK    4  A    between atoms: C_5  and  C_6
REMARK    5  A    between atoms: C_6  and  O_8
REMARK    6  A    between atoms: C_16  and  C_17
REMARK                            x       y       z     vdW  Elec       q    Type
REMARK                         _______ _______ _______ _____ _____    ______ ____
ROOT
ATOM      1  O   UNL     1       1.562   6.548  21.026  0.00  0.00    +0.000 OA
ATOM      2  C   UNL     1       1.964   6.961  19.946  0.00  0.00    +0.000 C 
ATOM      3  N   UNL     1       1.808   8.280  19.551  0.00  0.00    +0.000 N 
ATOM      4  H   UNL     1       2.056   8.548  18.607  0.00  0.00    +0.000 HD
ENDROOT
BRANCH   2   5
ATOM      5  C   UNL     1       2.660   6.057  18.979  0.00  0.00    +0.000 A 
ATOM      6  C   UNL     1       3.739   6.580  18.256  0.00  0.00    +0.000 A 
ATOM      7  C   UNL     1       4.422   5.771  17.364  0.00  0.00    +0.000 A 
ATOM      8  N   UNL     1       4.067   4.476  17.196  0.00  0.00    +0.000 NA
ATOM      9  C   UNL     1       3.050   3.953  17.900  0.00  0.00    +0.000 A 
ATOM     10  C   UNL     1       2.752   2.611  17.697  0.00  0.00    +0.000 A 
ATOM     11  C   UNL     1       1.708   1.972  18.367  0.00  0.00    +0.000 A 
ATOM     12  C   UNL     1       0.934   2.690  19.262  0.00  0.00    +0.000 A 
ATOM     13  C   UNL     1       1.214   4.039  19.482  0.00  0.00    +0.000 A 
ATOM     14  C   UNL     1       2.286   4.698  18.818  0.00  0.00    +0.000 A 
BRANCH   7  15
ATOM     15  C   UNL     1       5.556   6.310  16.527  0.00  0.00    +0.000 C 
ATOM     16  C   UNL     1       6.682   7.111  17.139  0.00  0.00    +0.000 C 
ATOM     17  C   UNL     1       6.934   5.708  16.678  0.00  0.00    +0.000 C 
ENDBRANCH   7  15
ENDBRANCH   2   5
BRANCH   3  18
ATOM     18  C   UNL     1       1.121   9.247  20.389  0.00  0.00    +0.000 C 
BRANCH  18  19
ATOM     19  C   UNL     1       0.489  10.435  19.621  0.00  0.00    +0.000 C 
ATOM     20  C   UNL     1       1.333  11.714  19.840  0.00  0.00    +0.000 C 
ATOM     21  C   UNL     1       0.598  12.981  19.411  0.00  0.00    +0.000 C 
ATOM     22  O   UNL     1      -0.658  13.072  20.077  0.00  0.00    +0.000 OA
ATOM     23  C   UNL     1      -1.530  12.007  19.728  0.00  0.00    +0.000 C 
ATOM     24  C   UNL     1      -0.942  10.671  20.163  0.00  0.00    +0.000 C 
BRANCH  19  25
ATOM     25  C   UNL     1       0.452  10.093  18.127  0.00  0.00    +0.000 C 
ATOM     26  O   UNL     1      -0.537   9.684  17.539  0.00  0.00    +0.000 OA
BRANCH  25  27
ATOM     27  O   UNL     1       1.606  10.310  17.455  0.00  0.00    +0.000 OA
ATOM     28  H   UNL     1       1.849   9.663  16.769  0.00  0.00    +0.000 HD
ENDBRANCH  25  27
ENDBRANCH  19  25
ENDBRANCH  18  19
ENDBRANCH   3  18
TORSDOF 6
ENDMDL
MODEL 6
REMARK VINA RESULT:      -7.7      2.645      7.672
REMARK  Name = 
REMARK  6 active torsions:
REMARK  status: ('A' for Active; 'I' for Inactive)
REMARK    1  A    between atoms: C_2  and  C_14
REMARK    2  A    between atoms: N_3  and  C_4
REMARK    3  A    between atoms: C_4  and  C_5
REMARK    4  A    between atoms: C_5  and  C_6
REMARK    5  A    between atoms: C_6  and  O_8
REMARK    6  A    between atoms: C_16  and  C_17
REMARK                            x       y       z     vdW  Elec       q    Type
REMARK                         _______ _______ _______ _____ _____    ______ ____
ROOT
ATOM      1  O   UNL     1       2.612   8.816  17.134  0.00  0.00    +0.000 OA
ATOM      2  C   UNL     1       2.299   8.278  18.188  0.00  0.00    +0.000 C 
ATOM      3  N   UNL     1       1.580   8.938  19.172  0.00  0.00    +0.000 N 
ATOM      4  H   UNL     1       1.441   8.490  20.070  0.00  0.00    +0.000 HD
ENDROOT
BRANCH   2   5
ATOM      5  C   UNL     1       2.672   6.860  18.477  0.00  0.00    +0.000 A 
ATOM      6  C   UNL     1       1.955   6.184  19.472  0.00  0.00    +0.000 A 
ATOM      7  C   UNL     1       2.257   4.863  19.757  0.00  0.00    +0.000 A 
ATOM      8  N   UNL     1       3.227   4.215  19.074  0.00  0.00    +0.000 NA
ATOM      9  C   UNL     1       3.908   4.842  18.100  0.00  0.00    +0.000 A 
ATOM     10  C   UNL     1       4.876   4.111  17.422  0.00  0.00    +0.000 A 
ATOM     11  C   UNL     1       5.649   4.668  16.402  0.00  0.00    +0.000 A 
ATOM     12  C   UNL     1       5.457   5.993  16.050  0.00  0.00    +0.000 A 
ATOM     13  C   UNL     1       4.491   6.747  16.718  0.00  0.00    +0.000 A 
ATOM     14  C   UNL     1       3.685   6.185  17.747  0.00  0.00    +0.000 A 
BRANCH   7  15
ATOM     15  C   UNL     1       1.543   4.117  20.858  0.00  0.00    +0.000 C 
ATOM     16  C   UNL     1       1.270   2.634  20.762  0.00  0.00    +0.000 C 
ATOM     17  C   UNL     1       2.322   3.135  21.705  0.00  0.00    +0.000 C 
ENDBRANCH   7  15
ENDBRANCH   2   5
BRANCH   3  18
ATOM     18  C   UNL     1       1.186  10.328  19.023  0.00  0.00    +0.000 C 
BRANCH  18  19
ATOM     19  C   UNL     1       0.375  10.901  20.212  0.00  0.00    +0.000 C 
ATOM     20  C   UNL     1      -1.079  11.193  19.767  0.00  0.00    +0.000 C 
ATOM     21  C   UNL     1      -1.832  12.070  20.764  0.00  0.00    +0.000 C 
ATOM     22  O   UNL     1      -1.113  13.277  21.000  0.00  0.00    +0.000 OA
ATOM     23  C   UNL     1       0.152  13.041  21.602  0.00  0.00    +0.000 C 
ATOM     24  C   UNL     1       1.039  12.220  20.674  0.00  0.00    +0.000 C 
BRANCH  19  25
ATOM     25  C   UNL     1       0.368   9.872  21.347  0.00  0.00    +0.000 C 
ATOM     26  O   UNL     1      -0.460   8.983  21.466  0.00  0.00    +0.000 OA
BRANCH  25  27
ATOM     27  O   UNL     1       1.390   9.976  22.229  0.00  0.00    +0.000 OA
ATOM     28  H   UNL     1       1.256  10.562  22.996  0.00  0.00    +0.000 HD
ENDBRANCH  25  27
ENDBRANCH  19  25
ENDBRANCH  18  19
ENDBRANCH   3  18
TORSDOF 6
ENDMDL
MODEL 7
REMARK VINA RESULT:      -7.6      0.966      1.776
REMARK  Name = 
REMARK  6 active torsions:
REMARK  status: ('A' for Active; 'I' for Inactive)
REMARK    1  A    between atoms: C_2  and  C_14
REMARK    2  A    between atoms: N_3  and  C_4
REMARK    3  A    between atoms: C_4  and  C_5
REMARK    4  A    between atoms: C_5  and  C_6
REMARK    5  A    between atoms: C_6  and  O_8
REMARK    6  A    between atoms: C_16  and  C_17
REMARK                            x       y       z     vdW  Elec       q    Type
REMARK                         _______ _______ _______ _____ _____    ______ ____
ROOT
ATOM      1  O   UNL     1       2.809   8.628  17.747  0.00  0.00    +0.000 OA
ATOM      2  C   UNL     1       1.953   8.268  18.543  0.00  0.00    +0.000 C 
ATOM      3  N   UNL     1       1.919   6.984  19.065  0.00  0.00    +0.000 N 
ATOM      4  H   UNL     1       1.130   6.700  19.632  0.00  0.00    +0.000 HD
ENDROOT
BRANCH   2   5
ATOM      5  C   UNL     1       0.883   9.202  19.010  0.00  0.00    +0.000 A 
ATOM      6  C   UNL     1       0.099   9.836  18.039  0.00  0.00    +0.000 A 
ATOM      7  C   UNL     1      -0.915  10.695  18.430  0.00  0.00    +0.000 A 
ATOM      8  N   UNL     1      -1.164  10.915  19.742  0.00  0.00    +0.000 NA
ATOM      9  C   UNL     1      -0.436  10.296  20.685  0.00  0.00    +0.000 A 
ATOM     10  C   UNL     1      -0.759  10.548  22.013  0.00  0.00    +0.000 A 
ATOM     11  C   UNL     1      -0.059   9.968  23.072  0.00  0.00    +0.000 A 
ATOM     12  C   UNL     1       0.997   9.114  22.801  0.00  0.00    +0.000 A 
ATOM     13  C   UNL     1       1.340   8.846  21.476  0.00  0.00    +0.000 A 
ATOM     14  C   UNL     1       0.624   9.419  20.388  0.00  0.00    +0.000 A 
BRANCH   7  15
ATOM     15  C   UNL     1      -1.747  11.438  17.415  0.00  0.00    +0.000 C 
ATOM     16  C   UNL     1      -2.387  10.730  16.243  0.00  0.00    +0.000 C 
ATOM     17  C   UNL     1      -3.241  11.208  17.378  0.00  0.00    +0.000 C 
ENDBRANCH   7  15
ENDBRANCH   2   5
BRANCH   3  18
ATOM     18  C   UNL     1       2.885   5.976  18.667  0.00  0.00    +0.000 C 
BRANCH  18  19
ATOM     19  C   UNL     1       2.526   4.531  19.093  0.00  0.00    +0.000 C 
ATOM     20  C   UNL     1       1.516   4.563  20.267  0.00  0.00    +0.000 C 
ATOM     21  C   UNL     1       1.384   3.211  20.962  0.00  0.00    +0.000 C 
ATOM     22  O   UNL     1       2.661   2.751  21.394  0.00  0.00    +0.000 OA
ATOM     23  C   UNL     1       3.544   2.518  20.306  0.00  0.00    +0.000 C 
ATOM     24  C   UNL     1       3.819   3.815  19.555  0.00  0.00    +0.000 C 
BRANCH  19  25
ATOM     25  C   UNL     1       1.902   3.804  17.897  0.00  0.00    +0.000 C 
ATOM     26  O   UNL     1       2.158   2.652  17.582  0.00  0.00    +0.000 OA
BRANCH  25  27
ATOM     27  O   UNL     1       0.987   4.516  17.200  0.00  0.00    +0.000 OA
ATOM     28  H   UNL     1       0.695   4.150  16.346  0.00  0.00    +0.000 HD
ENDBRANCH  25  27
ENDBRANCH  19  25
ENDBRANCH  18  19
ENDBRANCH   3  18
TORSDOF 6
ENDMDL
MODEL 8
REMARK VINA RESULT:      -7.6      1.723      2.488
REMARK  Name = 
REMARK  6 active torsions:
REMARK  status: ('A' for Active; 'I' for Inactive)
REMARK    1  A    between atoms: C_2  and  C_14
REMARK    2  A    between atoms: N_3  and  C_4
REMARK    3  A    between atoms: C_4  and  C_5
REMARK    4  A    between atoms: C_5  and  C_6
REMARK    5  A    between atoms: C_6  and  O_8
REMARK    6  A    between atoms: C_16  and  C_17
REMARK                            x       y       z     vdW  Elec       q    Type
REMARK                         _______ _______ _______ _____ _____    ______ ____
ROOT
ATOM      1  O   UNL     1       2.343   9.967  17.432  0.00  0.00    +0.000 OA
ATOM      2  C   UNL     1       1.450   9.369  18.016  0.00  0.00    +0.000 C 
ATOM      3  N   UNL     1       1.606   8.073  18.481  0.00  0.00    +0.000 N 
ATOM      4  H   UNL     1       0.804   7.580  18.857  0.00  0.00    +0.000 HD
ENDROOT
BRANCH   2   5
ATOM      5  C   UNL     1       0.123  10.009  18.269  0.00  0.00    +0.000 A 
ATOM      6  C   UNL     1      -0.919   9.734  17.375  0.00  0.00    +0.000 A 
ATOM      7  C   UNL     1      -2.168  10.292  17.585  0.00  0.00    +0.000 A 
ATOM      8  N   UNL     1      -2.396  11.089  18.654  0.00  0.00    +0.000 NA
ATOM      9  C   UNL     1      -1.414  11.344  19.534  0.00  0.00    +0.000 A 
ATOM     10  C   UNL     1      -1.722  12.151  20.622  0.00  0.00    +0.000 A 
ATOM     11  C   UNL     1      -0.773  12.489  21.588  0.00  0.00    +0.000 A 
ATOM     12  C   UNL     1       0.521  12.013  21.466  0.00  0.00    +0.000 A 
ATOM     13  C   UNL     1       0.853  11.201  20.382  0.00  0.00    +0.000 A 
ATOM     14  C   UNL     1      -0.109  10.836  19.399  0.00  0.00    +0.000 A 
BRANCH   7  15
ATOM     15  C   UNL     1      -3.302  10.063  16.615  0.00  0.00    +0.000 C 
ATOM     16  C   UNL     1      -4.324  11.137  16.323  0.00  0.00    +0.000 C 
ATOM     17  C   UNL     1      -3.295  10.791  15.290  0.00  0.00    +0.000 C 
ENDBRANCH   7  15
ENDBRANCH   2   5
BRANCH   3  18
ATOM     18  C   UNL     1       2.837   7.332  18.269  0.00  0.00    +0.000 C 
BRANCH  18  19
ATOM     19  C   UNL     1       2.805   5.867  18.770  0.00  0.00    +0.000 C 
ATOM     20  C   UNL     1       1.884   5.018  17.860  0.00  0.00    +0.000 C 
ATOM     21  C   UNL     1       1.530   3.669  18.480  0.00  0.00    +0.000 C 
ATOM     22  O   UNL     1       0.952   3.855  19.769  0.00  0.00    +0.000 OA
ATOM     23  C   UNL     1       1.859   4.452  20.684  0.00  0.00    +0.000 C 
ATOM     24  C   UNL     1       2.250   5.848  20.215  0.00  0.00    +0.000 C 
BRANCH  19  25
ATOM     25  C   UNL     1       4.230   5.301  18.731  0.00  0.00    +0.000 C 
ATOM     26  O   UNL     1       5.009   5.332  19.670  0.00  0.00    +0.000 OA
BRANCH  25  27
ATOM     27  O   UNL     1       4.584   4.706  17.569  0.00  0.00    +0.000 OA
ATOM     28  H   UNL     1       3.952   4.763  16.829  0.00  0.00    +0.000 HD
ENDBRANCH  25  27
ENDBRANCH  19  25
ENDBRANCH  18  19
ENDBRANCH   3  18
TORSDOF 6
ENDMDL
MODEL 9
REMARK VINA RESULT:      -7.6      2.605      7.548
REMARK  Name = 
REMARK  6 active torsions:
REMARK  status: ('A' for Active; 'I' for Inactive)
REMARK    1  A    between atoms: C_2  and  C_14
REMARK    2  A    between atoms: N_3  and  C_4
REMARK    3  A    between atoms: C_4  and  C_5
REMARK    4  A    between atoms: C_5  and  C_6
REMARK    5  A    between atoms: C_6  and  O_8
REMARK    6  A    between atoms: C_16  and  C_17
REMARK                            x       y       z     vdW  Elec       q    Type
REMARK                         _______ _______ _______ _____ _____    ______ ____
ROOT
ATOM      1  O   UNL     1       3.202   8.208  16.592  0.00  0.00    +0.000 OA
ATOM      2  C   UNL     1       2.890   7.832  17.714  0.00  0.00    +0.000 C 
ATOM      3  N   UNL     1       1.978   8.518  18.500  0.00  0.00    +0.000 N 
ATOM      4  H   UNL     1       1.836   8.231  19.461  0.00  0.00    +0.000 HD
ENDROOT
BRANCH   2   5
ATOM      5  C   UNL     1       3.476   6.591  18.308  0.00  0.00    +0.000 A 
ATOM      6  C   UNL     1       2.642   5.782  19.090  0.00  0.00    +0.000 A 
ATOM      7  C   UNL     1       3.141   4.615  19.642  0.00  0.00    +0.000 A 
ATOM      8  N   UNL     1       4.422   4.241  19.422  0.00  0.00    +0.000 NA
ATOM      9  C   UNL     1       5.228   4.993  18.655  0.00  0.00    +0.000 A 
ATOM     10  C   UNL     1       6.525   4.539  18.450  0.00  0.00    +0.000 A 
ATOM     11  C   UNL     1       7.448   5.249  17.681  0.00  0.00    +0.000 A 
ATOM     12  C   UNL     1       7.071   6.449  17.102  0.00  0.00    +0.000 A 
ATOM     13  C   UNL     1       5.774   6.925  17.294  0.00  0.00    +0.000 A 
ATOM     14  C   UNL     1       4.819   6.202  18.062  0.00  0.00    +0.000 A 
BRANCH   7  15
ATOM     15  C   UNL     1       2.290   3.745  20.534  0.00  0.00    +0.000 C 
ATOM     16  C   UNL     1       0.788   3.678  20.377  0.00  0.00    +0.000 C 
ATOM     17  C   UNL     1       1.632   2.514  19.951  0.00  0.00    +0.000 C 
ENDBRANCH   7  15
ENDBRANCH   2   5
BRANCH   3  18
ATOM     18  C   UNL     1       1.363   9.753  18.047  0.00  0.00    +0.000 C 
BRANCH  18  19
ATOM     19  C   UNL     1       0.504  10.477  19.113  0.00  0.00    +0.000 C 
ATOM     20  C   UNL     1       1.197  11.792  19.547  0.00  0.00    +0.000 C 
ATOM     21  C   UNL     1       0.599  12.376  20.823  0.00  0.00    +0.000 C 
ATOM     22  O   UNL     1       0.628  11.409  21.869  0.00  0.00    +0.000 OA
ATOM     23  C   UNL     1      -0.174  10.275  21.575  0.00  0.00    +0.000 C 
ATOM     24  C   UNL     1       0.357   9.550  20.345  0.00  0.00    +0.000 C 
BRANCH  19  25
ATOM     25  C   UNL     1      -0.869  10.794  18.509  0.00  0.00    +0.000 C 
ATOM     26  O   UNL     1      -1.860  10.094  18.645  0.00  0.00    +0.000 OA
BRANCH  25  27
ATOM     27  O   UNL     1      -0.942  11.956  17.819  0.00  0.00    +0.000 OA
ATOM     28  H   UNL     1      -0.101  12.372  17.558  0.00  0.00    +0.000 HD
ENDBRANCH  25  27
ENDBRANCH  19  25
ENDBRANCH  18  19
ENDBRANCH   3  18
TORSDOF 6
ENDMDL
