MODEL 1
REMARK VINA RESULT:      -9.2      0.000      0.000
REMARK  Name = 
REMARK  4 active torsions:
REMARK  status: ('A' for Active; 'I' for Inactive)
REMARK    1  A    between atoms: C_2  and  C_4
REMARK    2  A    between atoms: C_7  and  N_8
REMARK    3  A    between atoms: N_8  and  C_9
REMARK    4  A    between atoms: C_17  and  C_18
REMARK                            x       y       z     vdW  Elec       q    Type
REMARK                         _______ _______ _______ _____ _____    ______ ____
ROOT
ATOM      1  C   UNL     1       3.820   3.530  18.885  0.00  0.00    +0.000 A 
ATOM      2  C   UNL     1       3.018   4.249  19.775  0.00  0.00    +0.000 A 
ATOM      3  C   UNL     1       2.767   5.606  19.568  0.00  0.00    +0.000 A 
ATOM      4  C   UNL     1       3.336   6.327  18.498  0.00  0.00    +0.000 A 
ATOM      5  C   UNL     1       4.110   5.582  17.567  0.00  0.00    +0.000 A 
ATOM      6  C   UNL     1       4.762   5.902  16.338  0.00  0.00    +0.000 A 
ATOM      7  C   UNL     1       5.339   4.755  15.813  0.00  0.00    +0.000 A 
ATOM      8  N   UNL     1       5.135   3.771  16.753  0.00  0.00    +0.000 N 
ATOM      9  C   UNL     1       4.346   4.226  17.787  0.00  0.00    +0.000 A 
ATOM     10  H   UNL     1       5.449   2.809  16.684  0.00  0.00    +0.000 HD
ENDROOT
BRANCH   7  11
ATOM     11  C   UNL     1       5.988   4.515  14.522  0.00  0.00    +0.000 A 
ATOM     12  C   UNL     1       5.462   3.609  13.587  0.00  0.00    +0.000 A 
ATOM     13  C   UNL     1       6.070   3.434  12.338  0.00  0.00    +0.000 A 
ATOM     14  C   UNL     1       7.210   4.161  12.009  0.00  0.00    +0.000 A 
ATOM     15  C   UNL     1       7.738   5.052  12.934  0.00  0.00    +0.000 A 
ATOM     16  F   UNL     1       8.832   5.758  12.618  0.00  0.00    +0.000 F 
ATOM     17  C   UNL     1       7.143   5.232  14.179  0.00  0.00    +0.000 A 
ENDBRANCH   7  11
BRANCH   1  19
ATOM     18  N   UNL     1       4.928   1.746  20.105  0.00  0.00    +0.000 N 
ATOM     19  C   UNL     1       4.110   2.090  19.067  0.00  0.00    +0.000 C 
ATOM     20  O   UNL     1       3.600   1.236  18.347  0.00  0.00    +0.000 OA
ATOM     21  H   UNL     1       5.031   0.756  20.290  0.00  0.00    +0.000 HD
ATOM     22  H   UNL     1       5.124   2.384  20.865  0.00  0.00    +0.000 HD
ENDBRANCH   1  19
BRANCH   4  23
ATOM     23  N   UNL     1       3.129   7.701  18.342  0.00  0.00    +0.000 N 
ATOM     24  H   UNL     1       3.937   8.256  18.606  0.00  0.00    +0.000 HD
BRANCH  23  25
ATOM     25  C   UNL     1       1.826   8.302  18.660  0.00  0.00    +0.000 C 
ATOM     26  C   UNL     1       1.696   8.661  20.148  0.00  0.00    +0.000 C 
ATOM     27  C   UNL     1       0.333   9.294  20.403  0.00  0.00    +0.000 C 
ATOM     28  C   UNL     1       0.121  10.522  19.521  0.00  0.00    +0.000 C 
ATOM     29  N   UNL     1       0.301  10.218  18.100  0.00  0.00    +0.000 NA
ATOM     30  C   UNL     1       1.606   9.594  17.833  0.00  0.00    +0.000 C 
ATOM     31  H   UNL     1       0.221  11.077  17.557  0.00  0.00    +0.000 HD
ENDBRANCH  23  25
ENDBRANCH   4  23
TORSDOF 4
ENDMDL
MODEL 2
REMARK VINA RESULT:      -9.2      0.954      1.341
REMARK  Name = 
REMARK  4 active torsions:
REMARK  status: ('A' for Active; 'I' for Inactive)
REMARK    1  A    between atoms: C_2  and  C_4
REMARK    2  A    between atoms: C_7  and  N_8
REMARK    3  A    between atoms: N_8  and  C_9
REMARK    4  A    between atoms: C_17  and  C_18
REMARK                            x       y       z     vdW  Elec       q    Type
REMARK                         _______ _______ _______ _____ _____    ______ ____
ROOT
ATOM      1  C   UNL     1       3.882   3.542  18.903  0.00  0.00    +0.000 A 
ATOM      2  C   UNL     1       3.097   4.256  19.811  0.00  0.00    +0.000 A 
ATOM      3  C   UNL     1       2.836   5.612  19.612  0.00  0.00    +0.000 A 
ATOM      4  C   UNL     1       3.379   6.338  18.532  0.00  0.00    +0.000 A 
ATOM      5  C   UNL     1       4.136   5.597  17.583  0.00  0.00    +0.000 A 
ATOM      6  C   UNL     1       4.760   5.922  16.341  0.00  0.00    +0.000 A 
ATOM      7  C   UNL     1       5.331   4.778  15.802  0.00  0.00    +0.000 A 
ATOM      8  N   UNL     1       5.150   3.791  16.744  0.00  0.00    +0.000 N 
ATOM      9  C   UNL     1       4.382   4.241  17.796  0.00  0.00    +0.000 A 
ATOM     10  H   UNL     1       5.466   2.831  16.667  0.00  0.00    +0.000 HD
ENDROOT
BRANCH   7  11
ATOM     11  C   UNL     1       5.953   4.543  14.496  0.00  0.00    +0.000 A 
ATOM     12  C   UNL     1       7.147   5.180  14.122  0.00  0.00    +0.000 A 
ATOM     13  C   UNL     1       7.751   4.902  12.889  0.00  0.00    +0.000 A 
ATOM     14  C   UNL     1       7.170   3.985  12.018  0.00  0.00    +0.000 A 
ATOM     15  C   UNL     1       5.985   3.360  12.383  0.00  0.00    +0.000 A 
ATOM     16  F   UNL     1       5.426   2.472  11.550  0.00  0.00    +0.000 F 
ATOM     17  C   UNL     1       5.374   3.630  13.604  0.00  0.00    +0.000 A 
ENDBRANCH   7  11
BRANCH   1  19
ATOM     18  N   UNL     1       5.003   1.757  20.111  0.00  0.00    +0.000 N 
ATOM     19  C   UNL     1       4.182   2.102  19.077  0.00  0.00    +0.000 C 
ATOM     20  O   UNL     1       3.676   1.249  18.353  0.00  0.00    +0.000 OA
ATOM     21  H   UNL     1       5.113   0.768  20.290  0.00  0.00    +0.000 HD
ATOM     22  H   UNL     1       5.196   2.392  20.874  0.00  0.00    +0.000 HD
ENDBRANCH   1  19
BRANCH   4  23
ATOM     23  N   UNL     1       3.163   7.711  18.382  0.00  0.00    +0.000 N 
ATOM     24  H   UNL     1       3.959   8.270  18.673  0.00  0.00    +0.000 HD
BRANCH  23  25
ATOM     25  C   UNL     1       1.847   8.297  18.672  0.00  0.00    +0.000 C 
ATOM     26  C   UNL     1       1.683   8.659  20.156  0.00  0.00    +0.000 C 
ATOM     27  C   UNL     1       0.306   9.277  20.380  0.00  0.00    +0.000 C 
ATOM     28  C   UNL     1       0.099  10.499  19.490  0.00  0.00    +0.000 C 
ATOM     29  N   UNL     1       0.311  10.192  18.074  0.00  0.00    +0.000 NA
ATOM     30  C   UNL     1       1.629   9.583  17.836  0.00  0.00    +0.000 C 
ATOM     31  H   UNL     1       0.233  11.049  17.526  0.00  0.00    +0.000 HD
ENDBRANCH  23  25
ENDBRANCH   4  23
TORSDOF 4
ENDMDL
MODEL 3
REMARK VINA RESULT:      -8.9      3.553      7.691
REMARK  Name = 
REMARK  4 active torsions:
REMARK  status: ('A' for Active; 'I' for Inactive)
REMARK    1  A    between atoms: C_2  and  C_4
REMARK    2  A    between atoms: C_7  and  N_8
REMARK    3  A    between atoms: N_8  and  C_9
REMARK    4  A    between atoms: C_17  and  C_18
REMARK                            x       y       z     vdW  Elec       q    Type
REMARK                         _______ _______ _______ _____ _____    ______ ____
ROOT
ATOM      1  C   UNL     1       2.629   3.499  20.377  0.00  0.00    +0.000 A 
ATOM      2  C   UNL     1       3.749   2.767  19.977  0.00  0.00    +0.000 A 
ATOM      3  C   UNL     1       4.813   3.394  19.329  0.00  0.00    +0.000 A 
ATOM      4  C   UNL     1       4.799   4.766  19.002  0.00  0.00    +0.000 A 
ATOM      5  C   UNL     1       3.680   5.518  19.454  0.00  0.00    +0.000 A 
ATOM      6  C   UNL     1       3.334   6.902  19.415  0.00  0.00    +0.000 A 
ATOM      7  C   UNL     1       2.122   7.089  20.064  0.00  0.00    +0.000 A 
ATOM      8  N   UNL     1       1.682   5.831  20.405  0.00  0.00    +0.000 N 
ATOM      9  C   UNL     1       2.629   4.874  20.105  0.00  0.00    +0.000 A 
ATOM     10  H   UNL     1       0.814   5.614  20.881  0.00  0.00    +0.000 HD
ENDROOT
BRANCH   7  11
ATOM     11  C   UNL     1       1.409   8.318  20.423  0.00  0.00    +0.000 A 
ATOM     12  C   UNL     1       1.081   9.289  19.464  0.00  0.00    +0.000 A 
ATOM     13  C   UNL     1       0.354  10.432  19.821  0.00  0.00    +0.000 A 
ATOM     14  C   UNL     1      -0.052  10.617  21.139  0.00  0.00    +0.000 A 
ATOM     15  C   UNL     1       0.279   9.662  22.092  0.00  0.00    +0.000 A 
ATOM     16  F   UNL     1      -0.116   9.835  23.360  0.00  0.00    +0.000 F 
ATOM     17  C   UNL     1       1.002   8.525  21.749  0.00  0.00    +0.000 A 
ENDBRANCH   7  11
BRANCH   1  19
ATOM     18  N   UNL     1       0.349   2.660  20.330  0.00  0.00    +0.000 N 
ATOM     19  C   UNL     1       1.479   2.873  21.068  0.00  0.00    +0.000 C 
ATOM     20  O   UNL     1       1.551   2.514  22.240  0.00  0.00    +0.000 OA
ATOM     21  H   UNL     1      -0.389   2.133  20.777  0.00  0.00    +0.000 HD
ATOM     22  H   UNL     1       0.360   2.680  19.319  0.00  0.00    +0.000 HD
ENDBRANCH   1  19
BRANCH   4  23
ATOM     23  N   UNL     1       5.844   5.367  18.293  0.00  0.00    +0.000 N 
ATOM     24  H   UNL     1       5.815   6.381  18.329  0.00  0.00    +0.000 HD
BRANCH  23  25
ATOM     25  C   UNL     1       6.308   4.798  17.020  0.00  0.00    +0.000 C 
ATOM     26  C   UNL     1       5.144   4.380  16.108  0.00  0.00    +0.000 C 
ATOM     27  C   UNL     1       5.696   3.818  14.803  0.00  0.00    +0.000 C 
ATOM     28  C   UNL     1       6.603   4.828  14.106  0.00  0.00    +0.000 C 
ATOM     29  N   UNL     1       7.686   5.289  14.978  0.00  0.00    +0.000 NA
ATOM     30  C   UNL     1       7.177   5.824  16.250  0.00  0.00    +0.000 C 
ATOM     31  H   UNL     1       8.222   6.012  14.499  0.00  0.00    +0.000 HD
ENDBRANCH  23  25
ENDBRANCH   4  23
TORSDOF 4
ENDMDL
MODEL 4
REMARK VINA RESULT:      -8.9      3.298      7.073
REMARK  Name = 
REMARK  4 active torsions:
REMARK  status: ('A' for Active; 'I' for Inactive)
REMARK    1  A    between atoms: C_2  and  C_4
REMARK    2  A    between atoms: C_7  and  N_8
REMARK    3  A    between atoms: N_8  and  C_9
REMARK    4  A    between atoms: C_17  and  C_18
REMARK                            x       y       z     vdW  Elec       q    Type
REMARK                         _______ _______ _______ _____ _____    ______ ____
ROOT
ATOM      1  C   UNL     1       2.619   3.300  20.172  0.00  0.00    +0.000 A 
ATOM      2  C   UNL     1       3.716   2.437  20.175  0.00  0.00    +0.000 A 
ATOM      3  C   UNL     1       4.963   2.868  19.722  0.00  0.00    +0.000 A 
ATOM      4  C   UNL     1       5.172   4.161  19.199  0.00  0.00    +0.000 A 
ATOM      5  C   UNL     1       4.066   5.054  19.242  0.00  0.00    +0.000 A 
ATOM      6  C   UNL     1       3.889   6.431  18.911  0.00  0.00    +0.000 A 
ATOM      7  C   UNL     1       2.587   6.809  19.206  0.00  0.00    +0.000 A 
ATOM      8  N   UNL     1       1.948   5.662  19.614  0.00  0.00    +0.000 N 
ATOM      9  C   UNL     1       2.830   4.605  19.704  0.00  0.00    +0.000 A 
ATOM     10  H   UNL     1       0.975   5.589  19.890  0.00  0.00    +0.000 HD
ENDROOT
BRANCH   7  11
ATOM     11  C   UNL     1       1.947   8.127  19.189  0.00  0.00    +0.000 A 
ATOM     12  C   UNL     1       1.952   8.937  18.042  0.00  0.00    +0.000 A 
ATOM     13  C   UNL     1       1.290  10.170  18.032  0.00  0.00    +0.000 A 
ATOM     14  C   UNL     1       0.615  10.609  19.168  0.00  0.00    +0.000 A 
ATOM     15  C   UNL     1       0.616   9.814  20.307  0.00  0.00    +0.000 A 
ATOM     16  F   UNL     1      -0.037  10.231  21.400  0.00  0.00    +0.000 F 
ATOM     17  C   UNL     1       1.272   8.588  20.328  0.00  0.00    +0.000 A 
ENDBRANCH   7  11
BRANCH   1  19
ATOM     18  N   UNL     1       1.157   2.566  21.968  0.00  0.00    +0.000 N 
ATOM     19  C   UNL     1       1.280   2.882  20.645  0.00  0.00    +0.000 C 
ATOM     20  O   UNL     1       0.309   2.867  19.893  0.00  0.00    +0.000 OA
ATOM     21  H   UNL     1       0.220   2.390  22.305  0.00  0.00    +0.000 HD
ATOM     22  H   UNL     1       1.853   2.838  22.648  0.00  0.00    +0.000 HD
ENDBRANCH   1  19
BRANCH   4  23
ATOM     23  N   UNL     1       6.411   4.558  18.686  0.00  0.00    +0.000 N 
ATOM     24  H   UNL     1       6.753   5.420  19.101  0.00  0.00    +0.000 HD
BRANCH  23  25
ATOM     25  C   UNL     1       6.722   4.383  17.260  0.00  0.00    +0.000 C 
ATOM     26  C   UNL     1       5.516   3.870  16.459  0.00  0.00    +0.000 C 
ATOM     27  C   UNL     1       5.903   3.729  14.990  0.00  0.00    +0.000 C 
ATOM     28  C   UNL     1       6.416   5.051  14.426  0.00  0.00    +0.000 C 
ATOM     29  N   UNL     1       7.527   5.591  15.212  0.00  0.00    +0.000 NA
ATOM     30  C   UNL     1       7.180   5.724  16.635  0.00  0.00    +0.000 C 
ATOM     31  H   UNL     1       7.790   6.505  14.842  0.00  0.00    +0.000 HD
ENDBRANCH  23  25
ENDBRANCH   4  23
TORSDOF 4
ENDMDL
MODEL 5
REMARK VINA RESULT:      -8.8      3.118      7.424
REMARK  Name = 
REMARK  4 active torsions:
REMARK  status: ('A' for Active; 'I' for Inactive)
REMARK    1  A    between atoms: C_2  and  C_4
REMARK    2  A    between atoms: C_7  and  N_8
REMARK    3  A    between atoms: N_8  and  C_9
REMARK    4  A    between atoms: C_17  and  C_18
REMARK                            x       y       z     vdW  Elec       q    Type
REMARK                         _______ _______ _______ _____ _____    ______ ____
ROOT
ATOM      1  C   UNL     1       2.614   3.470  20.363  0.00  0.00    +0.000 A 
ATOM      2  C   UNL     1       3.743   2.718  20.031  0.00  0.00    +0.000 A 
ATOM      3  C   UNL     1       4.843   3.319  19.419  0.00  0.00    +0.000 A 
ATOM      4  C   UNL     1       4.860   4.683  19.062  0.00  0.00    +0.000 A 
ATOM      5  C   UNL     1       3.731   5.457  19.445  0.00  0.00    +0.000 A 
ATOM      6  C   UNL     1       3.402   6.843  19.360  0.00  0.00    +0.000 A 
ATOM      7  C   UNL     1       2.164   7.058  19.948  0.00  0.00    +0.000 A 
ATOM      8  N   UNL     1       1.695   5.813  20.297  0.00  0.00    +0.000 N 
ATOM      9  C   UNL     1       2.643   4.840  20.061  0.00  0.00    +0.000 A 
ATOM     10  H   UNL     1       0.803   5.615  20.737  0.00  0.00    +0.000 HD
ENDROOT
BRANCH   7  11
ATOM     11  C   UNL     1       1.450   8.302  20.247  0.00  0.00    +0.000 A 
ATOM     12  C   UNL     1       0.997   8.601  21.542  0.00  0.00    +0.000 A 
ATOM     13  C   UNL     1       0.363   9.819  21.816  0.00  0.00    +0.000 A 
ATOM     14  C   UNL     1       0.173  10.751  20.800  0.00  0.00    +0.000 A 
ATOM     15  C   UNL     1       0.612  10.454  19.516  0.00  0.00    +0.000 A 
ATOM     16  F   UNL     1       0.436  11.351  18.537  0.00  0.00    +0.000 F 
ATOM     17  C   UNL     1       1.242   9.247  19.232  0.00  0.00    +0.000 A 
ENDBRANCH   7  11
BRANCH   1  19
ATOM     18  N   UNL     1       0.319   2.685  20.237  0.00  0.00    +0.000 N 
ATOM     19  C   UNL     1       1.426   2.872  21.014  0.00  0.00    +0.000 C 
ATOM     20  O   UNL     1       1.450   2.514  22.188  0.00  0.00    +0.000 OA
ATOM     21  H   UNL     1      -0.447   2.176  20.659  0.00  0.00    +0.000 HD
ATOM     22  H   UNL     1       0.365   2.704  19.228  0.00  0.00    +0.000 HD
ENDBRANCH   1  19
BRANCH   4  23
ATOM     23  N   UNL     1       5.943   5.256  18.389  0.00  0.00    +0.000 N 
ATOM     24  H   UNL     1       5.972   6.268  18.474  0.00  0.00    +0.000 HD
BRANCH  23  25
ATOM     25  C   UNL     1       6.384   4.725  17.092  0.00  0.00    +0.000 C 
ATOM     26  C   UNL     1       5.206   4.271  16.216  0.00  0.00    +0.000 C 
ATOM     27  C   UNL     1       5.733   3.750  14.883  0.00  0.00    +0.000 C 
ATOM     28  C   UNL     1       6.573   4.807  14.170  0.00  0.00    +0.000 C 
ATOM     29  N   UNL     1       7.666   5.300  15.010  0.00  0.00    +0.000 NA
ATOM     30  C   UNL     1       7.182   5.797  16.308  0.00  0.00    +0.000 C 
ATOM     31  H   UNL     1       8.155   6.051  14.523  0.00  0.00    +0.000 HD
ENDBRANCH  23  25
ENDBRANCH   4  23
TORSDOF 4
ENDMDL
MODEL 6
REMARK VINA RESULT:      -8.7      3.670      7.031
REMARK  Name = 
REMARK  4 active torsions:
REMARK  status: ('A' for Active; 'I' for Inactive)
REMARK    1  A    between atoms: C_2  and  C_4
REMARK    2  A    between atoms: C_7  and  N_8
REMARK    3  A    between atoms: N_8  and  C_9
REMARK    4  A    between atoms: C_17  and  C_18
REMARK                            x       y       z     vdW  Elec       q    Type
REMARK                         _______ _______ _______ _____ _____    ______ ____
ROOT
ATOM      1  C   UNL     1       5.539   5.320  16.666  0.00  0.00    +0.000 A 
ATOM      2  C   UNL     1       5.571   3.974  16.294  0.00  0.00    +0.000 A 
ATOM      3  C   UNL     1       4.501   3.129  16.588  0.00  0.00    +0.000 A 
ATOM      4  C   UNL     1       3.368   3.564  17.308  0.00  0.00    +0.000 A 
ATOM      5  C   UNL     1       3.316   4.945  17.641  0.00  0.00    +0.000 A 
ATOM      6  C   UNL     1       2.339   5.780  18.263  0.00  0.00    +0.000 A 
ATOM      7  C   UNL     1       2.803   7.087  18.289  0.00  0.00    +0.000 A 
ATOM      8  N   UNL     1       4.083   7.039  17.787  0.00  0.00    +0.000 N 
ATOM      9  C   UNL     1       4.394   5.775  17.334  0.00  0.00    +0.000 A 
ATOM     10  H   UNL     1       4.711   7.829  17.685  0.00  0.00    +0.000 HD
ENDROOT
BRANCH   7  11
ATOM     11  C   UNL     1       2.136   8.331  18.680  0.00  0.00    +0.000 A 
ATOM     12  C   UNL     1       2.067   9.436  17.816  0.00  0.00    +0.000 A 
ATOM     13  C   UNL     1       1.380  10.597  18.191  0.00  0.00    +0.000 A 
ATOM     14  C   UNL     1       0.753  10.668  19.432  0.00  0.00    +0.000 A 
ATOM     15  C   UNL     1       0.827   9.580  20.291  0.00  0.00    +0.000 A 
ATOM     16  F   UNL     1       0.220   9.642  21.484  0.00  0.00    +0.000 F 
ATOM     17  C   UNL     1       1.509   8.422  19.931  0.00  0.00    +0.000 A 
ENDBRANCH   7  11
BRANCH   1  19
ATOM     18  N   UNL     1       7.596   5.829  15.477  0.00  0.00    +0.000 N 
ATOM     19  C   UNL     1       6.653   6.249  16.372  0.00  0.00    +0.000 C 
ATOM     20  O   UNL     1       6.703   7.370  16.872  0.00  0.00    +0.000 OA
ATOM     21  H   UNL     1       8.289   6.511  15.199  0.00  0.00    +0.000 HD
ATOM     22  H   UNL     1       7.430   5.052  14.852  0.00  0.00    +0.000 HD
ENDBRANCH   1  19
BRANCH   4  23
ATOM     23  N   UNL     1       2.333   2.690  17.654  0.00  0.00    +0.000 N 
ATOM     24  H   UNL     1       1.492   2.835  17.103  0.00  0.00    +0.000 HD
BRANCH  23  25
ATOM     25  C   UNL     1       2.106   2.318  19.058  0.00  0.00    +0.000 C 
ATOM     26  C   UNL     1       3.330   2.603  19.942  0.00  0.00    +0.000 C 
ATOM     27  C   UNL     1       3.019   2.211  21.383  0.00  0.00    +0.000 C 
ATOM     28  C   UNL     1       1.784   2.944  21.900  0.00  0.00    +0.000 C 
ATOM     29  N   UNL     1       0.619   2.737  21.037  0.00  0.00    +0.000 NA
ATOM     30  C   UNL     1       0.900   3.097  19.638  0.00  0.00    +0.000 C 
ATOM     31  H   UNL     1      -0.160   3.300  21.379  0.00  0.00    +0.000 HD
ENDBRANCH  23  25
ENDBRANCH   4  23
TORSDOF 4
ENDMDL
MODEL 7
REMARK VINA RESULT:      -8.5      4.064      7.396
REMARK  Name = 
REMARK  4 active torsions:
REMARK  status: ('A' for Active; 'I' for Inactive)
REMARK    1  A    between atoms: C_2  and  C_4
REMARK    2  A    between atoms: C_7  and  N_8
REMARK    3  A    between atoms: N_8  and  C_9
REMARK    4  A    between atoms: C_17  and  C_18
REMARK                            x       y       z     vdW  Elec       q    Type
REMARK                         _______ _______ _______ _____ _____    ______ ____
ROOT
ATOM      1  C   UNL     1       2.791   3.594  20.189  0.00  0.00    +0.000 A 
ATOM      2  C   UNL     1       3.756   2.841  19.516  0.00  0.00    +0.000 A 
ATOM      3  C   UNL     1       4.545   3.421  18.523  0.00  0.00    +0.000 A 
ATOM      4  C   UNL     1       4.385   4.762  18.114  0.00  0.00    +0.000 A 
ATOM      5  C   UNL     1       3.437   5.538  18.835  0.00  0.00    +0.000 A 
ATOM      6  C   UNL     1       3.050   6.912  18.802  0.00  0.00    +0.000 A 
ATOM      7  C   UNL     1       2.094   7.142  19.780  0.00  0.00    +0.000 A 
ATOM      8  N   UNL     1       1.824   5.913  20.335  0.00  0.00    +0.000 N 
ATOM      9  C   UNL     1       2.661   4.942  19.828  0.00  0.00    +0.000 A 
ATOM     10  H   UNL     1       1.154   5.728  21.074  0.00  0.00    +0.000 HD
ENDROOT
BRANCH   7  11
ATOM     11  C   UNL     1       1.487   8.391  20.250  0.00  0.00    +0.000 A 
ATOM     12  C   UNL     1       1.180   9.440  19.369  0.00  0.00    +0.000 A 
ATOM     13  C   UNL     1       0.554  10.604  19.832  0.00  0.00    +0.000 A 
ATOM     14  C   UNL     1       0.227  10.732  21.179  0.00  0.00    +0.000 A 
ATOM     15  C   UNL     1       0.538   9.699  22.054  0.00  0.00    +0.000 A 
ATOM     16  F   UNL     1       0.220   9.817  23.350  0.00  0.00    +0.000 F 
ATOM     17  C   UNL     1       1.162   8.540  21.606  0.00  0.00    +0.000 A 
ENDBRANCH   7  11
BRANCH   1  19
ATOM     18  N   UNL     1       0.634   2.755  20.925  0.00  0.00    +0.000 N 
ATOM     19  C   UNL     1       1.934   3.017  21.250  0.00  0.00    +0.000 C 
ATOM     20  O   UNL     1       2.383   2.740  22.358  0.00  0.00    +0.000 OA
ATOM     21  H   UNL     1       0.087   2.261  21.618  0.00  0.00    +0.000 HD
ATOM     22  H   UNL     1       0.323   2.707  19.965  0.00  0.00    +0.000 HD
ENDBRANCH   1  19
BRANCH   4  23
ATOM     23  N   UNL     1       5.138   5.310  17.072  0.00  0.00    +0.000 N 
ATOM     24  H   UNL     1       5.067   4.778  16.210  0.00  0.00    +0.000 HD
BRANCH  23  25
ATOM     25  C   UNL     1       6.456   5.906  17.333  0.00  0.00    +0.000 C 
ATOM     26  C   UNL     1       6.456   7.430  17.144  0.00  0.00    +0.000 C 
ATOM     27  C   UNL     1       7.845   7.981  17.448  0.00  0.00    +0.000 C 
ATOM     28  C   UNL     1       8.292   7.603  18.858  0.00  0.00    +0.000 C 
ATOM     29  N   UNL     1       8.241   6.156  19.082  0.00  0.00    +0.000 NA
ATOM     30  C   UNL     1       6.912   5.601  18.782  0.00  0.00    +0.000 C 
ATOM     31  H   UNL     1       8.479   5.956  20.053  0.00  0.00    +0.000 HD
ENDBRANCH  23  25
ENDBRANCH   4  23
TORSDOF 4
ENDMDL
MODEL 8
REMARK VINA RESULT:      -8.5      1.818      2.384
REMARK  Name = 
REMARK  4 active torsions:
REMARK  status: ('A' for Active; 'I' for Inactive)
REMARK    1  A    between atoms: C_2  and  C_4
REMARK    2  A    between atoms: C_7  and  N_8
REMARK    3  A    between atoms: N_8  and  C_9
REMARK    4  A    between atoms: C_17  and  C_18
REMARK                            x       y       z     vdW  Elec       q    Type
REMARK                         _______ _______ _______ _____ _____    ______ ____
ROOT
ATOM      1  C   UNL     1       1.966   3.443  19.408  0.00  0.00    +0.000 A 
ATOM      2  C   UNL     1       1.114   4.073  20.317  0.00  0.00    +0.000 A 
ATOM      3  C   UNL     1       1.210   5.445  20.548  0.00  0.00    +0.000 A 
ATOM      4  C   UNL     1       2.187   6.251  19.928  0.00  0.00    +0.000 A 
ATOM      5  C   UNL     1       3.021   5.617  18.967  0.00  0.00    +0.000 A 
ATOM      6  C   UNL     1       4.038   6.077  18.077  0.00  0.00    +0.000 A 
ATOM      7  C   UNL     1       4.492   5.014  17.312  0.00  0.00    +0.000 A 
ATOM      8  N   UNL     1       3.841   3.901  17.792  0.00  0.00    +0.000 N 
ATOM      9  C   UNL     1       2.906   4.245  18.745  0.00  0.00    +0.000 A 
ATOM     10  H   UNL     1       3.960   2.952  17.457  0.00  0.00    +0.000 HD
ENDROOT
BRANCH   7  11
ATOM     11  C   UNL     1       5.411   4.980  16.170  0.00  0.00    +0.000 A 
ATOM     12  C   UNL     1       6.669   5.601  16.216  0.00  0.00    +0.000 A 
ATOM     13  C   UNL     1       7.552   5.513  15.133  0.00  0.00    +0.000 A 
ATOM     14  C   UNL     1       7.187   4.805  13.991  0.00  0.00    +0.000 A 
ATOM     15  C   UNL     1       5.940   4.197  13.940  0.00  0.00    +0.000 A 
ATOM     16  F   UNL     1       5.587   3.509  12.845  0.00  0.00    +0.000 F 
ATOM     17  C   UNL     1       5.054   4.280  15.010  0.00  0.00    +0.000 A 
ENDBRANCH   7  11
BRANCH   1  19
ATOM     18  N   UNL     1       0.667   1.467  18.850  0.00  0.00    +0.000 N 
ATOM     19  C   UNL     1       1.897   1.989  19.133  0.00  0.00    +0.000 C 
ATOM     20  O   UNL     1       2.906   1.291  19.111  0.00  0.00    +0.000 OA
ATOM     21  H   UNL     1       0.645   0.500  18.555  0.00  0.00    +0.000 HD
ATOM     22  H   UNL     1      -0.113   2.053  18.586  0.00  0.00    +0.000 HD
ENDBRANCH   1  19
BRANCH   4  23
ATOM     23  N   UNL     1       2.314   7.613  20.220  0.00  0.00    +0.000 N 
ATOM     24  H   UNL     1       3.200   7.842  20.660  0.00  0.00    +0.000 HD
BRANCH  23  25
ATOM     25  C   UNL     1       1.159   8.387  20.697  0.00  0.00    +0.000 C 
ATOM     26  C   UNL     1       1.357   8.908  22.129  0.00  0.00    +0.000 C 
ATOM     27  C   UNL     1       0.133   9.714  22.551  0.00  0.00    +0.000 C 
ATOM     28  C   UNL     1      -0.133  10.862  21.580  0.00  0.00    +0.000 C 
ATOM     29  N   UNL     1      -0.263  10.395  20.198  0.00  0.00    +0.000 NA
ATOM     30  C   UNL     1       0.902   9.604  19.773  0.00  0.00    +0.000 C 
ATOM     31  H   UNL     1      -0.369  11.199  19.579  0.00  0.00    +0.000 HD
ENDBRANCH  23  25
ENDBRANCH   4  23
TORSDOF 4
ENDMDL
MODEL 9
REMARK VINA RESULT:      -8.5      3.720      7.120
REMARK  Name = 
REMARK  4 active torsions:
REMARK  status: ('A' for Active; 'I' for Inactive)
REMARK    1  A    between atoms: C_2  and  C_4
REMARK    2  A    between atoms: C_7  and  N_8
REMARK    3  A    between atoms: N_8  and  C_9
REMARK    4  A    between atoms: C_17  and  C_18
REMARK                            x       y       z     vdW  Elec       q    Type
REMARK                         _______ _______ _______ _____ _____    ______ ____
ROOT
ATOM      1  C   UNL     1       2.248   3.200  18.553  0.00  0.00    +0.000 A 
ATOM      2  C   UNL     1       3.168   2.445  17.822  0.00  0.00    +0.000 A 
ATOM      3  C   UNL     1       4.174   3.070  17.084  0.00  0.00    +0.000 A 
ATOM      4  C   UNL     1       4.288   4.473  16.996  0.00  0.00    +0.000 A 
ATOM      5  C   UNL     1       3.382   5.237  17.780  0.00  0.00    +0.000 A 
ATOM      6  C   UNL     1       3.226   6.632  18.039  0.00  0.00    +0.000 A 
ATOM      7  C   UNL     1       2.187   6.818  18.940  0.00  0.00    +0.000 A 
ATOM      8  N   UNL     1       1.649   5.570  19.152  0.00  0.00    +0.000 N 
ATOM      9  C   UNL     1       2.386   4.594  18.516  0.00  0.00    +0.000 A 
ATOM     10  H   UNL     1       0.859   5.357  19.751  0.00  0.00    +0.000 HD
ENDROOT
BRANCH   7  11
ATOM     11  C   UNL     1       1.725   8.024  19.631  0.00  0.00    +0.000 A 
ATOM     12  C   UNL     1       1.457   9.216  18.939  0.00  0.00    +0.000 A 
ATOM     13  C   UNL     1       0.967  10.342  19.612  0.00  0.00    +0.000 A 
ATOM     14  C   UNL     1       0.739  10.290  20.985  0.00  0.00    +0.000 A 
ATOM     15  C   UNL     1       1.011   9.115  21.673  0.00  0.00    +0.000 A 
ATOM     16  F   UNL     1       0.787   9.059  22.993  0.00  0.00    +0.000 F 
ATOM     17  C   UNL     1       1.501   7.991  21.015  0.00  0.00    +0.000 A 
ENDBRANCH   7  11
BRANCH   1  19
ATOM     18  N   UNL     1       1.333   2.537  20.704  0.00  0.00    +0.000 N 
ATOM     19  C   UNL     1       1.166   2.576  19.349  0.00  0.00    +0.000 C 
ATOM     20  O   UNL     1       0.140   2.156  18.820  0.00  0.00    +0.000 OA
ATOM     21  H   UNL     1       0.544   2.212  21.246  0.00  0.00    +0.000 HD
ATOM     22  H   UNL     1       2.015   3.116  21.174  0.00  0.00    +0.000 HD
ENDBRANCH   1  19
BRANCH   4  23
ATOM     23  N   UNL     1       5.261   5.085  16.200  0.00  0.00    +0.000 N 
ATOM     24  H   UNL     1       5.340   4.665  15.279  0.00  0.00    +0.000 HD
BRANCH  23  25
ATOM     25  C   UNL     1       6.526   5.549  16.787  0.00  0.00    +0.000 C 
ATOM     26  C   UNL     1       6.495   7.046  17.132  0.00  0.00    +0.000 C 
ATOM     27  C   UNL     1       7.828   7.453  17.753  0.00  0.00    +0.000 C 
ATOM     28  C   UNL     1       8.143   6.611  18.986  0.00  0.00    +0.000 C 
ATOM     29  N   UNL     1       8.116   5.176  18.694  0.00  0.00    +0.000 NA
ATOM     30  C   UNL     1       6.844   4.763  18.084  0.00  0.00    +0.000 C 
ATOM     31  H   UNL     1       8.261   4.653  19.558  0.00  0.00    +0.000 HD
ENDBRANCH  23  25
ENDBRANCH   4  23
TORSDOF 4
ENDMDL
