MODEL 1
REMARK VINA RESULT:      -9.3      0.000      0.000
REMARK  Name = 
REMARK  8 active torsions:
REMARK  status: ('A' for Active; 'I' for Inactive)
REMARK    1  A    between atoms: C_1  and  O_2
REMARK    2  A    between atoms: O_2  and  C_3
REMARK    3  A    between atoms: C_6  and  C_7
REMARK    4  A    between atoms: C_9  and  C_10
REMARK    5  A    between atoms: C_10  and  N_11
REMARK    6  A    between atoms: C_12  and  C_14
REMARK    7  A    between atoms: C_15  and  C_16
REMARK    8  A    between atoms: C_20  and  O_21
REMARK                            x       y       z     vdW  Elec       q    Type
REMARK                         _______ _______ _______ _____ _____    ______ ____
ROOT
ATOM      1  C   UNL     1       4.957   5.047  15.521  0.00  0.00    +0.000 A 
ATOM      2  N   UNL     1       5.457   6.321  15.689  0.00  0.00    +0.000 NA
ATOM      3  C   UNL     1       5.409   6.929  16.862  0.00  0.00    +0.000 A 
ATOM      4  C   UNL     1       4.271   6.823  17.593  0.00  0.00    +0.000 A 
ATOM      5  C   UNL     1       4.001   5.459  17.745  0.00  0.00    +0.000 A 
ATOM      6  C   UNL     1       4.283   4.545  16.695  0.00  0.00    +0.000 A 
ATOM      7  N   UNL     1       3.730   3.352  17.172  0.00  0.00    +0.000 N 
ATOM      8  C   UNL     1       3.141   3.512  18.442  0.00  0.00    +0.000 A 
ATOM      9  C   UNL     1       2.402   2.666  19.298  0.00  0.00    +0.000 A 
ATOM     10  C   UNL     1       1.946   3.185  20.540  0.00  0.00    +0.000 A 
ATOM     11  C   UNL     1       2.246   4.479  20.954  0.00  0.00    +0.000 A 
ATOM     12  C   UNL     1       2.983   5.294  20.105  0.00  0.00    +0.000 A 
ATOM     13  C   UNL     1       3.375   4.821  18.833  0.00  0.00    +0.000 A 
ATOM     14  H   UNL     1       3.746   2.469  16.680  0.00  0.00    +0.000 HD
ENDROOT
BRANCH   1  18
ATOM     15  C   UNL     1       6.883   3.252  12.023  0.00  0.00    +0.000 A 
ATOM     16  C   UNL     1       5.483   3.202  12.153  0.00  0.00    +0.000 A 
ATOM     17  C   UNL     1       4.772   3.850  13.210  0.00  0.00    +0.000 A 
ATOM     18  C   UNL     1       5.456   4.571  14.184  0.00  0.00    +0.000 A 
ATOM     19  C   UNL     1       6.877   4.662  13.960  0.00  0.00    +0.000 A 
ATOM     20  C   UNL     1       7.586   4.007  12.936  0.00  0.00    +0.000 A 
BRANCH  15  22
ATOM     21  C   UNL     1       7.069   1.128  10.914  0.00  0.00    +0.000 C 
ATOM     22  O   UNL     1       7.430   2.508  11.013  0.00  0.00    +0.000 OA
ENDBRANCH  15  22
ENDBRANCH   1  18
BRANCH   3  23
ATOM     23  C   UNL     1       6.738   6.970  17.580  0.00  0.00    +0.000 C 
BRANCH  23  24
ATOM     24  N   UNL     1       7.357   8.246  17.375  0.00  0.00    +0.000 N 
ATOM     25  C   UNL     1       8.343   8.670  18.215  0.00  0.00    +0.000 C 
ATOM     26  O   UNL     1       8.863   7.985  19.085  0.00  0.00    +0.000 OA
ATOM     27  H   UNL     1       6.907   8.873  16.727  0.00  0.00    +0.000 HD
BRANCH  25  28
ATOM     28  C   UNL     1       8.683  10.084  17.997  0.00  0.00    +0.000 C 
ATOM     29  C   UNL     1       9.688  10.599  18.714  0.00  0.00    +0.000 C 
BRANCH  29  30
ATOM     30  C   UNL     1      10.098  11.993  18.617  0.00  0.00    +0.000 A 
ATOM     31  C   UNL     1      10.034  12.782  19.774  0.00  0.00    +0.000 A 
ATOM     32  C   UNL     1      10.369  14.134  19.727  0.00  0.00    +0.000 A 
ATOM     33  C   UNL     1      10.764  14.712  18.520  0.00  0.00    +0.000 A 
ATOM     34  C   UNL     1      10.810  13.929  17.371  0.00  0.00    +0.000 A 
ATOM     35  C   UNL     1      10.481  12.579  17.409  0.00  0.00    +0.000 A 
BRANCH  34  36
ATOM     36  O   UNL     1      11.174  14.446  16.172  0.00  0.00    +0.000 OA
ATOM     37  H   UNL     1      11.430  13.714  15.575  0.00  0.00    +0.000 HD
ENDBRANCH  34  36
ENDBRANCH  29  30
ENDBRANCH  25  28
ENDBRANCH  23  24
ENDBRANCH   3  23
TORSDOF 7
ENDMDL
MODEL 2
REMARK VINA RESULT:      -9.0      1.450      1.676
REMARK  Name = 
REMARK  8 active torsions:
REMARK  status: ('A' for Active; 'I' for Inactive)
REMARK    1  A    between atoms: C_1  and  O_2
REMARK    2  A    between atoms: O_2  and  C_3
REMARK    3  A    between atoms: C_6  and  C_7
REMARK    4  A    between atoms: C_9  and  C_10
REMARK    5  A    between atoms: C_10  and  N_11
REMARK    6  A    between atoms: C_12  and  C_14
REMARK    7  A    between atoms: C_15  and  C_16
REMARK    8  A    between atoms: C_20  and  O_21
REMARK                            x       y       z     vdW  Elec       q    Type
REMARK                         _______ _______ _______ _____ _____    ______ ____
ROOT
ATOM      1  C   UNL     1       4.956   4.792  15.808  0.00  0.00    +0.000 A 
ATOM      2  N   UNL     1       5.749   5.839  16.227  0.00  0.00    +0.000 NA
ATOM      3  C   UNL     1       5.764   6.228  17.491  0.00  0.00    +0.000 A 
ATOM      4  C   UNL     1       4.581   6.305  18.151  0.00  0.00    +0.000 A 
ATOM      5  C   UNL     1       3.960   5.057  18.038  0.00  0.00    +0.000 A 
ATOM      6  C   UNL     1       4.082   4.294  16.846  0.00  0.00    +0.000 A 
ATOM      7  N   UNL     1       3.207   3.227  17.074  0.00  0.00    +0.000 N 
ATOM      8  C   UNL     1       2.577   3.319  18.331  0.00  0.00    +0.000 A 
ATOM      9  C   UNL     1       1.580   2.567  18.990  0.00  0.00    +0.000 A 
ATOM     10  C   UNL     1       1.173   2.968  20.290  0.00  0.00    +0.000 A 
ATOM     11  C   UNL     1       1.758   4.045  20.948  0.00  0.00    +0.000 A 
ATOM     12  C   UNL     1       2.745   4.768  20.290  0.00  0.00    +0.000 A 
ATOM     13  C   UNL     1       3.105   4.432  18.966  0.00  0.00    +0.000 A 
ATOM     14  H   UNL     1       3.036   2.470  16.427  0.00  0.00    +0.000 HD
ENDROOT
BRANCH   1  18
ATOM     15  C   UNL     1       6.881   3.423  12.122  0.00  0.00    +0.000 A 
ATOM     16  C   UNL     1       5.522   3.134  12.351  0.00  0.00    +0.000 A 
ATOM     17  C   UNL     1       4.797   3.630  13.478  0.00  0.00    +0.000 A 
ATOM     18  C   UNL     1       5.423   4.435  14.424  0.00  0.00    +0.000 A 
ATOM     19  C   UNL     1       6.787   4.771  14.101  0.00  0.00    +0.000 A 
ATOM     20  C   UNL     1       7.515   4.268  13.007  0.00  0.00    +0.000 A 
BRANCH  15  22
ATOM     21  C   UNL     1       7.113   1.446  10.775  0.00  0.00    +0.000 C 
ATOM     22  O   UNL     1       7.464   2.805  11.050  0.00  0.00    +0.000 OA
ENDBRANCH  15  22
ENDBRANCH   1  18
BRANCH   3  23
ATOM     23  C   UNL     1       6.996   5.791  18.248  0.00  0.00    +0.000 C 
BRANCH  23  24
ATOM     24  N   UNL     1       7.639   6.935  18.822  0.00  0.00    +0.000 N 
ATOM     25  C   UNL     1       8.049   7.961  18.024  0.00  0.00    +0.000 C 
ATOM     26  O   UNL     1       7.794   8.064  16.832  0.00  0.00    +0.000 OA
ATOM     27  H   UNL     1       7.941   6.856  19.781  0.00  0.00    +0.000 HD
BRANCH  25  28
ATOM     28  C   UNL     1       8.893   8.922  18.751  0.00  0.00    +0.000 C 
ATOM     29  C   UNL     1       8.904  10.188  18.321  0.00  0.00    +0.000 C 
BRANCH  29  30
ATOM     30  C   UNL     1       9.724  11.225  18.931  0.00  0.00    +0.000 A 
ATOM     31  C   UNL     1      10.934  11.563  18.308  0.00  0.00    +0.000 A 
ATOM     32  C   UNL     1      11.780  12.514  18.875  0.00  0.00    +0.000 A 
ATOM     33  C   UNL     1      11.428  13.132  20.075  0.00  0.00    +0.000 A 
ATOM     34  C   UNL     1      10.234  12.782  20.698  0.00  0.00    +0.000 A 
ATOM     35  C   UNL     1       9.383  11.837  20.139  0.00  0.00    +0.000 A 
BRANCH  34  36
ATOM     36  O   UNL     1       9.853  13.344  21.872  0.00  0.00    +0.000 OA
ATOM     37  H   UNL     1       9.594  14.273  21.710  0.00  0.00    +0.000 HD
ENDBRANCH  34  36
ENDBRANCH  29  30
ENDBRANCH  25  28
ENDBRANCH  23  24
ENDBRANCH   3  23
TORSDOF 7
ENDMDL
MODEL 3
REMARK VINA RESULT:      -8.9      7.334      8.606
REMARK  Name = 
REMARK  8 active torsions:
REMARK  status: ('A' for Active; 'I' for Inactive)
REMARK    1  A    between atoms: C_1  and  O_2
REMARK    2  A    between atoms: O_2  and  C_3
REMARK    3  A    between atoms: C_6  and  C_7
REMARK    4  A    between atoms: C_9  and  C_10
REMARK    5  A    between atoms: C_10  and  N_11
REMARK    6  A    between atoms: C_12  and  C_14
REMARK    7  A    between atoms: C_15  and  C_16
REMARK    8  A    between atoms: C_20  and  O_21
REMARK                            x       y       z     vdW  Elec       q    Type
REMARK                         _______ _______ _______ _____ _____    ______ ____
ROOT
ATOM      1  C   UNL     1       1.968   8.106  19.038  0.00  0.00    +0.000 A 
ATOM      2  N   UNL     1       1.999   8.823  17.861  0.00  0.00    +0.000 NA
ATOM      3  C   UNL     1       1.493  10.042  17.785  0.00  0.00    +0.000 A 
ATOM      4  C   UNL     1       0.305  10.283  18.394  0.00  0.00    +0.000 A 
ATOM      5  C   UNL     1       0.439   9.898  19.732  0.00  0.00    +0.000 A 
ATOM      6  C   UNL     1       1.225   8.769  20.085  0.00  0.00    +0.000 A 
ATOM      7  N   UNL     1       0.970   8.634  21.454  0.00  0.00    +0.000 N 
ATOM      8  C   UNL     1       0.080   9.619  21.926  0.00  0.00    +0.000 A 
ATOM      9  C   UNL     1      -0.542   9.869  23.169  0.00  0.00    +0.000 A 
ATOM     10  C   UNL     1      -1.412  10.986  23.281  0.00  0.00    +0.000 A 
ATOM     11  C   UNL     1      -1.630  11.862  22.222  0.00  0.00    +0.000 A 
ATOM     12  C   UNL     1      -1.002  11.608  21.010  0.00  0.00    +0.000 A 
ATOM     13  C   UNL     1      -0.197  10.457  20.858  0.00  0.00    +0.000 A 
ATOM     14  H   UNL     1       1.371   7.923  22.050  0.00  0.00    +0.000 HD
ENDROOT
BRANCH   1  18
ATOM     15  C   UNL     1       5.185   5.194  18.460  0.00  0.00    +0.000 A 
ATOM     16  C   UNL     1       4.265   5.020  19.510  0.00  0.00    +0.000 A 
ATOM     17  C   UNL     1       3.130   5.867  19.704  0.00  0.00    +0.000 A 
ATOM     18  C   UNL     1       2.888   6.933  18.842  0.00  0.00    +0.000 A 
ATOM     19  C   UNL     1       3.810   7.018  17.737  0.00  0.00    +0.000 A 
ATOM     20  C   UNL     1       4.941   6.202  17.553  0.00  0.00    +0.000 A 
BRANCH  15  22
ATOM     21  C   UNL     1       7.380   4.694  17.617  0.00  0.00    +0.000 C 
ATOM     22  O   UNL     1       6.271   4.360  18.455  0.00  0.00    +0.000 OA
ENDBRANCH  15  22
ENDBRANCH   1  18
BRANCH   3  23
ATOM     23  C   UNL     1       2.538  11.134  17.766  0.00  0.00    +0.000 C 
BRANCH  23  24
ATOM     24  N   UNL     1       1.900  12.413  17.862  0.00  0.00    +0.000 N 
ATOM     25  C   UNL     1       2.614  13.504  18.258  0.00  0.00    +0.000 C 
ATOM     26  O   UNL     1       3.825  13.526  18.422  0.00  0.00    +0.000 OA
ATOM     27  H   UNL     1       0.893  12.425  17.818  0.00  0.00    +0.000 HD
BRANCH  25  28
ATOM     28  C   UNL     1       1.747  14.662  18.528  0.00  0.00    +0.000 C 
ATOM     29  C   UNL     1       0.495  14.419  18.931  0.00  0.00    +0.000 C 
BRANCH  29  30
ATOM     30  C   UNL     1      -0.471  15.477  19.196  0.00  0.00    +0.000 A 
ATOM     31  C   UNL     1      -0.458  16.607  18.365  0.00  0.00    +0.000 A 
ATOM     32  C   UNL     1      -1.329  17.669  18.603  0.00  0.00    +0.000 A 
ATOM     33  C   UNL     1      -2.216  17.615  19.678  0.00  0.00    +0.000 A 
ATOM     34  C   UNL     1      -2.214  16.498  20.509  0.00  0.00    +0.000 A 
ATOM     35  C   UNL     1      -1.352  15.433  20.278  0.00  0.00    +0.000 A 
BRANCH  34  36
ATOM     36  O   UNL     1      -3.047  16.403  21.574  0.00  0.00    +0.000 OA
ATOM     37  H   UNL     1      -3.034  15.483  21.906  0.00  0.00    +0.000 HD
ENDBRANCH  34  36
ENDBRANCH  29  30
ENDBRANCH  25  28
ENDBRANCH  23  24
ENDBRANCH   3  23
TORSDOF 7
ENDMDL
MODEL 4
REMARK VINA RESULT:      -8.8      8.109     11.020
REMARK  Name = 
REMARK  8 active torsions:
REMARK  status: ('A' for Active; 'I' for Inactive)
REMARK    1  A    between atoms: C_1  and  O_2
REMARK    2  A    between atoms: O_2  and  C_3
REMARK    3  A    between atoms: C_6  and  C_7
REMARK    4  A    between atoms: C_9  and  C_10
REMARK    5  A    between atoms: C_10  and  N_11
REMARK    6  A    between atoms: C_12  and  C_14
REMARK    7  A    between atoms: C_15  and  C_16
REMARK    8  A    between atoms: C_20  and  O_21
REMARK                            x       y       z     vdW  Elec       q    Type
REMARK                         _______ _______ _______ _____ _____    ______ ____
ROOT
ATOM      1  C   UNL     1      -1.856  11.881  19.447  0.00  0.00    +0.000 A 
ATOM      2  N   UNL     1      -0.489  11.760  19.320  0.00  0.00    +0.000 NA
ATOM      3  C   UNL     1       0.326  12.091  20.307  0.00  0.00    +0.000 A 
ATOM      4  C   UNL     1       0.066  13.230  20.997  0.00  0.00    +0.000 A 
ATOM      5  C   UNL     1      -1.249  13.141  21.466  0.00  0.00    +0.000 A 
ATOM      6  C   UNL     1      -2.255  12.517  20.681  0.00  0.00    +0.000 A 
ATOM      7  N   UNL     1      -3.419  12.779  21.412  0.00  0.00    +0.000 N 
ATOM      8  C   UNL     1      -3.154  13.520  22.581  0.00  0.00    +0.000 A 
ATOM      9  C   UNL     1      -3.962  14.092  23.588  0.00  0.00    +0.000 A 
ATOM     10  C   UNL     1      -3.332  14.798  24.647  0.00  0.00    +0.000 A 
ATOM     11  C   UNL     1      -1.947  14.899  24.746  0.00  0.00    +0.000 A 
ATOM     12  C   UNL     1      -1.166  14.321  23.753  0.00  0.00    +0.000 A 
ATOM     13  C   UNL     1      -1.780  13.686  22.651  0.00  0.00    +0.000 A 
ATOM     14  H   UNL     1      -4.347  12.477  21.151  0.00  0.00    +0.000 HD
ENDROOT
BRANCH   1  18
ATOM     15  C   UNL     1      -3.631  10.370  15.741  0.00  0.00    +0.000 A 
ATOM     16  C   UNL     1      -2.461   9.776  16.249  0.00  0.00    +0.000 A 
ATOM     17  C   UNL     1      -1.878  10.143  17.501  0.00  0.00    +0.000 A 
ATOM     18  C   UNL     1      -2.457  11.136  18.287  0.00  0.00    +0.000 A 
ATOM     19  C   UNL     1      -3.696  11.653  17.764  0.00  0.00    +0.000 A 
ATOM     20  C   UNL     1      -4.263  11.313  16.522  0.00  0.00    +0.000 A 
BRANCH  15  22
ATOM     21  C   UNL     1      -3.016   9.835  13.480  0.00  0.00    +0.000 C 
ATOM     22  O   UNL     1      -4.019   9.980  14.488  0.00  0.00    +0.000 OA
ENDBRANCH  15  22
ENDBRANCH   1  18
BRANCH   3  23
ATOM     23  C   UNL     1       0.901  10.905  21.044  0.00  0.00    +0.000 C 
BRANCH  23  24
ATOM     24  N   UNL     1       1.251   9.879  20.107  0.00  0.00    +0.000 N 
ATOM     25  C   UNL     1       1.312   8.578  20.510  0.00  0.00    +0.000 C 
ATOM     26  O   UNL     1       0.955   8.168  21.606  0.00  0.00    +0.000 OA
ATOM     27  H   UNL     1       1.630  10.178  19.223  0.00  0.00    +0.000 HD
BRANCH  25  28
ATOM     28  C   UNL     1       1.915   7.711  19.486  0.00  0.00    +0.000 C 
ATOM     29  C   UNL     1       2.506   6.584  19.897  0.00  0.00    +0.000 C 
BRANCH  29  30
ATOM     30  C   UNL     1       3.171   5.661  18.987  0.00  0.00    +0.000 A 
ATOM     31  C   UNL     1       2.405   5.066  17.974  0.00  0.00    +0.000 A 
ATOM     32  C   UNL     1       2.979   4.139  17.106  0.00  0.00    +0.000 A 
ATOM     33  C   UNL     1       4.323   3.792  17.247  0.00  0.00    +0.000 A 
ATOM     34  C   UNL     1       5.075   4.373  18.264  0.00  0.00    +0.000 A 
ATOM     35  C   UNL     1       4.512   5.301  19.132  0.00  0.00    +0.000 A 
BRANCH  34  36
ATOM     36  O   UNL     1       6.380   4.060  18.451  0.00  0.00    +0.000 OA
ATOM     37  H   UNL     1       6.911   4.475  17.742  0.00  0.00    +0.000 HD
ENDBRANCH  34  36
ENDBRANCH  29  30
ENDBRANCH  25  28
ENDBRANCH  23  24
ENDBRANCH   3  23
TORSDOF 7
ENDMDL
MODEL 5
REMARK VINA RESULT:      -8.7      8.461     11.591
REMARK  Name = 
REMARK  8 active torsions:
REMARK  status: ('A' for Active; 'I' for Inactive)
REMARK    1  A    between atoms: C_1  and  O_2
REMARK    2  A    between atoms: O_2  and  C_3
REMARK    3  A    between atoms: C_6  and  C_7
REMARK    4  A    between atoms: C_9  and  C_10
REMARK    5  A    between atoms: C_10  and  N_11
REMARK    6  A    between atoms: C_12  and  C_14
REMARK    7  A    between atoms: C_15  and  C_16
REMARK    8  A    between atoms: C_20  and  O_21
REMARK                            x       y       z     vdW  Elec       q    Type
REMARK                         _______ _______ _______ _____ _____    ______ ____
ROOT
ATOM      1  C   UNL     1      -1.872  12.322  19.694  0.00  0.00    +0.000 A 
ATOM      2  N   UNL     1      -0.575  12.619  19.332  0.00  0.00    +0.000 NA
ATOM      3  C   UNL     1       0.270  13.166  20.190  0.00  0.00    +0.000 A 
ATOM      4  C   UNL     1      -0.184  14.165  20.988  0.00  0.00    +0.000 A 
ATOM      5  C   UNL     1      -1.309  13.678  21.663  0.00  0.00    +0.000 A 
ATOM      6  C   UNL     1      -2.212  12.791  21.017  0.00  0.00    +0.000 A 
ATOM      7  N   UNL     1      -3.250  12.681  21.948  0.00  0.00    +0.000 N 
ATOM      8  C   UNL     1      -3.009  13.451  23.103  0.00  0.00    +0.000 A 
ATOM      9  C   UNL     1      -3.756  13.739  24.267  0.00  0.00    +0.000 A 
ATOM     10  C   UNL     1      -3.181  14.587  25.251  0.00  0.00    +0.000 A 
ATOM     11  C   UNL     1      -1.893  15.099  25.123  0.00  0.00    +0.000 A 
ATOM     12  C   UNL     1      -1.168  14.796  23.978  0.00  0.00    +0.000 A 
ATOM     13  C   UNL     1      -1.756  14.021  22.954  0.00  0.00    +0.000 A 
ATOM     14  H   UNL     1      -4.080  12.117  21.825  0.00  0.00    +0.000 HD
ENDROOT
BRANCH   1  18
ATOM     15  C   UNL     1      -3.604  10.406  16.159  0.00  0.00    +0.000 A 
ATOM     16  C   UNL     1      -2.348   9.989  16.636  0.00  0.00    +0.000 A 
ATOM     17  C   UNL     1      -1.761  10.492  17.838  0.00  0.00    +0.000 A 
ATOM     18  C   UNL     1      -2.424  11.447  18.603  0.00  0.00    +0.000 A 
ATOM     19  C   UNL     1      -3.740  11.779  18.118  0.00  0.00    +0.000 A 
ATOM     20  C   UNL     1      -4.315  11.305  16.924  0.00  0.00    +0.000 A 
BRANCH  15  22
ATOM     21  C   UNL     1      -3.082   9.986  13.851  0.00  0.00    +0.000 C 
ATOM     22  O   UNL     1      -3.996   9.904  14.948  0.00  0.00    +0.000 OA
ENDBRANCH  15  22
ENDBRANCH   1  18
BRANCH   3  23
ATOM     23  C   UNL     1       1.290  12.198  20.740  0.00  0.00    +0.000 C 
BRANCH  23  24
ATOM     24  N   UNL     1       0.958  10.865  20.332  0.00  0.00    +0.000 N 
ATOM     25  C   UNL     1       0.939   9.855  21.248  0.00  0.00    +0.000 C 
ATOM     26  O   UNL     1       1.056  10.005  22.456  0.00  0.00    +0.000 OA
ATOM     27  H   UNL     1       0.936  10.682  19.341  0.00  0.00    +0.000 HD
BRANCH  25  28
ATOM     28  C   UNL     1       0.817   8.535  20.611  0.00  0.00    +0.000 C 
ATOM     29  C   UNL     1       1.870   7.714  20.678  0.00  0.00    +0.000 C 
BRANCH  29  30
ATOM     30  C   UNL     1       1.889   6.396  20.058  0.00  0.00    +0.000 A 
ATOM     31  C   UNL     1       2.435   6.279  18.772  0.00  0.00    +0.000 A 
ATOM     32  C   UNL     1       2.435   5.050  18.113  0.00  0.00    +0.000 A 
ATOM     33  C   UNL     1       1.881   3.929  18.730  0.00  0.00    +0.000 A 
ATOM     34  C   UNL     1       1.325   4.053  20.000  0.00  0.00    +0.000 A 
ATOM     35  C   UNL     1       1.325   5.273  20.666  0.00  0.00    +0.000 A 
BRANCH  34  36
ATOM     36  O   UNL     1       0.763   2.997  20.637  0.00  0.00    +0.000 OA
ATOM     37  H   UNL     1       1.286   2.194  20.441  0.00  0.00    +0.000 HD
ENDBRANCH  34  36
ENDBRANCH  29  30
ENDBRANCH  25  28
ENDBRANCH  23  24
ENDBRANCH   3  23
TORSDOF 7
ENDMDL
MODEL 6
REMARK VINA RESULT:      -8.7      8.411     11.894
REMARK  Name = 
REMARK  8 active torsions:
REMARK  status: ('A' for Active; 'I' for Inactive)
REMARK    1  A    between atoms: C_1  and  O_2
REMARK    2  A    between atoms: O_2  and  C_3
REMARK    3  A    between atoms: C_6  and  C_7
REMARK    4  A    between atoms: C_9  and  C_10
REMARK    5  A    between atoms: C_10  and  N_11
REMARK    6  A    between atoms: C_12  and  C_14
REMARK    7  A    between atoms: C_15  and  C_16
REMARK    8  A    between atoms: C_20  and  O_21
REMARK                            x       y       z     vdW  Elec       q    Type
REMARK                         _______ _______ _______ _____ _____    ______ ____
ROOT
ATOM      1  C   UNL     1       0.742   9.937  20.456  0.00  0.00    +0.000 A 
ATOM      2  N   UNL     1       0.496  10.615  19.282  0.00  0.00    +0.000 NA
ATOM      3  C   UNL     1       0.658  10.035  18.105  0.00  0.00    +0.000 A 
ATOM      4  C   UNL     1       1.754   9.257  17.920  0.00  0.00    +0.000 A 
ATOM      5  C   UNL     1       1.758   8.296  18.936  0.00  0.00    +0.000 A 
ATOM      6  C   UNL     1       1.307   8.624  20.243  0.00  0.00    +0.000 A 
ATOM      7  N   UNL     1       1.621   7.473  20.973  0.00  0.00    +0.000 N 
ATOM      8  C   UNL     1       2.229   6.487  20.170  0.00  0.00    +0.000 A 
ATOM      9  C   UNL     1       2.791   5.218  20.428  0.00  0.00    +0.000 A 
ATOM     10  C   UNL     1       3.337   4.482  19.342  0.00  0.00    +0.000 A 
ATOM     11  C   UNL     1       3.291   4.954  18.034  0.00  0.00    +0.000 A 
ATOM     12  C   UNL     1       2.725   6.199  17.796  0.00  0.00    +0.000 A 
ATOM     13  C   UNL     1       2.250   6.978  18.875  0.00  0.00    +0.000 A 
ATOM     14  H   UNL     1       1.436   7.344  21.958  0.00  0.00    +0.000 HD
ENDROOT
BRANCH   1  18
ATOM     15  C   UNL     1      -1.262  12.771  23.124  0.00  0.00    +0.000 A 
ATOM     16  C   UNL     1      -1.425  11.388  23.323  0.00  0.00    +0.000 A 
ATOM     17  C   UNL     1      -0.727  10.400  22.562  0.00  0.00    +0.000 A 
ATOM     18  C   UNL     1       0.162  10.778  21.559  0.00  0.00    +0.000 A 
ATOM     19  C   UNL     1       0.356  12.202  21.451  0.00  0.00    +0.000 A 
ATOM     20  C   UNL     1      -0.345  13.180  22.181  0.00  0.00    +0.000 A 
BRANCH  15  22
ATOM     21  C   UNL     1      -1.522  14.832  24.332  0.00  0.00    +0.000 C 
ATOM     22  O   UNL     1      -2.065  13.594  23.866  0.00  0.00    +0.000 OA
ENDBRANCH  15  22
ENDBRANCH   1  18
BRANCH   3  23
ATOM     23  C   UNL     1      -0.638   9.641  17.437  0.00  0.00    +0.000 C 
BRANCH  23  24
ATOM     24  N   UNL     1      -1.743  10.162  18.186  0.00  0.00    +0.000 N 
ATOM     25  C   UNL     1      -2.539  11.128  17.647  0.00  0.00    +0.000 C 
ATOM     26  O   UNL     1      -2.479  11.518  16.489  0.00  0.00    +0.000 OA
ATOM     27  H   UNL     1      -1.779   9.932  19.167  0.00  0.00    +0.000 HD
BRANCH  25  28
ATOM     28  C   UNL     1      -3.459  11.703  18.641  0.00  0.00    +0.000 C 
ATOM     29  C   UNL     1      -2.958  12.584  19.513  0.00  0.00    +0.000 C 
BRANCH  29  30
ATOM     30  C   UNL     1      -3.755  13.197  20.567  0.00  0.00    +0.000 A 
ATOM     31  C   UNL     1      -3.595  14.570  20.803  0.00  0.00    +0.000 A 
ATOM     32  C   UNL     1      -4.298  15.197  21.831  0.00  0.00    +0.000 A 
ATOM     33  C   UNL     1      -5.162  14.456  22.636  0.00  0.00    +0.000 A 
ATOM     34  C   UNL     1      -5.305  13.091  22.409  0.00  0.00    +0.000 A 
ATOM     35  C   UNL     1      -4.612  12.457  21.385  0.00  0.00    +0.000 A 
BRANCH  34  36
ATOM     36  O   UNL     1      -6.122  12.324  23.173  0.00  0.00    +0.000 OA
ATOM     37  H   UNL     1      -5.575  11.713  23.706  0.00  0.00    +0.000 HD
ENDBRANCH  34  36
ENDBRANCH  29  30
ENDBRANCH  25  28
ENDBRANCH  23  24
ENDBRANCH   3  23
TORSDOF 7
ENDMDL
MODEL 7
REMARK VINA RESULT:      -8.7      8.353     12.070
REMARK  Name = 
REMARK  8 active torsions:
REMARK  status: ('A' for Active; 'I' for Inactive)
REMARK    1  A    between atoms: C_1  and  O_2
REMARK    2  A    between atoms: O_2  and  C_3
REMARK    3  A    between atoms: C_6  and  C_7
REMARK    4  A    between atoms: C_9  and  C_10
REMARK    5  A    between atoms: C_10  and  N_11
REMARK    6  A    between atoms: C_12  and  C_14
REMARK    7  A    between atoms: C_15  and  C_16
REMARK    8  A    between atoms: C_20  and  O_21
REMARK                            x       y       z     vdW  Elec       q    Type
REMARK                         _______ _______ _______ _____ _____    ______ ____
ROOT
ATOM      1  C   UNL     1       1.022   9.459  20.393  0.00  0.00    +0.000 A 
ATOM      2  N   UNL     1       0.935  10.198  19.233  0.00  0.00    +0.000 NA
ATOM      3  C   UNL     1       1.201   9.663  18.054  0.00  0.00    +0.000 A 
ATOM      4  C   UNL     1       2.277   8.842  17.951  0.00  0.00    +0.000 A 
ATOM      5  C   UNL     1       2.128   7.840  18.914  0.00  0.00    +0.000 A 
ATOM      6  C   UNL     1       1.551   8.132  20.179  0.00  0.00    +0.000 A 
ATOM      7  N   UNL     1       1.733   6.936  20.882  0.00  0.00    +0.000 N 
ATOM      8  C   UNL     1       2.384   5.958  20.104  0.00  0.00    +0.000 A 
ATOM      9  C   UNL     1       2.860   4.654  20.359  0.00  0.00    +0.000 A 
ATOM     10  C   UNL     1       3.490   3.941  19.304  0.00  0.00    +0.000 A 
ATOM     11  C   UNL     1       3.608   4.470  18.023  0.00  0.00    +0.000 A 
ATOM     12  C   UNL     1       3.124   5.750  17.785  0.00  0.00    +0.000 A 
ATOM     13  C   UNL     1       2.567   6.503  18.843  0.00  0.00    +0.000 A 
ATOM     14  H   UNL     1       1.436   6.774  21.834  0.00  0.00    +0.000 HD
ENDROOT
BRANCH   1  18
ATOM     15  C   UNL     1      -1.296  12.138  22.966  0.00  0.00    +0.000 A 
ATOM     16  C   UNL     1      -1.236  10.763  23.261  0.00  0.00    +0.000 A 
ATOM     17  C   UNL     1      -0.422   9.842  22.532  0.00  0.00    +0.000 A 
ATOM     18  C   UNL     1       0.360  10.278  21.467  0.00  0.00    +0.000 A 
ATOM     19  C   UNL     1       0.328  11.704  21.259  0.00  0.00    +0.000 A 
ATOM     20  C   UNL     1      -0.487  12.613  21.957  0.00  0.00    +0.000 A 
BRANCH  15  22
ATOM     21  C   UNL     1      -3.584  12.651  23.490  0.00  0.00    +0.000 C 
ATOM     22  O   UNL     1      -2.187  12.880  23.692  0.00  0.00    +0.000 OA
ENDBRANCH  15  22
ENDBRANCH   1  18
BRANCH   3  23
ATOM     23  C   UNL     1      -0.030   9.360  17.232  0.00  0.00    +0.000 C 
BRANCH  23  24
ATOM     24  N   UNL     1      -1.140  10.118  17.729  0.00  0.00    +0.000 N 
ATOM     25  C   UNL     1      -2.253  10.284  16.961  0.00  0.00    +0.000 C 
ATOM     26  O   UNL     1      -2.459   9.716  15.897  0.00  0.00    +0.000 OA
ATOM     27  H   UNL     1      -0.981  10.669  18.559  0.00  0.00    +0.000 HD
BRANCH  25  28
ATOM     28  C   UNL     1      -3.174  11.279  17.531  0.00  0.00    +0.000 C 
ATOM     29  C   UNL     1      -4.479  10.989  17.533  0.00  0.00    +0.000 C 
BRANCH  29  30
ATOM     30  C   UNL     1      -5.494  11.904  18.035  0.00  0.00    +0.000 A 
ATOM     31  C   UNL     1      -6.268  12.609  17.102  0.00  0.00    +0.000 A 
ATOM     32  C   UNL     1      -7.220  13.534  17.528  0.00  0.00    +0.000 A 
ATOM     33  C   UNL     1      -7.403  13.767  18.891  0.00  0.00    +0.000 A 
ATOM     34  C   UNL     1      -6.622  13.077  19.813  0.00  0.00    +0.000 A 
ATOM     35  C   UNL     1      -5.673  12.151  19.398  0.00  0.00    +0.000 A 
BRANCH  34  36
ATOM     36  O   UNL     1      -6.752  13.278  21.147  0.00  0.00    +0.000 OA
ATOM     37  H   UNL     1      -5.909  13.629  21.499  0.00  0.00    +0.000 HD
ENDBRANCH  34  36
ENDBRANCH  29  30
ENDBRANCH  25  28
ENDBRANCH  23  24
ENDBRANCH   3  23
TORSDOF 7
ENDMDL
MODEL 8
REMARK VINA RESULT:      -8.7      8.775     11.972
REMARK  Name = 
REMARK  8 active torsions:
REMARK  status: ('A' for Active; 'I' for Inactive)
REMARK    1  A    between atoms: C_1  and  O_2
REMARK    2  A    between atoms: O_2  and  C_3
REMARK    3  A    between atoms: C_6  and  C_7
REMARK    4  A    between atoms: C_9  and  C_10
REMARK    5  A    between atoms: C_10  and  N_11
REMARK    6  A    between atoms: C_12  and  C_14
REMARK    7  A    between atoms: C_15  and  C_16
REMARK    8  A    between atoms: C_20  and  O_21
REMARK                            x       y       z     vdW  Elec       q    Type
REMARK                         _______ _______ _______ _____ _____    ______ ____
ROOT
ATOM      1  C   UNL     1      -2.179  12.089  20.282  0.00  0.00    +0.000 A 
ATOM      2  N   UNL     1      -0.967  11.690  20.803  0.00  0.00    +0.000 NA
ATOM      3  C   UNL     1      -0.622  11.984  22.045  0.00  0.00    +0.000 A 
ATOM      4  C   UNL     1      -0.888  13.232  22.506  0.00  0.00    +0.000 A 
ATOM      5  C   UNL     1      -2.254  13.462  22.317  0.00  0.00    +0.000 A 
ATOM      6  C   UNL     1      -2.924  12.947  21.175  0.00  0.00    +0.000 A 
ATOM      7  N   UNL     1      -4.194  13.522  21.279  0.00  0.00    +0.000 N 
ATOM      8  C   UNL     1      -4.310  14.345  22.417  0.00  0.00    +0.000 A 
ATOM      9  C   UNL     1      -5.324  15.190  22.921  0.00  0.00    +0.000 A 
ATOM     10  C   UNL     1      -5.083  15.893  24.131  0.00  0.00    +0.000 A 
ATOM     11  C   UNL     1      -3.904  15.737  24.854  0.00  0.00    +0.000 A 
ATOM     12  C   UNL     1      -2.923  14.894  24.350  0.00  0.00    +0.000 A 
ATOM     13  C   UNL     1      -3.113  14.249  23.108  0.00  0.00    +0.000 A 
ATOM     14  H   UNL     1      -4.952  13.374  20.627  0.00  0.00    +0.000 HD
ENDROOT
BRANCH   1  18
ATOM     15  C   UNL     1      -2.683  10.536  16.219  0.00  0.00    +0.000 A 
ATOM     16  C   UNL     1      -1.666  10.020  17.044  0.00  0.00    +0.000 A 
ATOM     17  C   UNL     1      -1.500  10.401  18.412  0.00  0.00    +0.000 A 
ATOM     18  C   UNL     1      -2.358  11.328  18.997  0.00  0.00    +0.000 A 
ATOM     19  C   UNL     1      -3.430  11.762  18.138  0.00  0.00    +0.000 A 
ATOM     20  C   UNL     1      -3.586  11.410  16.784  0.00  0.00    +0.000 A 
BRANCH  15  22
ATOM     21  C   UNL     1      -3.901  10.079  14.199  0.00  0.00    +0.000 C 
ATOM     22  O   UNL     1      -2.661  10.147  14.908  0.00  0.00    +0.000 OA
ENDBRANCH  15  22
ENDBRANCH   1  18
BRANCH   3  23
ATOM     23  C   UNL     1      -0.726  10.816  22.998  0.00  0.00    +0.000 C 
BRANCH  23  24
ATOM     24  N   UNL     1      -0.549   9.589  22.277  0.00  0.00    +0.000 N 
ATOM     25  C   UNL     1       0.703   9.094  22.070  0.00  0.00    +0.000 C 
ATOM     26  O   UNL     1       1.725   9.543  22.571  0.00  0.00    +0.000 OA
ATOM     27  H   UNL     1      -1.350   9.233  21.779  0.00  0.00    +0.000 HD
BRANCH  25  28
ATOM     28  C   UNL     1       0.702   7.974  21.116  0.00  0.00    +0.000 C 
ATOM     29  C   UNL     1       1.761   7.158  21.116  0.00  0.00    +0.000 C 
BRANCH  29  30
ATOM     30  C   UNL     1       1.897   6.035  20.197  0.00  0.00    +0.000 A 
ATOM     31  C   UNL     1       2.400   6.290  18.913  0.00  0.00    +0.000 A 
ATOM     32  C   UNL     1       2.505   5.260  17.979  0.00  0.00    +0.000 A 
ATOM     33  C   UNL     1       2.102   3.969  18.318  0.00  0.00    +0.000 A 
ATOM     34  C   UNL     1       1.589   3.725  19.587  0.00  0.00    +0.000 A 
ATOM     35  C   UNL     1       1.483   4.743  20.527  0.00  0.00    +0.000 A 
BRANCH  34  36
ATOM     36  O   UNL     1       1.170   2.490  19.960  0.00  0.00    +0.000 OA
ATOM     37  H   UNL     1       1.059   1.938  19.161  0.00  0.00    +0.000 HD
ENDBRANCH  34  36
ENDBRANCH  29  30
ENDBRANCH  25  28
ENDBRANCH  23  24
ENDBRANCH   3  23
TORSDOF 7
ENDMDL
MODEL 9
REMARK VINA RESULT:      -8.7      8.358     12.075
REMARK  Name = 
REMARK  8 active torsions:
REMARK  status: ('A' for Active; 'I' for Inactive)
REMARK    1  A    between atoms: C_1  and  O_2
REMARK    2  A    between atoms: O_2  and  C_3
REMARK    3  A    between atoms: C_6  and  C_7
REMARK    4  A    between atoms: C_9  and  C_10
REMARK    5  A    between atoms: C_10  and  N_11
REMARK    6  A    between atoms: C_12  and  C_14
REMARK    7  A    between atoms: C_15  and  C_16
REMARK    8  A    between atoms: C_20  and  O_21
REMARK                            x       y       z     vdW  Elec       q    Type
REMARK                         _______ _______ _______ _____ _____    ______ ____
ROOT
ATOM      1  C   UNL     1       1.005   9.367  20.346  0.00  0.00    +0.000 A 
ATOM      2  N   UNL     1       0.932  10.123  19.195  0.00  0.00    +0.000 NA
ATOM      3  C   UNL     1       1.252   9.615  18.017  0.00  0.00    +0.000 A 
ATOM      4  C   UNL     1       2.356   8.829  17.936  0.00  0.00    +0.000 A 
ATOM      5  C   UNL     1       2.207   7.807  18.879  0.00  0.00    +0.000 A 
ATOM      6  C   UNL     1       1.581   8.060  20.129  0.00  0.00    +0.000 A 
ATOM      7  N   UNL     1       1.778   6.859  20.818  0.00  0.00    +0.000 N 
ATOM      8  C   UNL     1       2.482   5.915  20.046  0.00  0.00    +0.000 A 
ATOM      9  C   UNL     1       2.990   4.621  20.297  0.00  0.00    +0.000 A 
ATOM     10  C   UNL     1       3.676   3.945  19.252  0.00  0.00    +0.000 A 
ATOM     11  C   UNL     1       3.818   4.499  17.983  0.00  0.00    +0.000 A 
ATOM     12  C   UNL     1       3.303   5.768  17.751  0.00  0.00    +0.000 A 
ATOM     13  C   UNL     1       2.690   6.486  18.801  0.00  0.00    +0.000 A 
ATOM     14  H   UNL     1       1.455   6.672  21.758  0.00  0.00    +0.000 HD
ENDROOT
BRANCH   1  18
ATOM     15  C   UNL     1      -1.614  11.741  22.929  0.00  0.00    +0.000 A 
ATOM     16  C   UNL     1      -1.153  10.485  23.366  0.00  0.00    +0.000 A 
ATOM     17  C   UNL     1      -0.218   9.696  22.627  0.00  0.00    +0.000 A 
ATOM     18  C   UNL     1       0.284  10.147  21.410  0.00  0.00    +0.000 A 
ATOM     19  C   UNL     1      -0.153  11.473  21.049  0.00  0.00    +0.000 A 
ATOM     20  C   UNL     1      -1.091  12.245  21.758  0.00  0.00    +0.000 A 
BRANCH  15  22
ATOM     21  C   UNL     1      -3.760  12.816  23.052  0.00  0.00    +0.000 C 
ATOM     22  O   UNL     1      -2.576  12.339  23.697  0.00  0.00    +0.000 OA
ENDBRANCH  15  22
ENDBRANCH   1  18
BRANCH   3  23
ATOM     23  C   UNL     1       0.058   9.288  17.151  0.00  0.00    +0.000 C 
BRANCH  23  24
ATOM     24  N   UNL     1      -1.105   9.951  17.664  0.00  0.00    +0.000 N 
ATOM     25  C   UNL     1      -2.216  10.080  16.886  0.00  0.00    +0.000 C 
ATOM     26  O   UNL     1      -2.371   9.550  15.795  0.00  0.00    +0.000 OA
ATOM     27  H   UNL     1      -0.993  10.472  18.520  0.00  0.00    +0.000 HD
BRANCH  25  28
ATOM     28  C   UNL     1      -3.206  10.988  17.485  0.00  0.00    +0.000 C 
ATOM     29  C   UNL     1      -4.496  10.771  17.206  0.00  0.00    +0.000 C 
BRANCH  29  30
ATOM     30  C   UNL     1      -5.569  11.619  17.708  0.00  0.00    +0.000 A 
ATOM     31  C   UNL     1      -6.228  11.225  18.881  0.00  0.00    +0.000 A 
ATOM     32  C   UNL     1      -7.293  11.975  19.378  0.00  0.00    +0.000 A 
ATOM     33  C   UNL     1      -7.714  13.120  18.703  0.00  0.00    +0.000 A 
ATOM     34  C   UNL     1      -7.067  13.498  17.531  0.00  0.00    +0.000 A 
ATOM     35  C   UNL     1      -6.002  12.760  17.029  0.00  0.00    +0.000 A 
BRANCH  34  36
ATOM     36  O   UNL     1      -7.447  14.595  16.831  0.00  0.00    +0.000 OA
ATOM     37  H   UNL     1      -6.647  15.087  16.554  0.00  0.00    +0.000 HD
ENDBRANCH  34  36
ENDBRANCH  29  30
ENDBRANCH  25  28
ENDBRANCH  23  24
ENDBRANCH   3  23
TORSDOF 7
ENDMDL
