MODEL 1
REMARK VINA RESULT:      -8.8      0.000      0.000
REMARK  Name = 
REMARK  7 active torsions:
REMARK  status: ('A' for Active; 'I' for Inactive)
REMARK    1  A    between atoms: C_2  and  C_27
REMARK    2  A    between atoms: N_3  and  C_4
REMARK    3  A    between atoms: C_7  and  C_8
REMARK    4  A    between atoms: C_8  and  C_9
REMARK    5  A    between atoms: C_9  and  N_10
REMARK    6  A    between atoms: C_13  and  C_14
REMARK    7  A    between atoms: C_27  and  C_28
REMARK                            x       y       z     vdW  Elec       q    Type
REMARK                         _______ _______ _______ _____ _____    ______ ____
ROOT
ATOM      1  C   UNL     1       1.060  10.273  20.194  0.00  0.00    +0.000 C 
ATOM      2  C   UNL     1       0.488   9.492  21.382  0.00  0.00    +0.000 C 
ATOM      3  C   UNL     1       1.250   8.196  21.651  0.00  0.00    +0.000 C 
ATOM      4  C   UNL     1       1.304   7.318  20.392  0.00  0.00    +0.000 C 
ATOM      5  C   UNL     1       1.983   8.101  19.258  0.00  0.00    +0.000 C 
ATOM      6  C   UNL     1       1.239   9.394  18.950  0.00  0.00    +0.000 C 
ENDROOT
BRANCH   1   9
ATOM      7  O   UNL     1       1.134  12.814  21.460  0.00  0.00    +0.000 OA
ATOM      8  C   UNL     1       0.375  12.619  20.525  0.00  0.00    +0.000 C 
ATOM      9  N   UNL     1       0.205  11.411  19.889  0.00  0.00    +0.000 N 
ATOM     10  H   UNL     1      -0.344  11.380  19.039  0.00  0.00    +0.000 HD
BRANCH   8  11
ATOM     11  C   UNL     1      -0.462  13.726  20.000  0.00  0.00    +0.000 C 
ATOM     12  C   UNL     1      -1.909  13.843  20.493  0.00  0.00    +0.000 C 
ATOM     13  C   UNL     1      -0.885  14.802  21.007  0.00  0.00    +0.000 C 
BRANCH  11  14
ATOM     14  C   UNL     1      -0.120  14.157  18.607  0.00  0.00    +0.000 C 
ATOM     15  F   UNL     1       1.205  14.076  18.346  0.00  0.00    +0.000 F 
ATOM     16  F   UNL     1      -0.746  13.362  17.701  0.00  0.00    +0.000 F 
ATOM     17  F   UNL     1      -0.510  15.430  18.361  0.00  0.00    +0.000 F 
ENDBRANCH  11  14
ENDBRANCH   8  11
ENDBRANCH   1   9
BRANCH   4  18
ATOM     18  C   UNL     1       2.056   5.995  20.605  0.00  0.00    +0.000 C 
BRANCH  18  19
ATOM     19  C   UNL     1       1.214   4.725  20.447  0.00  0.00    +0.000 C 
BRANCH  19  20
ATOM     20  N   UNL     1       1.681   3.756  19.428  0.00  0.00    +0.000 NA
ATOM     21  C   UNL     1       1.965   4.432  18.152  0.00  0.00    +0.000 C 
ATOM     22  C   UNL     1       2.666   3.534  17.130  0.00  0.00    +0.000 C 
ATOM     23  C   UNL     1       3.984   2.946  17.668  0.00  0.00    +0.000 C 
ATOM     24  C   UNL     1       3.644   2.215  18.973  0.00  0.00    +0.000 C 
ATOM     25  C   UNL     1       2.873   3.080  19.973  0.00  0.00    +0.000 C 
BRANCH  23  26
ATOM     26  C   UNL     1       5.144   3.940  17.667  0.00  0.00    +0.000 A 
ATOM     27  C   UNL     1       5.513   4.553  18.887  0.00  0.00    +0.000 A 
ATOM     28  C   UNL     1       6.548   5.505  18.967  0.00  0.00    +0.000 A 
ATOM     29  C   UNL     1       7.253   5.878  17.828  0.00  0.00    +0.000 A 
ATOM     30  C   UNL     1       6.888   5.289  16.641  0.00  0.00    +0.000 A 
ATOM     31  C   UNL     1       5.861   4.365  16.552  0.00  0.00    +0.000 A 
ATOM     32  O   UNL     1       5.668   3.992  15.257  0.00  0.00    +0.000 OA
ATOM     33  C   UNL     1       6.768   4.633  14.592  0.00  0.00    +0.000 C 
ATOM     34  O   UNL     1       7.470   5.556  15.437  0.00  0.00    +0.000 OA
ENDBRANCH  23  26
ENDBRANCH  19  20
ENDBRANCH  18  19
ENDBRANCH   4  18
TORSDOF 7
ENDMDL
MODEL 2
REMARK VINA RESULT:      -8.4      6.839     10.134
REMARK  Name = 
REMARK  7 active torsions:
REMARK  status: ('A' for Active; 'I' for Inactive)
REMARK    1  A    between atoms: C_2  and  C_27
REMARK    2  A    between atoms: N_3  and  C_4
REMARK    3  A    between atoms: C_7  and  C_8
REMARK    4  A    between atoms: C_8  and  C_9
REMARK    5  A    between atoms: C_9  and  N_10
REMARK    6  A    between atoms: C_13  and  C_14
REMARK    7  A    between atoms: C_27  and  C_28
REMARK                            x       y       z     vdW  Elec       q    Type
REMARK                         _______ _______ _______ _____ _____    ______ ____
ROOT
ATOM      1  C   UNL     1       5.581   4.810  18.168  0.00  0.00    +0.000 C 
ATOM      2  C   UNL     1       5.047   6.003  17.370  0.00  0.00    +0.000 C 
ATOM      3  C   UNL     1       6.163   6.908  16.853  0.00  0.00    +0.000 C 
ATOM      4  C   UNL     1       7.068   7.378  18.001  0.00  0.00    +0.000 C 
ATOM      5  C   UNL     1       7.668   6.151  18.705  0.00  0.00    +0.000 C 
ATOM      6  C   UNL     1       6.582   5.233  19.251  0.00  0.00    +0.000 C 
ENDROOT
BRANCH   1   9
ATOM      7  O   UNL     1       3.040   5.872  18.862  0.00  0.00    +0.000 OA
ATOM      8  C   UNL     1       3.262   4.681  18.998  0.00  0.00    +0.000 C 
ATOM      9  N   UNL     1       4.475   4.075  18.764  0.00  0.00    +0.000 N 
ATOM     10  H   UNL     1       4.525   3.064  18.773  0.00  0.00    +0.000 HD
BRANCH   8  11
ATOM     11  C   UNL     1       2.186   3.769  19.460  0.00  0.00    +0.000 C 
ATOM     12  C   UNL     1       1.283   3.115  18.408  0.00  0.00    +0.000 C 
ATOM     13  C   UNL     1       2.332   2.291  19.082  0.00  0.00    +0.000 C 
BRANCH  11  14
ATOM     14  C   UNL     1       1.626   4.101  20.810  0.00  0.00    +0.000 C 
ATOM     15  F   UNL     1       1.005   3.048  21.389  0.00  0.00    +0.000 F 
ATOM     16  F   UNL     1       2.622   4.480  21.652  0.00  0.00    +0.000 F 
ATOM     17  F   UNL     1       0.738   5.121  20.753  0.00  0.00    +0.000 F 
ENDBRANCH  11  14
ENDBRANCH   8  11
ENDBRANCH   1   9
BRANCH   4  18
ATOM     18  C   UNL     1       8.208   8.297  17.540  0.00  0.00    +0.000 C 
BRANCH  18  19
ATOM     19  C   UNL     1       8.199   9.710  18.135  0.00  0.00    +0.000 C 
BRANCH  19  20
ATOM     20  N   UNL     1       9.504  10.224  18.613  0.00  0.00    +0.000 NA
ATOM     21  C   UNL     1      10.045  11.229  17.682  0.00  0.00    +0.000 C 
ATOM     22  C   UNL     1      11.270  11.965  18.226  0.00  0.00    +0.000 C 
ATOM     23  C   UNL     1      10.993  12.656  19.575  0.00  0.00    +0.000 C 
ATOM     24  C   UNL     1      10.472  11.574  20.529  0.00  0.00    +0.000 C 
ATOM     25  C   UNL     1       9.295  10.777  19.963  0.00  0.00    +0.000 C 
BRANCH  23  26
ATOM     26  C   UNL     1      10.205  13.959  19.445  0.00  0.00    +0.000 A 
ATOM     27  C   UNL     1       9.155  14.208  20.359  0.00  0.00    +0.000 A 
ATOM     28  C   UNL     1       8.357  15.368  20.289  0.00  0.00    +0.000 A 
ATOM     29  C   UNL     1       8.583  16.320  19.301  0.00  0.00    +0.000 A 
ATOM     30  C   UNL     1       9.598  16.073  18.408  0.00  0.00    +0.000 A 
ATOM     31  C   UNL     1      10.374  14.928  18.461  0.00  0.00    +0.000 A 
ATOM     32  O   UNL     1      11.259  14.904  17.426  0.00  0.00    +0.000 OA
ATOM     33  C   UNL     1      11.071  16.203  16.842  0.00  0.00    +0.000 C 
ATOM     34  O   UNL     1       9.936  16.899  17.377  0.00  0.00    +0.000 OA
ENDBRANCH  23  26
ENDBRANCH  19  20
ENDBRANCH  18  19
ENDBRANCH   4  18
TORSDOF 7
ENDMDL
MODEL 3
REMARK VINA RESULT:      -8.4      4.337      9.907
REMARK  Name = 
REMARK  7 active torsions:
REMARK  status: ('A' for Active; 'I' for Inactive)
REMARK    1  A    between atoms: C_2  and  C_27
REMARK    2  A    between atoms: N_3  and  C_4
REMARK    3  A    between atoms: C_7  and  C_8
REMARK    4  A    between atoms: C_8  and  C_9
REMARK    5  A    between atoms: C_9  and  N_10
REMARK    6  A    between atoms: C_13  and  C_14
REMARK    7  A    between atoms: C_27  and  C_28
REMARK                            x       y       z     vdW  Elec       q    Type
REMARK                         _______ _______ _______ _____ _____    ______ ____
ROOT
ATOM      1  C   UNL     1       2.880   5.757  18.398  0.00  0.00    +0.000 C 
ATOM      2  C   UNL     1       2.639   5.267  19.830  0.00  0.00    +0.000 C 
ATOM      3  C   UNL     1       1.534   6.049  20.537  0.00  0.00    +0.000 C 
ATOM      4  C   UNL     1       1.828   7.556  20.517  0.00  0.00    +0.000 C 
ATOM      5  C   UNL     1       1.954   8.026  19.060  0.00  0.00    +0.000 C 
ATOM      6  C   UNL     1       3.060   7.278  18.325  0.00  0.00    +0.000 C 
ENDROOT
BRANCH   1   9
ATOM      7  O   UNL     1       4.565   6.761  16.344  0.00  0.00    +0.000 OA
ATOM      8  C   UNL     1       4.823   5.697  16.881  0.00  0.00    +0.000 C 
ATOM      9  N   UNL     1       4.040   5.084  17.831  0.00  0.00    +0.000 N 
ATOM     10  H   UNL     1       4.405   4.274  18.316  0.00  0.00    +0.000 HD
BRANCH   8  11
ATOM     11  C   UNL     1       6.055   4.956  16.514  0.00  0.00    +0.000 C 
ATOM     12  C   UNL     1       5.937   3.786  15.531  0.00  0.00    +0.000 C 
ATOM     13  C   UNL     1       6.519   5.078  15.058  0.00  0.00    +0.000 C 
BRANCH  11  14
ATOM     14  C   UNL     1       7.101   4.916  17.587  0.00  0.00    +0.000 C 
ATOM     15  F   UNL     1       7.486   6.150  17.986  0.00  0.00    +0.000 F 
ATOM     16  F   UNL     1       6.620   4.282  18.687  0.00  0.00    +0.000 F 
ATOM     17  F   UNL     1       8.209   4.248  17.189  0.00  0.00    +0.000 F 
ENDBRANCH  11  14
ENDBRANCH   8  11
ENDBRANCH   1   9
BRANCH   4  18
ATOM     18  C   UNL     1       0.751   8.395  21.221  0.00  0.00    +0.000 C 
BRANCH  18  19
ATOM     19  C   UNL     1       1.273   9.549  22.083  0.00  0.00    +0.000 C 
BRANCH  19  20
ATOM     20  N   UNL     1       0.713  10.889  21.788  0.00  0.00    +0.000 NA
ATOM     21  C   UNL     1       0.971  11.270  20.389  0.00  0.00    +0.000 C 
ATOM     22  C   UNL     1       0.226  12.533  19.954  0.00  0.00    +0.000 C 
ATOM     23  C   UNL     1      -1.298  12.414  20.148  0.00  0.00    +0.000 C 
ATOM     24  C   UNL     1      -1.532  12.059  21.621  0.00  0.00    +0.000 C 
ATOM     25  C   UNL     1      -0.729  10.842  22.090  0.00  0.00    +0.000 C 
BRANCH  23  26
ATOM     26  C   UNL     1      -1.989  11.575  19.074  0.00  0.00    +0.000 A 
ATOM     27  C   UNL     1      -1.201  10.712  18.277  0.00  0.00    +0.000 A 
ATOM     28  C   UNL     1      -1.753   9.930  17.243  0.00  0.00    +0.000 A 
ATOM     29  C   UNL     1      -3.115   9.983  16.970  0.00  0.00    +0.000 A 
ATOM     30  C   UNL     1      -3.879  10.829  17.739  0.00  0.00    +0.000 A 
ATOM     31  C   UNL     1      -3.340  11.612  18.745  0.00  0.00    +0.000 A 
ATOM     32  O   UNL     1      -4.302  12.399  19.302  0.00  0.00    +0.000 OA
ATOM     33  C   UNL     1      -5.495  11.908  18.670  0.00  0.00    +0.000 C 
ATOM     34  O   UNL     1      -5.223  11.003  17.589  0.00  0.00    +0.000 OA
ENDBRANCH  23  26
ENDBRANCH  19  20
ENDBRANCH  18  19
ENDBRANCH   4  18
TORSDOF 7
ENDMDL
MODEL 4
REMARK VINA RESULT:      -8.4      6.751     10.363
REMARK  Name = 
REMARK  7 active torsions:
REMARK  status: ('A' for Active; 'I' for Inactive)
REMARK    1  A    between atoms: C_2  and  C_27
REMARK    2  A    between atoms: N_3  and  C_4
REMARK    3  A    between atoms: C_7  and  C_8
REMARK    4  A    between atoms: C_8  and  C_9
REMARK    5  A    between atoms: C_9  and  N_10
REMARK    6  A    between atoms: C_13  and  C_14
REMARK    7  A    between atoms: C_27  and  C_28
REMARK                            x       y       z     vdW  Elec       q    Type
REMARK                         _______ _______ _______ _____ _____    ______ ____
ROOT
ATOM      1  C   UNL     1       5.780   4.727  18.177  0.00  0.00    +0.000 C 
ATOM      2  C   UNL     1       5.239   5.838  17.271  0.00  0.00    +0.000 C 
ATOM      3  C   UNL     1       6.335   6.787  16.792  0.00  0.00    +0.000 C 
ATOM      4  C   UNL     1       7.110   7.377  17.980  0.00  0.00    +0.000 C 
ATOM      5  C   UNL     1       7.726   6.232  18.799  0.00  0.00    +0.000 C 
ATOM      6  C   UNL     1       6.659   5.272  19.309  0.00  0.00    +0.000 C 
ENDROOT
BRANCH   1   9
ATOM      7  O   UNL     1       3.583   5.747  19.658  0.00  0.00    +0.000 OA
ATOM      8  C   UNL     1       3.629   4.563  19.372  0.00  0.00    +0.000 C 
ATOM      9  N   UNL     1       4.677   3.950  18.724  0.00  0.00    +0.000 N 
ATOM     10  H   UNL     1       4.565   2.995  18.410  0.00  0.00    +0.000 HD
BRANCH   8  11
ATOM     11  C   UNL     1       2.506   3.663  19.734  0.00  0.00    +0.000 C 
ATOM     12  C   UNL     1       2.635   2.810  21.002  0.00  0.00    +0.000 C 
ATOM     13  C   UNL     1       1.740   4.006  21.017  0.00  0.00    +0.000 C 
BRANCH  11  14
ATOM     14  C   UNL     1       1.729   3.135  18.567  0.00  0.00    +0.000 C 
ATOM     15  F   UNL     1       0.474   2.757  18.904  0.00  0.00    +0.000 F 
ATOM     16  F   UNL     1       1.605   4.094  17.613  0.00  0.00    +0.000 F 
ATOM     17  F   UNL     1       2.338   2.072  17.991  0.00  0.00    +0.000 F 
ENDBRANCH  11  14
ENDBRANCH   8  11
ENDBRANCH   1   9
BRANCH   4  18
ATOM     18  C   UNL     1       8.224   8.346  17.558  0.00  0.00    +0.000 C 
BRANCH  18  19
ATOM     19  C   UNL     1       8.210   9.711  18.255  0.00  0.00    +0.000 C 
BRANCH  19  20
ATOM     20  N   UNL     1       9.517  10.205  18.747  0.00  0.00    +0.000 NA
ATOM     21  C   UNL     1      10.115  11.151  17.789  0.00  0.00    +0.000 C 
ATOM     22  C   UNL     1      11.349  11.872  18.336  0.00  0.00    +0.000 C 
ATOM     23  C   UNL     1      11.057  12.630  19.645  0.00  0.00    +0.000 C 
ATOM     24  C   UNL     1      10.477  11.608  20.630  0.00  0.00    +0.000 C 
ATOM     25  C   UNL     1       9.290  10.824  20.065  0.00  0.00    +0.000 C 
BRANCH  23  26
ATOM     26  C   UNL     1      10.316  13.949  19.437  0.00  0.00    +0.000 A 
ATOM     27  C   UNL     1      10.233  14.482  18.129  0.00  0.00    +0.000 A 
ATOM     28  C   UNL     1       9.598  15.710  17.856  0.00  0.00    +0.000 A 
ATOM     29  C   UNL     1       9.020  16.449  18.882  0.00  0.00    +0.000 A 
ATOM     30  C   UNL     1       9.109  15.935  20.155  0.00  0.00    +0.000 A 
ATOM     31  C   UNL     1       9.746  14.738  20.432  0.00  0.00    +0.000 A 
ATOM     32  O   UNL     1       9.744  14.498  21.773  0.00  0.00    +0.000 OA
ATOM     33  C   UNL     1       8.910  15.557  22.266  0.00  0.00    +0.000 C 
ATOM     34  O   UNL     1       8.607  16.543  21.267  0.00  0.00    +0.000 OA
ENDBRANCH  23  26
ENDBRANCH  19  20
ENDBRANCH  18  19
ENDBRANCH   4  18
TORSDOF 7
ENDMDL
MODEL 5
REMARK VINA RESULT:      -8.3      7.019     10.417
REMARK  Name = 
REMARK  7 active torsions:
REMARK  status: ('A' for Active; 'I' for Inactive)
REMARK    1  A    between atoms: C_2  and  C_27
REMARK    2  A    between atoms: N_3  and  C_4
REMARK    3  A    between atoms: C_7  and  C_8
REMARK    4  A    between atoms: C_8  and  C_9
REMARK    5  A    between atoms: C_9  and  N_10
REMARK    6  A    between atoms: C_13  and  C_14
REMARK    7  A    between atoms: C_27  and  C_28
REMARK                            x       y       z     vdW  Elec       q    Type
REMARK                         _______ _______ _______ _____ _____    ______ ____
ROOT
ATOM      1  C   UNL     1       5.321   5.077  18.053  0.00  0.00    +0.000 C 
ATOM      2  C   UNL     1       5.130   6.327  17.187  0.00  0.00    +0.000 C 
ATOM      3  C   UNL     1       6.447   7.044  16.898  0.00  0.00    +0.000 C 
ATOM      4  C   UNL     1       7.184   7.387  18.201  0.00  0.00    +0.000 C 
ATOM      5  C   UNL     1       7.452   6.094  18.986  0.00  0.00    +0.000 C 
ATOM      6  C   UNL     1       6.157   5.358  19.308  0.00  0.00    +0.000 C 
ENDROOT
BRANCH   1   9
ATOM      7  O   UNL     1       4.872   2.753  19.623  0.00  0.00    +0.000 OA
ATOM      8  C   UNL     1       3.928   3.428  19.246  0.00  0.00    +0.000 C 
ATOM      9  N   UNL     1       4.025   4.526  18.424  0.00  0.00    +0.000 N 
ATOM     10  H   UNL     1       3.205   5.100  18.277  0.00  0.00    +0.000 HD
BRANCH   8  11
ATOM     11  C   UNL     1       2.548   3.078  19.662  0.00  0.00    +0.000 C 
ATOM     12  C   UNL     1       2.324   2.571  21.092  0.00  0.00    +0.000 C 
ATOM     13  C   UNL     1       1.912   3.964  20.740  0.00  0.00    +0.000 C 
BRANCH  11  14
ATOM     14  C   UNL     1       1.672   2.574  18.555  0.00  0.00    +0.000 C 
ATOM     15  F   UNL     1       1.093   3.576  17.853  0.00  0.00    +0.000 F 
ATOM     16  F   UNL     1       2.403   1.849  17.670  0.00  0.00    +0.000 F 
ATOM     17  F   UNL     1       0.685   1.771  19.016  0.00  0.00    +0.000 F 
ENDBRANCH  11  14
ENDBRANCH   8  11
ENDBRANCH   1   9
BRANCH   4  18
ATOM     18  C   UNL     1       8.517   8.117  17.971  0.00  0.00    +0.000 C 
BRANCH  18  19
ATOM     19  C   UNL     1       8.484   9.634  18.185  0.00  0.00    +0.000 C 
BRANCH  19  20
ATOM     20  N   UNL     1       9.708  10.238  18.760  0.00  0.00    +0.000 NA
ATOM     21  C   UNL     1      10.309  11.201  17.822  0.00  0.00    +0.000 C 
ATOM     22  C   UNL     1      11.439  12.028  18.439  0.00  0.00    +0.000 C 
ATOM     23  C   UNL     1      10.989  12.795  19.697  0.00  0.00    +0.000 C 
ATOM     24  C   UNL     1      10.409  11.757  20.666  0.00  0.00    +0.000 C 
ATOM     25  C   UNL     1       9.331  10.871  20.037  0.00  0.00    +0.000 C 
BRANCH  23  26
ATOM     26  C   UNL     1      10.172  14.048  19.391  0.00  0.00    +0.000 A 
ATOM     27  C   UNL     1       9.030  14.321  20.179  0.00  0.00    +0.000 A 
ATOM     28  C   UNL     1       8.201  15.436  19.942  0.00  0.00    +0.000 A 
ATOM     29  C   UNL     1       8.488  16.320  18.908  0.00  0.00    +0.000 A 
ATOM     30  C   UNL     1       9.592  16.049  18.136  0.00  0.00    +0.000 A 
ATOM     31  C   UNL     1      10.401  14.946  18.353  0.00  0.00    +0.000 A 
ATOM     32  O   UNL     1      11.382  14.883  17.410  0.00  0.00    +0.000 OA
ATOM     33  C   UNL     1      11.205  16.124  16.710  0.00  0.00    +0.000 C 
ATOM     34  O   UNL     1       9.999  16.809  17.079  0.00  0.00    +0.000 OA
ENDBRANCH  23  26
ENDBRANCH  19  20
ENDBRANCH  18  19
ENDBRANCH   4  18
TORSDOF 7
ENDMDL
MODEL 6
REMARK VINA RESULT:      -8.3      4.257     10.411
REMARK  Name = 
REMARK  7 active torsions:
REMARK  status: ('A' for Active; 'I' for Inactive)
REMARK    1  A    between atoms: C_2  and  C_27
REMARK    2  A    between atoms: N_3  and  C_4
REMARK    3  A    between atoms: C_7  and  C_8
REMARK    4  A    between atoms: C_8  and  C_9
REMARK    5  A    between atoms: C_9  and  N_10
REMARK    6  A    between atoms: C_13  and  C_14
REMARK    7  A    between atoms: C_27  and  C_28
REMARK                            x       y       z     vdW  Elec       q    Type
REMARK                         _______ _______ _______ _____ _____    ______ ____
ROOT
ATOM      1  C   UNL     1       2.860   6.732  18.290  0.00  0.00    +0.000 C 
ATOM      2  C   UNL     1       2.861   6.197  19.726  0.00  0.00    +0.000 C 
ATOM      3  C   UNL     1       1.630   6.638  20.515  0.00  0.00    +0.000 C 
ATOM      4  C   UNL     1       1.486   8.167  20.500  0.00  0.00    +0.000 C 
ATOM      5  C   UNL     1       1.379   8.650  19.046  0.00  0.00    +0.000 C 
ATOM      6  C   UNL     1       2.599   8.242  18.230  0.00  0.00    +0.000 C 
ENDROOT
BRANCH   1   9
ATOM      7  O   UNL     1       3.796   4.132  17.632  0.00  0.00    +0.000 OA
ATOM      8  C   UNL     1       4.442   5.115  17.309  0.00  0.00    +0.000 C 
ATOM      9  N   UNL     1       4.122   6.411  17.639  0.00  0.00    +0.000 N 
ATOM     10  H   UNL     1       4.642   7.167  17.211  0.00  0.00    +0.000 HD
BRANCH   8  11
ATOM     11  C   UNL     1       5.684   4.962  16.512  0.00  0.00    +0.000 C 
ATOM     12  C   UNL     1       5.642   4.079  15.259  0.00  0.00    +0.000 C 
ATOM     13  C   UNL     1       5.672   5.565  15.102  0.00  0.00    +0.000 C 
BRANCH  11  14
ATOM     14  C   UNL     1       6.951   5.053  17.308  0.00  0.00    +0.000 C 
ATOM     15  F   UNL     1       6.757   4.807  18.625  0.00  0.00    +0.000 F 
ATOM     16  F   UNL     1       7.850   4.135  16.868  0.00  0.00    +0.000 F 
ATOM     17  F   UNL     1       7.532   6.270  17.198  0.00  0.00    +0.000 F 
ENDBRANCH  11  14
ENDBRANCH   8  11
ENDBRANCH   1   9
BRANCH   4  18
ATOM     18  C   UNL     1       0.265   8.670  21.285  0.00  0.00    +0.000 C 
BRANCH  18  19
ATOM     19  C   UNL     1       0.578   9.394  22.599  0.00  0.00    +0.000 C 
BRANCH  19  20
ATOM     20  N   UNL     1       0.179  10.819  22.669  0.00  0.00    +0.000 NA
ATOM     21  C   UNL     1       0.423  11.497  21.385  0.00  0.00    +0.000 C 
ATOM     22  C   UNL     1      -0.176  12.903  21.315  0.00  0.00    +0.000 C 
ATOM     23  C   UNL     1      -1.692  12.912  21.585  0.00  0.00    +0.000 C 
ATOM     24  C   UNL     1      -1.905  12.238  22.947  0.00  0.00    +0.000 C 
ATOM     25  C   UNL     1      -1.243  10.863  23.056  0.00  0.00    +0.000 C 
BRANCH  23  26
ATOM     26  C   UNL     1      -2.529  12.442  20.397  0.00  0.00    +0.000 A 
ATOM     27  C   UNL     1      -1.862  11.969  19.243  0.00  0.00    +0.000 A 
ATOM     28  C   UNL     1      -2.558  11.549  18.092  0.00  0.00    +0.000 A 
ATOM     29  C   UNL     1      -3.947  11.586  18.054  0.00  0.00    +0.000 A 
ATOM     30  C   UNL     1      -4.595  12.055  19.173  0.00  0.00    +0.000 A 
ATOM     31  C   UNL     1      -3.917  12.485  20.301  0.00  0.00    +0.000 A 
ATOM     32  O   UNL     1      -4.793  12.956  21.231  0.00  0.00    +0.000 OA
ATOM     33  C   UNL     1      -6.061  12.621  20.646  0.00  0.00    +0.000 C 
ATOM     34  O   UNL     1      -5.949  12.167  19.289  0.00  0.00    +0.000 OA
ENDBRANCH  23  26
ENDBRANCH  19  20
ENDBRANCH  18  19
ENDBRANCH   4  18
TORSDOF 7
ENDMDL
MODEL 7
REMARK VINA RESULT:      -8.3      6.099      9.961
REMARK  Name = 
REMARK  7 active torsions:
REMARK  status: ('A' for Active; 'I' for Inactive)
REMARK    1  A    between atoms: C_2  and  C_27
REMARK    2  A    between atoms: N_3  and  C_4
REMARK    3  A    between atoms: C_7  and  C_8
REMARK    4  A    between atoms: C_8  and  C_9
REMARK    5  A    between atoms: C_9  and  N_10
REMARK    6  A    between atoms: C_13  and  C_14
REMARK    7  A    between atoms: C_27  and  C_28
REMARK                            x       y       z     vdW  Elec       q    Type
REMARK                         _______ _______ _______ _____ _____    ______ ____
ROOT
ATOM      1  C   UNL     1       5.716   4.545  18.148  0.00  0.00    +0.000 C 
ATOM      2  C   UNL     1       5.244   5.622  17.165  0.00  0.00    +0.000 C 
ATOM      3  C   UNL     1       6.373   6.552  16.729  0.00  0.00    +0.000 C 
ATOM      4  C   UNL     1       7.064   7.186  17.945  0.00  0.00    +0.000 C 
ATOM      5  C   UNL     1       7.618   6.073  18.849  0.00  0.00    +0.000 C 
ATOM      6  C   UNL     1       6.514   5.133  19.318  0.00  0.00    +0.000 C 
ENDROOT
BRANCH   1   9
ATOM      7  O   UNL     1       3.557   5.579  19.676  0.00  0.00    +0.000 OA
ATOM      8  C   UNL     1       3.551   4.413  19.322  0.00  0.00    +0.000 C 
ATOM      9  N   UNL     1       4.574   3.790  18.645  0.00  0.00    +0.000 N 
ATOM     10  H   UNL     1       4.421   2.861  18.275  0.00  0.00    +0.000 HD
BRANCH   8  11
ATOM     11  C   UNL     1       2.386   3.546  19.627  0.00  0.00    +0.000 C 
ATOM     12  C   UNL     1       2.399   2.739  20.931  0.00  0.00    +0.000 C 
ATOM     13  C   UNL     1       1.529   3.950  20.832  0.00  0.00    +0.000 C 
BRANCH  11  14
ATOM     14  C   UNL     1       1.692   2.989  18.421  0.00  0.00    +0.000 C 
ATOM     15  F   UNL     1       0.421   2.603  18.684  0.00  0.00    +0.000 F 
ATOM     16  F   UNL     1       1.620   3.929  17.444  0.00  0.00    +0.000 F 
ATOM     17  F   UNL     1       2.347   1.922  17.907  0.00  0.00    +0.000 F 
ENDBRANCH  11  14
ENDBRANCH   8  11
ENDBRANCH   1   9
BRANCH   4  18
ATOM     18  C   UNL     1       8.208   8.138  17.567  0.00  0.00    +0.000 C 
BRANCH  18  19
ATOM     19  C   UNL     1       7.917   9.630  17.762  0.00  0.00    +0.000 C 
BRANCH  19  20
ATOM     20  N   UNL     1       9.060  10.466  18.197  0.00  0.00    +0.000 NA
ATOM     21  C   UNL     1       8.823  11.885  17.883  0.00  0.00    +0.000 C 
ATOM     22  C   UNL     1       9.853  12.828  18.507  0.00  0.00    +0.000 C 
ATOM     23  C   UNL     1       9.936  12.680  20.038  0.00  0.00    +0.000 C 
ATOM     24  C   UNL     1      10.226  11.202  20.326  0.00  0.00    +0.000 C 
ATOM     25  C   UNL     1       9.247  10.245  19.642  0.00  0.00    +0.000 C 
BRANCH  23  26
ATOM     26  C   UNL     1       8.789  13.360  20.782  0.00  0.00    +0.000 A 
ATOM     27  C   UNL     1       8.289  14.585  20.283  0.00  0.00    +0.000 A 
ATOM     28  C   UNL     1       7.256  15.295  20.928  0.00  0.00    +0.000 A 
ATOM     29  C   UNL     1       6.685  14.802  22.096  0.00  0.00    +0.000 A 
ATOM     30  C   UNL     1       7.178  13.616  22.586  0.00  0.00    +0.000 A 
ATOM     31  C   UNL     1       8.203  12.923  21.966  0.00  0.00    +0.000 A 
ATOM     32  O   UNL     1       8.538  11.820  22.692  0.00  0.00    +0.000 OA
ATOM     33  C   UNL     1       7.523  11.810  23.708  0.00  0.00    +0.000 C 
ATOM     34  O   UNL     1       6.735  13.009  23.724  0.00  0.00    +0.000 OA
ENDBRANCH  23  26
ENDBRANCH  19  20
ENDBRANCH  18  19
ENDBRANCH   4  18
TORSDOF 7
ENDMDL
MODEL 8
REMARK VINA RESULT:      -8.2      4.438      9.855
REMARK  Name = 
REMARK  7 active torsions:
REMARK  status: ('A' for Active; 'I' for Inactive)
REMARK    1  A    between atoms: C_2  and  C_27
REMARK    2  A    between atoms: N_3  and  C_4
REMARK    3  A    between atoms: C_7  and  C_8
REMARK    4  A    between atoms: C_8  and  C_9
REMARK    5  A    between atoms: C_9  and  N_10
REMARK    6  A    between atoms: C_13  and  C_14
REMARK    7  A    between atoms: C_27  and  C_28
REMARK                            x       y       z     vdW  Elec       q    Type
REMARK                         _______ _______ _______ _____ _____    ______ ____
ROOT
ATOM      1  C   UNL     1       2.967   5.899  18.433  0.00  0.00    +0.000 C 
ATOM      2  C   UNL     1       2.797   5.402  19.872  0.00  0.00    +0.000 C 
ATOM      3  C   UNL     1       1.645   6.094  20.597  0.00  0.00    +0.000 C 
ATOM      4  C   UNL     1       1.809   7.620  20.560  0.00  0.00    +0.000 C 
ATOM      5  C   UNL     1       1.866   8.087  19.097  0.00  0.00    +0.000 C 
ATOM      6  C   UNL     1       3.016   7.429  18.345  0.00  0.00    +0.000 C 
ENDROOT
BRANCH   1   9
ATOM      7  O   UNL     1       4.448   6.961  16.254  0.00  0.00    +0.000 OA
ATOM      8  C   UNL     1       4.841   5.961  16.831  0.00  0.00    +0.000 C 
ATOM      9  N   UNL     1       4.168   5.322  17.846  0.00  0.00    +0.000 N 
ATOM     10  H   UNL     1       4.638   4.582  18.353  0.00  0.00    +0.000 HD
BRANCH   8  11
ATOM     11  C   UNL     1       6.130   5.335  16.443  0.00  0.00    +0.000 C 
ATOM     12  C   UNL     1       7.432   6.004  16.900  0.00  0.00    +0.000 C 
ATOM     13  C   UNL     1       6.978   4.754  17.580  0.00  0.00    +0.000 C 
BRANCH  11  14
ATOM     14  C   UNL     1       6.097   4.599  15.139  0.00  0.00    +0.000 C 
ATOM     15  F   UNL     1       6.659   5.303  14.129  0.00  0.00    +0.000 F 
ATOM     16  F   UNL     1       6.790   3.436  15.238  0.00  0.00    +0.000 F 
ATOM     17  F   UNL     1       4.834   4.284  14.767  0.00  0.00    +0.000 F 
ENDBRANCH  11  14
ENDBRANCH   8  11
ENDBRANCH   1   9
BRANCH   4  18
ATOM     18  C   UNL     1       0.680   8.371  21.281  0.00  0.00    +0.000 C 
BRANCH  18  19
ATOM     19  C   UNL     1       1.128   9.498  22.217  0.00  0.00    +0.000 C 
BRANCH  19  20
ATOM     20  N   UNL     1       0.587  10.845  21.922  0.00  0.00    +0.000 NA
ATOM     21  C   UNL     1       0.901  11.246  20.541  0.00  0.00    +0.000 C 
ATOM     22  C   UNL     1       0.180  12.520  20.098  0.00  0.00    +0.000 C 
ATOM     23  C   UNL     1      -1.351  12.408  20.232  0.00  0.00    +0.000 C 
ATOM     24  C   UNL     1      -1.643  12.032  21.690  0.00  0.00    +0.000 C 
ATOM     25  C   UNL     1      -0.865  10.803  22.169  0.00  0.00    +0.000 C 
BRANCH  23  26
ATOM     26  C   UNL     1      -2.005  11.591  19.120  0.00  0.00    +0.000 A 
ATOM     27  C   UNL     1      -1.192  10.737  18.339  0.00  0.00    +0.000 A 
ATOM     28  C   UNL     1      -1.710   9.974  17.272  0.00  0.00    +0.000 A 
ATOM     29  C   UNL     1      -3.061  10.039  16.950  0.00  0.00    +0.000 A 
ATOM     30  C   UNL     1      -3.849  10.877  17.703  0.00  0.00    +0.000 A 
ATOM     31  C   UNL     1      -3.343  11.640  18.742  0.00  0.00    +0.000 A 
ATOM     32  O   UNL     1      -4.322  12.424  19.275  0.00  0.00    +0.000 OA
ATOM     33  C   UNL     1      -5.492  11.950  18.591  0.00  0.00    +0.000 C 
ATOM     34  O   UNL     1      -5.185  11.062  17.506  0.00  0.00    +0.000 OA
ENDBRANCH  23  26
ENDBRANCH  19  20
ENDBRANCH  18  19
ENDBRANCH   4  18
TORSDOF 7
ENDMDL
MODEL 9
REMARK VINA RESULT:      -8.2      1.064      1.433
REMARK  Name = 
REMARK  7 active torsions:
REMARK  status: ('A' for Active; 'I' for Inactive)
REMARK    1  A    between atoms: C_2  and  C_27
REMARK    2  A    between atoms: N_3  and  C_4
REMARK    3  A    between atoms: C_7  and  C_8
REMARK    4  A    between atoms: C_8  and  C_9
REMARK    5  A    between atoms: C_9  and  N_10
REMARK    6  A    between atoms: C_13  and  C_14
REMARK    7  A    between atoms: C_27  and  C_28
REMARK                            x       y       z     vdW  Elec       q    Type
REMARK                         _______ _______ _______ _____ _____    ______ ____
ROOT
ATOM      1  C   UNL     1       1.732   9.373  19.936  0.00  0.00    +0.000 C 
ATOM      2  C   UNL     1       0.652   8.816  20.870  0.00  0.00    +0.000 C 
ATOM      3  C   UNL     1       1.020   7.447  21.438  0.00  0.00    +0.000 C 
ATOM      4  C   UNL     1       1.338   6.451  20.313  0.00  0.00    +0.000 C 
ATOM      5  C   UNL     1       2.498   6.999  19.467  0.00  0.00    +0.000 C 
ATOM      6  C   UNL     1       2.160   8.358  18.868  0.00  0.00    +0.000 C 
ENDROOT
BRANCH   1   9
ATOM      7  O   UNL     1       1.500  11.915  21.180  0.00  0.00    +0.000 OA
ATOM      8  C   UNL     1       1.253  11.791  19.992  0.00  0.00    +0.000 C 
ATOM      9  N   UNL     1       1.261  10.598  19.307  0.00  0.00    +0.000 N 
ATOM     10  H   UNL     1       1.177  10.614  18.298  0.00  0.00    +0.000 HD
BRANCH   8  11
ATOM     11  C   UNL     1       0.898  12.978  19.176  0.00  0.00    +0.000 C 
ATOM     12  C   UNL     1       1.756  14.241  19.313  0.00  0.00    +0.000 C 
ATOM     13  C   UNL     1       1.901  13.391  18.093  0.00  0.00    +0.000 C 
BRANCH  11  14
ATOM     14  C   UNL     1      -0.564  13.110  18.871  0.00  0.00    +0.000 C 
ATOM     15  F   UNL     1      -0.798  13.795  17.727  0.00  0.00    +0.000 F 
ATOM     16  F   UNL     1      -1.123  11.882  18.712  0.00  0.00    +0.000 F 
ATOM     17  F   UNL     1      -1.236  13.732  19.868  0.00  0.00    +0.000 F 
ENDBRANCH  11  14
ENDBRANCH   8  11
ENDBRANCH   1   9
BRANCH   4  18
ATOM     18  C   UNL     1       1.710   5.052  20.826  0.00  0.00    +0.000 C 
BRANCH  18  19
ATOM     19  C   UNL     1       0.866   3.900  20.273  0.00  0.00    +0.000 C 
BRANCH  19  20
ATOM     20  N   UNL     1       1.501   3.073  19.220  0.00  0.00    +0.000 NA
ATOM     21  C   UNL     1       1.775   3.874  18.016  0.00  0.00    +0.000 C 
ATOM     22  C   UNL     1       2.634   3.145  16.981  0.00  0.00    +0.000 C 
ATOM     23  C   UNL     1       3.980   2.670  17.561  0.00  0.00    +0.000 C 
ATOM     24  C   UNL     1       3.655   1.805  18.786  0.00  0.00    +0.000 C 
ATOM     25  C   UNL     1       2.731   2.496  19.792  0.00  0.00    +0.000 C 
BRANCH  23  26
ATOM     26  C   UNL     1       5.013   3.786  17.706  0.00  0.00    +0.000 A 
ATOM     27  C   UNL     1       5.201   4.373  18.979  0.00  0.00    +0.000 A 
ATOM     28  C   UNL     1       6.108   5.431  19.192  0.00  0.00    +0.000 A 
ATOM     29  C   UNL     1       6.861   5.937  18.139  0.00  0.00    +0.000 A 
ATOM     30  C   UNL     1       6.670   5.372  16.900  0.00  0.00    +0.000 A 
ATOM     31  C   UNL     1       5.769   4.344  16.681  0.00  0.00    +0.000 A 
ATOM     32  O   UNL     1       5.733   4.018  15.359  0.00  0.00    +0.000 OA
ATOM     33  C   UNL     1       6.805   4.811  14.824  0.00  0.00    +0.000 C 
ATOM     34  O   UNL     1       7.320   5.763  15.767  0.00  0.00    +0.000 OA
ENDBRANCH  23  26
ENDBRANCH  19  20
ENDBRANCH  18  19
ENDBRANCH   4  18
TORSDOF 7
ENDMDL
