MODEL 1
REMARK VINA RESULT:      -7.7      0.000      0.000
REMARK  Name = 
REMARK  7 active torsions:
REMARK  status: ('A' for Active; 'I' for Inactive)
REMARK    1  A    between atoms: C_2  and  OXT_3
REMARK    2  A    between atoms: C_2  and  CA_4
REMARK    3  A    between atoms: C_8  and  C_9
REMARK    4  A    between atoms: C_9  and  C_10
REMARK    5  A    between atoms: C_10  and  C_11
REMARK    6  A    between atoms: C_11  and  C_12
REMARK    7  A    between atoms: C_12  and  C_13
REMARK                            x       y       z     vdW  Elec       q    Type
REMARK                         _______ _______ _______ _____ _____    ______ ____
ROOT
ATOM      1  CA  UNL     1       4.154   3.262  18.128  0.00  0.00    +0.000 C 
ATOM      2  C   UNL     1       4.903   3.145  16.803  0.00  0.00    +0.000 C 
ATOM      3  C   UNL     1       5.772   4.375  16.525  0.00  0.00    +0.000 C 
ATOM      4  C   UNL     1       4.948   5.571  16.006  0.00  0.00    +0.000 C 
ATOM      5  C   UNL     1       5.124   6.949  16.680  0.00  0.00    +0.000 C 
ATOM      6  C   UNL     1       6.483   7.185  17.367  0.00  0.00    +0.000 C 
ATOM      7  C   UNL     1       7.410   5.981  17.477  0.00  0.00    +0.000 C 
ATOM      8  C   UNL     1       6.672   4.670  17.729  0.00  0.00    +0.000 C 
ATOM      9  C   UNL     1       5.929   4.637  19.075  0.00  0.00    +0.000 C 
ATOM     10  N   UNL     1       5.125   3.416  19.252  0.00  0.00    +0.000 NA
ATOM     11  H   UNL     1       4.584   3.537  20.116  0.00  0.00    +0.000 HD
ENDROOT
BRANCH   1  13
ATOM     12  O   UNL     1       2.132   1.914  18.417  0.00  0.00    +0.000 OA
ATOM     13  C   UNL     1       3.348   1.973  18.346  0.00  0.00    +0.000 C 
BRANCH  13  14
ATOM     14  OXT UNL     1       4.160   0.886  18.418  0.00  0.00    +0.000 OA
ATOM     15  HXT UNL     1       3.767   0.195  17.833  0.00  0.00    +0.000 HD
ENDBRANCH  13  14
ENDBRANCH   1  13
BRANCH   5  16
ATOM     16  C   UNL     1       3.886   7.270  17.562  0.00  0.00    +0.000 C 
BRANCH  16  17
ATOM     17  C   UNL     1       3.051   6.085  18.058  0.00  0.00    +0.000 C 
BRANCH  17  18
ATOM     18  C   UNL     1       2.644   6.198  19.525  0.00  0.00    +0.000 C 
BRANCH  18  19
ATOM     19  C   UNL     1       1.386   5.371  19.804  0.00  0.00    +0.000 C 
BRANCH  19  20
ATOM     20  C   UNL     1       1.676   4.242  20.716  0.00  0.00    +0.000 A 
ATOM     21  N   UNL     1       2.740   4.056  21.469  0.00  0.00    +0.000 NA
ATOM     22  N   UNL     1       2.531   2.872  22.132  0.00  0.00    +0.000 NA
ATOM     23  N   UNL     1       1.365   2.337  21.798  0.00  0.00    +0.000 NA
ATOM     24  N   UNL     1       0.831   3.188  20.915  0.00  0.00    +0.000 N 
ATOM     25  H   UNL     1      -0.074   2.991  20.512  0.00  0.00    +0.000 HD
ENDBRANCH  19  20
ENDBRANCH  18  19
ENDBRANCH  17  18
ENDBRANCH  16  17
ENDBRANCH   5  16
TORSDOF 7
ENDMDL
MODEL 2
REMARK VINA RESULT:      -7.5      3.041      5.953
REMARK  Name = 
REMARK  7 active torsions:
REMARK  status: ('A' for Active; 'I' for Inactive)
REMARK    1  A    between atoms: C_2  and  OXT_3
REMARK    2  A    between atoms: C_2  and  CA_4
REMARK    3  A    between atoms: C_8  and  C_9
REMARK    4  A    between atoms: C_9  and  C_10
REMARK    5  A    between atoms: C_10  and  C_11
REMARK    6  A    between atoms: C_11  and  C_12
REMARK    7  A    between atoms: C_12  and  C_13
REMARK                            x       y       z     vdW  Elec       q    Type
REMARK                         _______ _______ _______ _____ _____    ______ ____
ROOT
ATOM      1  CA  UNL     1       2.213   6.291  19.677  0.00  0.00    +0.000 C 
ATOM      2  C   UNL     1       1.806   6.068  18.222  0.00  0.00    +0.000 C 
ATOM      3  C   UNL     1       2.111   4.641  17.756  0.00  0.00    +0.000 C 
ATOM      4  C   UNL     1       3.602   4.439  17.418  0.00  0.00    +0.000 C 
ATOM      5  C   UNL     1       4.351   3.235  18.029  0.00  0.00    +0.000 C 
ATOM      6  C   UNL     1       3.472   2.027  18.406  0.00  0.00    +0.000 C 
ATOM      7  C   UNL     1       1.964   2.228  18.322  0.00  0.00    +0.000 C 
ATOM      8  C   UNL     1       1.516   3.625  18.736  0.00  0.00    +0.000 C 
ATOM      9  C   UNL     1       1.808   3.949  20.210  0.00  0.00    +0.000 C 
ATOM     10  N   UNL     1       1.481   5.340  20.564  0.00  0.00    +0.000 NA
ATOM     11  H   UNL     1       1.813   5.491  21.524  0.00  0.00    +0.000 HD
ENDROOT
BRANCH   1  13
ATOM     12  O   UNL     1       1.445   8.067  21.177  0.00  0.00    +0.000 OA
ATOM     13  C   UNL     1       1.832   7.726  20.072  0.00  0.00    +0.000 C 
BRANCH  13  14
ATOM     14  OXT UNL     1       2.012   8.590  19.038  0.00  0.00    +0.000 OA
ATOM     15  HXT UNL     1       2.340   8.058  18.273  0.00  0.00    +0.000 HD
ENDBRANCH  13  14
ENDBRANCH   1  13
BRANCH   5  16
ATOM     16  C   UNL     1       5.306   3.720  19.155  0.00  0.00    +0.000 C 
BRANCH  16  17
ATOM     17  C   UNL     1       5.602   5.222  19.225  0.00  0.00    +0.000 C 
BRANCH  17  18
ATOM     18  C   UNL     1       7.092   5.546  19.300  0.00  0.00    +0.000 C 
BRANCH  18  19
ATOM     19  C   UNL     1       7.492   6.514  18.183  0.00  0.00    +0.000 C 
BRANCH  19  20
ATOM     20  C   UNL     1       7.141   5.971  16.851  0.00  0.00    +0.000 A 
ATOM     21  N   UNL     1       6.315   6.474  15.959  0.00  0.00    +0.000 NA
ATOM     22  N   UNL     1       6.338   5.609  14.892  0.00  0.00    +0.000 NA
ATOM     23  N   UNL     1       7.160   4.594  15.120  0.00  0.00    +0.000 NA
ATOM     24  N   UNL     1       7.661   4.816  16.340  0.00  0.00    +0.000 N 
ATOM     25  H   UNL     1       8.323   4.165  16.737  0.00  0.00    +0.000 HD
ENDBRANCH  19  20
ENDBRANCH  18  19
ENDBRANCH  17  18
ENDBRANCH  16  17
ENDBRANCH   5  16
TORSDOF 7
ENDMDL
MODEL 3
REMARK VINA RESULT:      -7.5      3.016      6.078
REMARK  Name = 
REMARK  7 active torsions:
REMARK  status: ('A' for Active; 'I' for Inactive)
REMARK    1  A    between atoms: C_2  and  OXT_3
REMARK    2  A    between atoms: C_2  and  CA_4
REMARK    3  A    between atoms: C_8  and  C_9
REMARK    4  A    between atoms: C_9  and  C_10
REMARK    5  A    between atoms: C_10  and  C_11
REMARK    6  A    between atoms: C_11  and  C_12
REMARK    7  A    between atoms: C_12  and  C_13
REMARK                            x       y       z     vdW  Elec       q    Type
REMARK                         _______ _______ _______ _____ _____    ______ ____
ROOT
ATOM      1  CA  UNL     1       2.698   6.284  18.635  0.00  0.00    +0.000 C 
ATOM      2  C   UNL     1       1.657   5.384  17.973  0.00  0.00    +0.000 C 
ATOM      3  C   UNL     1       1.467   4.071  18.739  0.00  0.00    +0.000 C 
ATOM      4  C   UNL     1       2.593   3.056  18.453  0.00  0.00    +0.000 C 
ATOM      5  C   UNL     1       3.311   2.381  19.642  0.00  0.00    +0.000 C 
ATOM      6  C   UNL     1       2.492   2.283  20.944  0.00  0.00    +0.000 C 
ATOM      7  C   UNL     1       1.165   3.030  20.973  0.00  0.00    +0.000 C 
ATOM      8  C   UNL     1       1.199   4.355  20.220  0.00  0.00    +0.000 C 
ATOM      9  C   UNL     1       2.167   5.381  20.834  0.00  0.00    +0.000 C 
ATOM     10  N   UNL     1       2.280   6.609  20.030  0.00  0.00    +0.000 NA
ATOM     11  H   UNL     1       3.024   7.177  20.453  0.00  0.00    +0.000 HD
ENDROOT
BRANCH   1  13
ATOM     12  O   UNL     1       1.937   8.462  17.814  0.00  0.00    +0.000 OA
ATOM     13  C   UNL     1       2.790   7.590  17.831  0.00  0.00    +0.000 C 
BRANCH  13  14
ATOM     14  OXT UNL     1       3.967   7.676  17.157  0.00  0.00    +0.000 OA
ATOM     15  HXT UNL     1       4.005   8.579  16.760  0.00  0.00    +0.000 HD
ENDBRANCH  13  14
ENDBRANCH   1  13
BRANCH   5  16
ATOM     16  C   UNL     1       4.734   2.980  19.813  0.00  0.00    +0.000 C 
BRANCH  16  17
ATOM     17  C   UNL     1       5.221   3.952  18.733  0.00  0.00    +0.000 C 
BRANCH  17  18
ATOM     18  C   UNL     1       5.859   5.219  19.296  0.00  0.00    +0.000 C 
BRANCH  18  19
ATOM     19  C   UNL     1       7.210   5.489  18.627  0.00  0.00    +0.000 C 
BRANCH  19  20
ATOM     20  C   UNL     1       7.097   5.439  17.152  0.00  0.00    +0.000 A 
ATOM     21  N   UNL     1       6.412   6.234  16.359  0.00  0.00    +0.000 NA
ATOM     22  N   UNL     1       6.635   5.782  15.082  0.00  0.00    +0.000 NA
ATOM     23  N   UNL     1       7.441   4.729  15.084  0.00  0.00    +0.000 NA
ATOM     24  N   UNL     1       7.729   4.512  16.372  0.00  0.00    +0.000 N 
ATOM     25  H   UNL     1       8.339   3.749  16.629  0.00  0.00    +0.000 HD
ENDBRANCH  19  20
ENDBRANCH  18  19
ENDBRANCH  17  18
ENDBRANCH  16  17
ENDBRANCH   5  16
TORSDOF 7
ENDMDL
MODEL 4
REMARK VINA RESULT:      -7.4      3.307      5.944
REMARK  Name = 
REMARK  7 active torsions:
REMARK  status: ('A' for Active; 'I' for Inactive)
REMARK    1  A    between atoms: C_2  and  OXT_3
REMARK    2  A    between atoms: C_2  and  CA_4
REMARK    3  A    between atoms: C_8  and  C_9
REMARK    4  A    between atoms: C_9  and  C_10
REMARK    5  A    between atoms: C_10  and  C_11
REMARK    6  A    between atoms: C_11  and  C_12
REMARK    7  A    between atoms: C_12  and  C_13
REMARK                            x       y       z     vdW  Elec       q    Type
REMARK                         _______ _______ _______ _____ _____    ______ ____
ROOT
ATOM      1  CA  UNL     1       4.515   2.034  20.095  0.00  0.00    +0.000 C 
ATOM      2  C   UNL     1       3.224   2.292  20.869  0.00  0.00    +0.000 C 
ATOM      3  C   UNL     1       2.323   3.305  20.156  0.00  0.00    +0.000 C 
ATOM      4  C   UNL     1       2.793   4.759  20.365  0.00  0.00    +0.000 C 
ATOM      5  C   UNL     1       2.955   5.677  19.133  0.00  0.00    +0.000 C 
ATOM      6  C   UNL     1       2.089   5.310  17.913  0.00  0.00    +0.000 C 
ATOM      7  C   UNL     1       1.333   3.990  17.984  0.00  0.00    +0.000 C 
ATOM      8  C   UNL     1       2.107   2.887  18.698  0.00  0.00    +0.000 C 
ATOM      9  C   UNL     1       3.403   2.484  17.976  0.00  0.00    +0.000 C 
ATOM     10  N   UNL     1       4.199   1.507  18.735  0.00  0.00    +0.000 NA
ATOM     11  H   UNL     1       5.087   1.388  18.233  0.00  0.00    +0.000 HD
ENDROOT
BRANCH   1  13
ATOM     12  O   UNL     1       5.749   1.105  21.995  0.00  0.00    +0.000 OA
ATOM     13  C   UNL     1       5.333   0.979  20.855  0.00  0.00    +0.000 C 
BRANCH  13  14
ATOM     14  OXT UNL     1       5.513  -0.143  20.109  0.00  0.00    +0.000 OA
ATOM     15  HXT UNL     1       6.450  -0.425  20.235  0.00  0.00    +0.000 HD
ENDBRANCH  13  14
ENDBRANCH   1  13
BRANCH   5  16
ATOM     16  C   UNL     1       4.463   5.885  18.821  0.00  0.00    +0.000 C 
BRANCH  16  17
ATOM     17  C   UNL     1       4.852   6.111  17.356  0.00  0.00    +0.000 C 
BRANCH  17  18
ATOM     18  C   UNL     1       5.897   5.124  16.844  0.00  0.00    +0.000 C 
BRANCH  18  19
ATOM     19  C   UNL     1       5.420   4.449  15.554  0.00  0.00    +0.000 C 
BRANCH  19  20
ATOM     20  C   UNL     1       6.386   4.653  14.452  0.00  0.00    +0.000 A 
ATOM     21  N   UNL     1       6.398   4.089  13.264  0.00  0.00    +0.000 NA
ATOM     22  N   UNL     1       7.486   4.611  12.607  0.00  0.00    +0.000 NA
ATOM     23  N   UNL     1       8.132   5.480  13.372  0.00  0.00    +0.000 NA
ATOM     24  N   UNL     1       7.451   5.507  14.523  0.00  0.00    +0.000 N 
ATOM     25  H   UNL     1       7.758   6.108  15.274  0.00  0.00    +0.000 HD
ENDBRANCH  19  20
ENDBRANCH  18  19
ENDBRANCH  17  18
ENDBRANCH  16  17
ENDBRANCH   5  16
TORSDOF 7
ENDMDL
MODEL 5
REMARK VINA RESULT:      -7.3      3.328      6.195
REMARK  Name = 
REMARK  7 active torsions:
REMARK  status: ('A' for Active; 'I' for Inactive)
REMARK    1  A    between atoms: C_2  and  OXT_3
REMARK    2  A    between atoms: C_2  and  CA_4
REMARK    3  A    between atoms: C_8  and  C_9
REMARK    4  A    between atoms: C_9  and  C_10
REMARK    5  A    between atoms: C_10  and  C_11
REMARK    6  A    between atoms: C_11  and  C_12
REMARK    7  A    between atoms: C_12  and  C_13
REMARK                            x       y       z     vdW  Elec       q    Type
REMARK                         _______ _______ _______ _____ _____    ______ ____
ROOT
ATOM      1  CA  UNL     1       2.446   6.799  18.978  0.00  0.00    +0.000 C 
ATOM      2  C   UNL     1       1.779   5.910  17.930  0.00  0.00    +0.000 C 
ATOM      3  C   UNL     1       2.038   4.424  18.192  0.00  0.00    +0.000 C 
ATOM      4  C   UNL     1       3.444   3.983  17.736  0.00  0.00    +0.000 C 
ATOM      5  C   UNL     1       4.336   3.194  18.720  0.00  0.00    +0.000 C 
ATOM      6  C   UNL     1       3.586   2.393  19.801  0.00  0.00    +0.000 C 
ATOM      7  C   UNL     1       2.084   2.625  19.903  0.00  0.00    +0.000 C 
ATOM      8  C   UNL     1       1.675   4.069  19.637  0.00  0.00    +0.000 C 
ATOM      9  C   UNL     1       2.231   5.062  20.672  0.00  0.00    +0.000 C 
ATOM     10  N   UNL     1       1.929   6.463  20.337  0.00  0.00    +0.000 NA
ATOM     11  H   UNL     1       2.432   7.048  21.015  0.00  0.00    +0.000 HD
ENDROOT
BRANCH   1  13
ATOM     12  O   UNL     1       1.555   9.031  19.440  0.00  0.00    +0.000 OA
ATOM     13  C   UNL     1       2.099   8.262  18.666  0.00  0.00    +0.000 C 
BRANCH  13  14
ATOM     14  OXT UNL     1       2.506   8.613  17.417  0.00  0.00    +0.000 OA
ATOM     15  HXT UNL     1       2.705   9.580  17.442  0.00  0.00    +0.000 HD
ENDBRANCH  13  14
ENDBRANCH   1  13
BRANCH   5  16
ATOM     16  C   UNL     1       5.471   4.110  19.259  0.00  0.00    +0.000 C 
BRANCH  16  17
ATOM     17  C   UNL     1       5.486   5.565  18.777  0.00  0.00    +0.000 C 
BRANCH  17  18
ATOM     18  C   UNL     1       6.755   5.940  18.017  0.00  0.00    +0.000 C 
BRANCH  18  19
ATOM     19  C   UNL     1       7.401   4.699  17.394  0.00  0.00    +0.000 C 
BRANCH  19  20
ATOM     20  C   UNL     1       7.101   4.607  15.948  0.00  0.00    +0.000 A 
ATOM     21  N   UNL     1       6.312   3.752  15.332  0.00  0.00    +0.000 NA
ATOM     22  N   UNL     1       6.362   4.083  14.000  0.00  0.00    +0.000 NA
ATOM     23  N   UNL     1       7.164   5.118  13.795  0.00  0.00    +0.000 NA
ATOM     24  N   UNL     1       7.627   5.446  15.007  0.00  0.00    +0.000 N 
ATOM     25  H   UNL     1       8.267   6.221  15.107  0.00  0.00    +0.000 HD
ENDBRANCH  19  20
ENDBRANCH  18  19
ENDBRANCH  17  18
ENDBRANCH  16  17
ENDBRANCH   5  16
TORSDOF 7
ENDMDL
MODEL 6
REMARK VINA RESULT:      -7.3      2.776      5.562
REMARK  Name = 
REMARK  7 active torsions:
REMARK  status: ('A' for Active; 'I' for Inactive)
REMARK    1  A    between atoms: C_2  and  OXT_3
REMARK    2  A    between atoms: C_2  and  CA_4
REMARK    3  A    between atoms: C_8  and  C_9
REMARK    4  A    between atoms: C_9  and  C_10
REMARK    5  A    between atoms: C_10  and  C_11
REMARK    6  A    between atoms: C_11  and  C_12
REMARK    7  A    between atoms: C_12  and  C_13
REMARK                            x       y       z     vdW  Elec       q    Type
REMARK                         _______ _______ _______ _____ _____    ______ ____
ROOT
ATOM      1  CA  UNL     1       4.379   1.984  19.966  0.00  0.00    +0.000 C 
ATOM      2  C   UNL     1       3.222   2.369  20.885  0.00  0.00    +0.000 C 
ATOM      3  C   UNL     1       2.212   3.281  20.182  0.00  0.00    +0.000 C 
ATOM      4  C   UNL     1       2.696   4.743  20.104  0.00  0.00    +0.000 C 
ATOM      5  C   UNL     1       2.657   5.472  18.742  0.00  0.00    +0.000 C 
ATOM      6  C   UNL     1       1.616   4.947  17.737  0.00  0.00    +0.000 C 
ATOM      7  C   UNL     1       0.891   3.660  18.113  0.00  0.00    +0.000 C 
ATOM      8  C   UNL     1       1.776   2.661  18.851  0.00  0.00    +0.000 C 
ATOM      9  C   UNL     1       2.948   2.141  18.002  0.00  0.00    +0.000 C 
ATOM     10  N   UNL     1       3.860   1.271  18.762  0.00  0.00    +0.000 NA
ATOM     11  H   UNL     1       4.661   1.070  18.151  0.00  0.00    +0.000 HD
ENDROOT
BRANCH   1  13
ATOM     12  O   UNL     1       5.742   1.240  21.859  0.00  0.00    +0.000 OA
ATOM     13  C   UNL     1       5.314   1.038  20.735  0.00  0.00    +0.000 C 
BRANCH  13  14
ATOM     14  OXT UNL     1       5.585  -0.084  20.016  0.00  0.00    +0.000 OA
ATOM     15  HXT UNL     1       4.731  -0.386  19.623  0.00  0.00    +0.000 HD
ENDBRANCH  13  14
ENDBRANCH   1  13
BRANCH   5  16
ATOM     16  C   UNL     1       4.097   5.612  18.174  0.00  0.00    +0.000 C 
BRANCH  16  17
ATOM     17  C   UNL     1       5.260   5.411  19.151  0.00  0.00    +0.000 C 
BRANCH  17  18
ATOM     18  C   UNL     1       6.351   4.488  18.617  0.00  0.00    +0.000 C 
BRANCH  18  19
ATOM     19  C   UNL     1       7.311   5.255  17.703  0.00  0.00    +0.000 C 
BRANCH  19  20
ATOM     20  C   UNL     1       7.070   4.932  16.279  0.00  0.00    +0.000 A 
ATOM     21  N   UNL     1       6.362   3.943  15.777  0.00  0.00    +0.000 NA
ATOM     22  N   UNL     1       6.437   4.079  14.412  0.00  0.00    +0.000 NA
ATOM     23  N   UNL     1       7.175   5.128  14.077  0.00  0.00    +0.000 NA
ATOM     24  N   UNL     1       7.572   5.661  15.238  0.00  0.00    +0.000 N 
ATOM     25  H   UNL     1       8.155   6.486  15.239  0.00  0.00    +0.000 HD
ENDBRANCH  19  20
ENDBRANCH  18  19
ENDBRANCH  17  18
ENDBRANCH  16  17
ENDBRANCH   5  16
TORSDOF 7
ENDMDL
MODEL 7
REMARK VINA RESULT:      -7.3      2.892      5.519
REMARK  Name = 
REMARK  7 active torsions:
REMARK  status: ('A' for Active; 'I' for Inactive)
REMARK    1  A    between atoms: C_2  and  OXT_3
REMARK    2  A    between atoms: C_2  and  CA_4
REMARK    3  A    between atoms: C_8  and  C_9
REMARK    4  A    between atoms: C_9  and  C_10
REMARK    5  A    between atoms: C_10  and  C_11
REMARK    6  A    between atoms: C_11  and  C_12
REMARK    7  A    between atoms: C_12  and  C_13
REMARK                            x       y       z     vdW  Elec       q    Type
REMARK                         _______ _______ _______ _____ _____    ______ ____
ROOT
ATOM      1  CA  UNL     1       4.504   2.103  20.053  0.00  0.00    +0.000 C 
ATOM      2  C   UNL     1       3.180   2.330  20.781  0.00  0.00    +0.000 C 
ATOM      3  C   UNL     1       2.309   3.371  20.072  0.00  0.00    +0.000 C 
ATOM      4  C   UNL     1       2.767   4.815  20.362  0.00  0.00    +0.000 C 
ATOM      5  C   UNL     1       2.980   5.784  19.177  0.00  0.00    +0.000 C 
ATOM      6  C   UNL     1       2.168   5.469  17.907  0.00  0.00    +0.000 C 
ATOM      7  C   UNL     1       1.411   4.146  17.890  0.00  0.00    +0.000 C 
ATOM      8  C   UNL     1       2.156   3.014  18.591  0.00  0.00    +0.000 C 
ATOM      9  C   UNL     1       3.482   2.642  17.908  0.00  0.00    +0.000 C 
ATOM     10  N   UNL     1       4.247   1.634  18.659  0.00  0.00    +0.000 NA
ATOM     11  H   UNL     1       5.156   1.536  18.191  0.00  0.00    +0.000 HD
ENDROOT
BRANCH   1  13
ATOM     12  O   UNL     1       5.661   1.098  21.962  0.00  0.00    +0.000 OA
ATOM     13  C   UNL     1       5.290   1.018  20.802  0.00  0.00    +0.000 C 
BRANCH  13  14
ATOM     14  OXT UNL     1       5.498  -0.075  20.020  0.00  0.00    +0.000 OA
ATOM     15  HXT UNL     1       5.868   0.251  19.165  0.00  0.00    +0.000 HD
ENDBRANCH  13  14
ENDBRANCH   1  13
BRANCH   5  16
ATOM     16  C   UNL     1       4.500   6.004  18.939  0.00  0.00    +0.000 C 
BRANCH  16  17
ATOM     17  C   UNL     1       4.937   6.412  17.528  0.00  0.00    +0.000 C 
BRANCH  17  18
ATOM     18  C   UNL     1       6.450   6.541  17.372  0.00  0.00    +0.000 C 
BRANCH  18  19
ATOM     19  C   UNL     1       7.082   5.180  17.068  0.00  0.00    +0.000 C 
BRANCH  19  20
ATOM     20  C   UNL     1       6.933   4.827  15.638  0.00  0.00    +0.000 A 
ATOM     21  N   UNL     1       7.532   5.368  14.599  0.00  0.00    +0.000 NA
ATOM     22  N   UNL     1       7.068   4.690  13.498  0.00  0.00    +0.000 NA
ATOM     23  N   UNL     1       6.201   3.750  13.848  0.00  0.00    +0.000 NA
ATOM     24  N   UNL     1       6.114   3.835  15.181  0.00  0.00    +0.000 N 
ATOM     25  H   UNL     1       5.503   3.207  15.684  0.00  0.00    +0.000 HD
ENDBRANCH  19  20
ENDBRANCH  18  19
ENDBRANCH  17  18
ENDBRANCH  16  17
ENDBRANCH   5  16
TORSDOF 7
ENDMDL
MODEL 8
REMARK VINA RESULT:      -7.3      3.438      6.271
REMARK  Name = 
REMARK  7 active torsions:
REMARK  status: ('A' for Active; 'I' for Inactive)
REMARK    1  A    between atoms: C_2  and  OXT_3
REMARK    2  A    between atoms: C_2  and  CA_4
REMARK    3  A    between atoms: C_8  and  C_9
REMARK    4  A    between atoms: C_9  and  C_10
REMARK    5  A    between atoms: C_10  and  C_11
REMARK    6  A    between atoms: C_11  and  C_12
REMARK    7  A    between atoms: C_12  and  C_13
REMARK                            x       y       z     vdW  Elec       q    Type
REMARK                         _______ _______ _______ _____ _____    ______ ____
ROOT
ATOM      1  CA  UNL     1       2.490   6.848  18.872  0.00  0.00    +0.000 C 
ATOM      2  C   UNL     1       1.755   5.905  17.921  0.00  0.00    +0.000 C 
ATOM      3  C   UNL     1       2.005   4.434  18.268  0.00  0.00    +0.000 C 
ATOM      4  C   UNL     1       3.379   3.939  17.771  0.00  0.00    +0.000 C 
ATOM      5  C   UNL     1       4.309   3.200  18.758  0.00  0.00    +0.000 C 
ATOM      6  C   UNL     1       3.605   2.485  19.926  0.00  0.00    +0.000 C 
ATOM      7  C   UNL     1       2.114   2.751  20.090  0.00  0.00    +0.000 C 
ATOM      8  C   UNL     1       1.713   4.182  19.750  0.00  0.00    +0.000 C 
ATOM      9  C   UNL     1       2.337   5.230  20.687  0.00  0.00    +0.000 C 
ATOM     10  N   UNL     1       2.039   6.611  20.275  0.00  0.00    +0.000 NA
ATOM     11  H   UNL     1       2.585   7.230  20.886  0.00  0.00    +0.000 HD
ENDROOT
BRANCH   1  13
ATOM     12  O   UNL     1       2.406   8.806  17.405  0.00  0.00    +0.000 OA
ATOM     13  C   UNL     1       2.148   8.294  18.482  0.00  0.00    +0.000 C 
BRANCH  13  14
ATOM     14  OXT UNL     1       1.484   8.934  19.480  0.00  0.00    +0.000 OA
ATOM     15  HXT UNL     1       2.079   9.651  19.806  0.00  0.00    +0.000 HD
ENDBRANCH  13  14
ENDBRANCH   1  13
BRANCH   5  16
ATOM     16  C   UNL     1       5.484   4.128  19.176  0.00  0.00    +0.000 C 
BRANCH  16  17
ATOM     17  C   UNL     1       5.504   5.542  18.587  0.00  0.00    +0.000 C 
BRANCH  17  18
ATOM     18  C   UNL     1       6.714   5.813  17.696  0.00  0.00    +0.000 C 
BRANCH  18  19
ATOM     19  C   UNL     1       7.217   4.516  17.057  0.00  0.00    +0.000 C 
BRANCH  19  20
ATOM     20  C   UNL     1       7.078   4.554  15.584  0.00  0.00    +0.000 A 
ATOM     21  N   UNL     1       7.587   5.425  14.739  0.00  0.00    +0.000 NA
ATOM     22  N   UNL     1       7.180   5.025  13.490  0.00  0.00    +0.000 NA
ATOM     23  N   UNL     1       6.435   3.931  13.560  0.00  0.00    +0.000 NA
ATOM     24  N   UNL     1       6.369   3.636  14.863  0.00  0.00    +0.000 N 
ATOM     25  H   UNL     1       5.846   2.827  15.169  0.00  0.00    +0.000 HD
ENDBRANCH  19  20
ENDBRANCH  18  19
ENDBRANCH  17  18
ENDBRANCH  16  17
ENDBRANCH   5  16
TORSDOF 7
ENDMDL
MODEL 9
REMARK VINA RESULT:      -7.2      2.419      5.177
REMARK  Name = 
REMARK  7 active torsions:
REMARK  status: ('A' for Active; 'I' for Inactive)
REMARK    1  A    between atoms: C_2  and  OXT_3
REMARK    2  A    between atoms: C_2  and  CA_4
REMARK    3  A    between atoms: C_8  and  C_9
REMARK    4  A    between atoms: C_9  and  C_10
REMARK    5  A    between atoms: C_10  and  C_11
REMARK    6  A    between atoms: C_11  and  C_12
REMARK    7  A    between atoms: C_12  and  C_13
REMARK                            x       y       z     vdW  Elec       q    Type
REMARK                         _______ _______ _______ _____ _____    ______ ____
ROOT
ATOM      1  CA  UNL     1       4.383   1.941  19.983  0.00  0.00    +0.000 C 
ATOM      2  C   UNL     1       3.243   2.366  20.906  0.00  0.00    +0.000 C 
ATOM      3  C   UNL     1       2.227   3.258  20.186  0.00  0.00    +0.000 C 
ATOM      4  C   UNL     1       2.718   4.713  20.049  0.00  0.00    +0.000 C 
ATOM      5  C   UNL     1       2.661   5.394  18.663  0.00  0.00    +0.000 C 
ATOM      6  C   UNL     1       1.600   4.839  17.693  0.00  0.00    +0.000 C 
ATOM      7  C   UNL     1       0.875   3.571  18.127  0.00  0.00    +0.000 C 
ATOM      8  C   UNL     1       1.766   2.593  18.886  0.00  0.00    +0.000 C 
ATOM      9  C   UNL     1       2.921   2.036  18.037  0.00  0.00    +0.000 C 
ATOM     10  N   UNL     1       3.841   1.189  18.813  0.00  0.00    +0.000 NA
ATOM     11  H   UNL     1       4.631   0.961  18.197  0.00  0.00    +0.000 HD
ENDROOT
BRANCH   1  13
ATOM     12  O   UNL     1       5.727   1.230  21.902  0.00  0.00    +0.000 OA
ATOM     13  C   UNL     1       5.325   1.017  20.770  0.00  0.00    +0.000 C 
BRANCH  13  14
ATOM     14  OXT UNL     1       5.635  -0.099  20.058  0.00  0.00    +0.000 OA
ATOM     15  HXT UNL     1       6.287   0.173  19.368  0.00  0.00    +0.000 HD
ENDBRANCH  13  14
ENDBRANCH   1  13
BRANCH   5  16
ATOM     16  C   UNL     1       4.092   5.505  18.067  0.00  0.00    +0.000 C 
BRANCH  16  17
ATOM     17  C   UNL     1       4.366   4.759  16.756  0.00  0.00    +0.000 C 
BRANCH  17  18
ATOM     18  C   UNL     1       5.296   5.513  15.810  0.00  0.00    +0.000 C 
BRANCH  18  19
ATOM     19  C   UNL     1       6.735   5.005  15.946  0.00  0.00    +0.000 C 
BRANCH  19  20
ATOM     20  C   UNL     1       7.303   5.352  17.268  0.00  0.00    +0.000 A 
ATOM     21  N   UNL     1       7.543   6.547  17.764  0.00  0.00    +0.000 NA
ATOM     22  N   UNL     1       8.061   6.340  19.019  0.00  0.00    +0.000 NA
ATOM     23  N   UNL     1       8.139   5.046  19.294  0.00  0.00    +0.000 NA
ATOM     24  N   UNL     1       7.669   4.428  18.205  0.00  0.00    +0.000 N 
ATOM     25  H   UNL     1       7.629   3.419  18.178  0.00  0.00    +0.000 HD
ENDBRANCH  19  20
ENDBRANCH  18  19
ENDBRANCH  17  18
ENDBRANCH  16  17
ENDBRANCH   5  16
TORSDOF 7
ENDMDL
