MODEL 1
REMARK VINA RESULT:      -8.3      0.000      0.000
REMARK  Name = 
REMARK  9 active torsions:
REMARK  status: ('A' for Active; 'I' for Inactive)
REMARK    1  A    between atoms: C_1  and  O_2
REMARK    2  A    between atoms: O_2  and  C_3
REMARK    3  A    between atoms: C_6  and  O_7
REMARK    4  A    between atoms: O_7  and  C_8
REMARK    5  A    between atoms: C_8  and  C_9
REMARK    6  A    between atoms: N_11  and  C_12
REMARK    7  A    between atoms: C_15  and  N_16
REMARK    8  A    between atoms: C_20  and  C_22
REMARK    9  A    between atoms: C_27  and  C_28
REMARK                            x       y       z     vdW  Elec       q    Type
REMARK                         _______ _______ _______ _____ _____    ______ ____
ROOT
ATOM      1  C   UNL     1       2.457   6.773  18.813  0.00  0.00    +0.000 A 
ATOM      2  C   UNL     1       2.061   6.969  20.132  0.00  0.00    +0.000 A 
ATOM      3  C   UNL     1       1.518   8.194  20.541  0.00  0.00    +0.000 A 
ATOM      4  C   UNL     1       1.337   9.263  19.656  0.00  0.00    +0.000 A 
ATOM      5  C   UNL     1       1.741   9.043  18.331  0.00  0.00    +0.000 A 
ATOM      6  C   UNL     1       2.309   7.826  17.917  0.00  0.00    +0.000 A 
ENDROOT
BRANCH   4   7
ATOM      7  N   UNL     1       0.755  10.449  20.053  0.00  0.00    +0.000 N 
ATOM      8  C   UNL     1       0.722  11.647  19.189  0.00  0.00    +0.000 C 
ATOM      9  C   UNL     1      -0.673  12.304  19.243  0.00  0.00    +0.000 C 
ATOM     10  N   UNL     1      -1.111  12.531  20.631  0.00  0.00    +0.000 N 
ATOM     11  C   UNL     1      -1.587  13.793  20.990  0.00  0.00    +0.000 C 
ATOM     12  O   UNL     1      -1.670  14.719  20.181  0.00  0.00    +0.000 OA
ATOM     13  C   UNL     1      -1.078  11.305  21.444  0.00  0.00    +0.000 C 
ATOM     14  C   UNL     1       0.340  10.693  21.447  0.00  0.00    +0.000 C 
BRANCH  11  15
ATOM     15  C   UNL     1      -1.993  14.074  22.404  0.00  0.00    +0.000 A 
ATOM     16  C   UNL     1      -1.088  14.715  23.264  0.00  0.00    +0.000 A 
ATOM     17  C   UNL     1      -1.406  14.936  24.606  0.00  0.00    +0.000 A 
ATOM     18  C   UNL     1      -2.674  14.612  25.074  0.00  0.00    +0.000 A 
ATOM     19  C   UNL     1      -3.618  14.067  24.205  0.00  0.00    +0.000 A 
ATOM     20  C   UNL     1      -3.290  13.769  22.870  0.00  0.00    +0.000 A 
ATOM     21  C   UNL     1      -4.362  13.190  21.986  0.00  0.00    +0.000 C 
ENDBRANCH  11  15
ENDBRANCH   4   7
BRANCH   1  24
ATOM     22  C   UNL     1       2.344   4.507  17.788  0.00  0.00    +0.000 C 
ATOM     23  O   UNL     1       1.156   4.499  17.482  0.00  0.00    +0.000 OA
ATOM     24  N   UNL     1       3.030   5.570  18.352  0.00  0.00    +0.000 N 
ATOM     25  H   UNL     1       4.040   5.503  18.404  0.00  0.00    +0.000 HD
BRANCH  22  26
ATOM     26  C   UNL     1       3.202   3.275  17.531  0.00  0.00    +0.000 C 
BRANCH  26  27
ATOM     27  O   UNL     1       4.503   3.537  18.050  0.00  0.00    +0.000 OA
BRANCH  27  31
ATOM     28  C   UNL     1       7.129   5.092  15.208  0.00  0.00    +0.000 A 
ATOM     29  C   UNL     1       6.146   4.159  14.878  0.00  0.00    +0.000 A 
ATOM     30  C   UNL     1       5.278   3.675  15.858  0.00  0.00    +0.000 A 
ATOM     31  C   UNL     1       5.406   4.086  17.185  0.00  0.00    +0.000 A 
ATOM     32  C   UNL     1       6.387   5.018  17.517  0.00  0.00    +0.000 A 
ATOM     33  C   UNL     1       7.249   5.517  16.531  0.00  0.00    +0.000 A 
BRANCH  28  35
ATOM     34  C   UNL     1       7.536   5.035  12.882  0.00  0.00    +0.000 C 
ATOM     35  O   UNL     1       7.932   5.485  14.172  0.00  0.00    +0.000 OA
ENDBRANCH  28  35
ENDBRANCH  27  31
ENDBRANCH  26  27
ENDBRANCH  22  26
ENDBRANCH   1  24
TORSDOF 7
ENDMDL
MODEL 2
REMARK VINA RESULT:      -8.1      1.520      2.206
REMARK  Name = 
REMARK  9 active torsions:
REMARK  status: ('A' for Active; 'I' for Inactive)
REMARK    1  A    between atoms: C_1  and  O_2
REMARK    2  A    between atoms: O_2  and  C_3
REMARK    3  A    between atoms: C_6  and  O_7
REMARK    4  A    between atoms: O_7  and  C_8
REMARK    5  A    between atoms: C_8  and  C_9
REMARK    6  A    between atoms: N_11  and  C_12
REMARK    7  A    between atoms: C_15  and  N_16
REMARK    8  A    between atoms: C_20  and  C_22
REMARK    9  A    between atoms: C_27  and  C_28
REMARK                            x       y       z     vdW  Elec       q    Type
REMARK                         _______ _______ _______ _____ _____    ______ ____
ROOT
ATOM      1  C   UNL     1       2.448   6.898  19.283  0.00  0.00    +0.000 A 
ATOM      2  C   UNL     1       1.879   7.025  20.546  0.00  0.00    +0.000 A 
ATOM      3  C   UNL     1       1.201   8.195  20.910  0.00  0.00    +0.000 A 
ATOM      4  C   UNL     1       1.053   9.276  20.034  0.00  0.00    +0.000 A 
ATOM      5  C   UNL     1       1.633   9.126  18.766  0.00  0.00    +0.000 A 
ATOM      6  C   UNL     1       2.335   7.965  18.400  0.00  0.00    +0.000 A 
ENDROOT
BRANCH   4   7
ATOM      7  N   UNL     1       0.341  10.405  20.380  0.00  0.00    +0.000 N 
ATOM      8  C   UNL     1      -0.305  11.278  19.378  0.00  0.00    +0.000 C 
ATOM      9  C   UNL     1      -1.723  11.668  19.845  0.00  0.00    +0.000 C 
ATOM     10  N   UNL     1      -1.711  12.206  21.216  0.00  0.00    +0.000 N 
ATOM     11  C   UNL     1      -2.361  13.414  21.471  0.00  0.00    +0.000 C 
ATOM     12  O   UNL     1      -2.959  14.038  20.593  0.00  0.00    +0.000 OA
ATOM     13  C   UNL     1      -1.075  11.293  22.179  0.00  0.00    +0.000 C 
ATOM     14  C   UNL     1       0.369  10.965  21.744  0.00  0.00    +0.000 C 
BRANCH  11  15
ATOM     15  C   UNL     1      -2.326  14.017  22.843  0.00  0.00    +0.000 A 
ATOM     16  C   UNL     1      -3.394  13.787  23.722  0.00  0.00    +0.000 A 
ATOM     17  C   UNL     1      -3.428  14.385  24.984  0.00  0.00    +0.000 A 
ATOM     18  C   UNL     1      -2.341  15.135  25.418  0.00  0.00    +0.000 A 
ATOM     19  C   UNL     1      -1.227  15.288  24.592  0.00  0.00    +0.000 A 
ATOM     20  C   UNL     1      -1.209  14.755  23.290  0.00  0.00    +0.000 A 
ATOM     21  C   UNL     1       0.029  14.953  22.459  0.00  0.00    +0.000 C 
ENDBRANCH  11  15
ENDBRANCH   4   7
BRANCH   1  24
ATOM     22  C   UNL     1       2.662   4.722  18.094  0.00  0.00    +0.000 C 
ATOM     23  O   UNL     1       1.571   4.706  17.534  0.00  0.00    +0.000 OA
ATOM     24  N   UNL     1       3.161   5.753  18.872  0.00  0.00    +0.000 N 
ATOM     25  H   UNL     1       4.138   5.709  19.140  0.00  0.00    +0.000 HD
BRANCH  22  26
ATOM     26  C   UNL     1       3.610   3.539  17.941  0.00  0.00    +0.000 C 
BRANCH  26  27
ATOM     27  O   UNL     1       4.551   3.868  16.923  0.00  0.00    +0.000 OA
BRANCH  27  31
ATOM     28  C   UNL     1       7.382   6.750  17.962  0.00  0.00    +0.000 A 
ATOM     29  C   UNL     1       7.336   5.499  18.576  0.00  0.00    +0.000 A 
ATOM     30  C   UNL     1       6.382   4.558  18.188  0.00  0.00    +0.000 A 
ATOM     31  C   UNL     1       5.436   4.868  17.211  0.00  0.00    +0.000 A 
ATOM     32  C   UNL     1       5.479   6.118  16.595  0.00  0.00    +0.000 A 
ATOM     33  C   UNL     1       6.448   7.057  16.972  0.00  0.00    +0.000 A 
BRANCH  28  35
ATOM     34  C   UNL     1       8.237   8.951  18.004  0.00  0.00    +0.000 C 
ATOM     35  O   UNL     1       8.348   7.598  18.431  0.00  0.00    +0.000 OA
ENDBRANCH  28  35
ENDBRANCH  27  31
ENDBRANCH  26  27
ENDBRANCH  22  26
ENDBRANCH   1  24
TORSDOF 7
ENDMDL
MODEL 3
REMARK VINA RESULT:      -8.1      1.037      1.380
REMARK  Name = 
REMARK  9 active torsions:
REMARK  status: ('A' for Active; 'I' for Inactive)
REMARK    1  A    between atoms: C_1  and  O_2
REMARK    2  A    between atoms: O_2  and  C_3
REMARK    3  A    between atoms: C_6  and  O_7
REMARK    4  A    between atoms: O_7  and  C_8
REMARK    5  A    between atoms: C_8  and  C_9
REMARK    6  A    between atoms: N_11  and  C_12
REMARK    7  A    between atoms: C_15  and  N_16
REMARK    8  A    between atoms: C_20  and  C_22
REMARK    9  A    between atoms: C_27  and  C_28
REMARK                            x       y       z     vdW  Elec       q    Type
REMARK                         _______ _______ _______ _____ _____    ______ ____
ROOT
ATOM      1  C   UNL     1       2.253   7.214  19.316  0.00  0.00    +0.000 A 
ATOM      2  C   UNL     1       2.024   8.246  18.412  0.00  0.00    +0.000 A 
ATOM      3  C   UNL     1       1.316   9.391  18.799  0.00  0.00    +0.000 A 
ATOM      4  C   UNL     1       0.821   9.560  20.097  0.00  0.00    +0.000 A 
ATOM      5  C   UNL     1       1.065   8.508  20.992  0.00  0.00    +0.000 A 
ATOM      6  C   UNL     1       1.753   7.345  20.607  0.00  0.00    +0.000 A 
ENDROOT
BRANCH   4   7
ATOM      7  N   UNL     1       0.169  10.711  20.486  0.00  0.00    +0.000 N 
ATOM      8  C   UNL     1      -0.451  11.641  19.520  0.00  0.00    +0.000 C 
ATOM      9  C   UNL     1      -1.840  12.084  20.023  0.00  0.00    +0.000 C 
ATOM     10  N   UNL     1      -1.781  12.584  21.407  0.00  0.00    +0.000 N 
ATOM     11  C   UNL     1      -2.368  13.813  21.706  0.00  0.00    +0.000 C 
ATOM     12  O   UNL     1      -2.950  14.488  20.856  0.00  0.00    +0.000 OA
ATOM     13  C   UNL     1      -1.173  11.614  22.334  0.00  0.00    +0.000 C 
ATOM     14  C   UNL     1       0.247  11.231  21.864  0.00  0.00    +0.000 C 
BRANCH  11  15
ATOM     15  C   UNL     1      -2.281  14.376  23.093  0.00  0.00    +0.000 A 
ATOM     16  C   UNL     1      -1.229  15.244  23.417  0.00  0.00    +0.000 A 
ATOM     17  C   UNL     1      -1.079  15.737  24.716  0.00  0.00    +0.000 A 
ATOM     18  C   UNL     1      -2.042  15.448  25.676  0.00  0.00    +0.000 A 
ATOM     19  C   UNL     1      -3.148  14.668  25.339  0.00  0.00    +0.000 A 
ATOM     20  C   UNL     1      -3.275  14.103  24.057  0.00  0.00    +0.000 A 
ATOM     21  C   UNL     1      -4.499  13.278  23.763  0.00  0.00    +0.000 C 
ENDBRANCH  11  15
ENDBRANCH   4   7
BRANCH   1  24
ATOM     22  C   UNL     1       2.498   4.738  19.217  0.00  0.00    +0.000 C 
ATOM     23  O   UNL     1       1.393   4.423  19.645  0.00  0.00    +0.000 OA
ATOM     24  N   UNL     1       2.938   6.030  18.974  0.00  0.00    +0.000 N 
ATOM     25  H   UNL     1       3.809   6.142  18.469  0.00  0.00    +0.000 HD
BRANCH  22  26
ATOM     26  C   UNL     1       3.518   3.658  18.882  0.00  0.00    +0.000 C 
BRANCH  26  27
ATOM     27  O   UNL     1       4.812   4.253  18.930  0.00  0.00    +0.000 OA
BRANCH  27  31
ATOM     28  C   UNL     1       6.599   4.567  15.174  0.00  0.00    +0.000 A 
ATOM     29  C   UNL     1       5.262   4.204  15.332  0.00  0.00    +0.000 A 
ATOM     30  C   UNL     1       4.699   4.126  16.607  0.00  0.00    +0.000 A 
ATOM     31  C   UNL     1       5.474   4.368  17.741  0.00  0.00    +0.000 A 
ATOM     32  C   UNL     1       6.811   4.731  17.586  0.00  0.00    +0.000 A 
ATOM     33  C   UNL     1       7.373   4.828  16.306  0.00  0.00    +0.000 A 
BRANCH  28  35
ATOM     34  C   UNL     1       6.335   3.778  12.965  0.00  0.00    +0.000 C 
ATOM     35  O   UNL     1       7.049   4.598  13.883  0.00  0.00    +0.000 OA
ENDBRANCH  28  35
ENDBRANCH  27  31
ENDBRANCH  26  27
ENDBRANCH  22  26
ENDBRANCH   1  24
TORSDOF 7
ENDMDL
MODEL 4
REMARK VINA RESULT:      -8.0      1.923     11.909
REMARK  Name = 
REMARK  9 active torsions:
REMARK  status: ('A' for Active; 'I' for Inactive)
REMARK    1  A    between atoms: C_1  and  O_2
REMARK    2  A    between atoms: O_2  and  C_3
REMARK    3  A    between atoms: C_6  and  O_7
REMARK    4  A    between atoms: O_7  and  C_8
REMARK    5  A    between atoms: C_8  and  C_9
REMARK    6  A    between atoms: N_11  and  C_12
REMARK    7  A    between atoms: C_15  and  N_16
REMARK    8  A    between atoms: C_20  and  C_22
REMARK    9  A    between atoms: C_27  and  C_28
REMARK                            x       y       z     vdW  Elec       q    Type
REMARK                         _______ _______ _______ _____ _____    ______ ____
ROOT
ATOM      1  C   UNL     1      -0.258  10.260  21.273  0.00  0.00    +0.000 A 
ATOM      2  C   UNL     1       0.063  10.223  19.920  0.00  0.00    +0.000 A 
ATOM      3  C   UNL     1       0.917   9.234  19.415  0.00  0.00    +0.000 A 
ATOM      4  C   UNL     1       1.472   8.241  20.228  0.00  0.00    +0.000 A 
ATOM      5  C   UNL     1       1.134   8.295  21.588  0.00  0.00    +0.000 A 
ATOM      6  C   UNL     1       0.298   9.297  22.108  0.00  0.00    +0.000 A 
ENDROOT
BRANCH   4   7
ATOM      7  N   UNL     1       2.271   7.240  19.716  0.00  0.00    +0.000 N 
ATOM      8  C   UNL     1       2.381   5.907  20.346  0.00  0.00    +0.000 C 
ATOM      9  C   UNL     1       2.325   4.803  19.270  0.00  0.00    +0.000 C 
ATOM     10  N   UNL     1       3.290   5.054  18.186  0.00  0.00    +0.000 N 
ATOM     11  C   UNL     1       4.146   4.024  17.793  0.00  0.00    +0.000 C 
ATOM     12  O   UNL     1       4.111   2.907  18.311  0.00  0.00    +0.000 OA
ATOM     13  C   UNL     1       3.127   6.385  17.578  0.00  0.00    +0.000 C 
ATOM     14  C   UNL     1       3.259   7.490  18.649  0.00  0.00    +0.000 C 
BRANCH  11  15
ATOM     15  C   UNL     1       5.175   4.260  16.730  0.00  0.00    +0.000 A 
ATOM     16  C   UNL     1       4.845   4.013  15.389  0.00  0.00    +0.000 A 
ATOM     17  C   UNL     1       5.797   4.159  14.377  0.00  0.00    +0.000 A 
ATOM     18  C   UNL     1       7.058   4.655  14.686  0.00  0.00    +0.000 A 
ATOM     19  C   UNL     1       7.367   5.000  16.001  0.00  0.00    +0.000 A 
ATOM     20  C   UNL     1       6.445   4.789  17.043  0.00  0.00    +0.000 A 
ATOM     21  C   UNL     1       6.844   5.194  18.437  0.00  0.00    +0.000 C 
ENDBRANCH  11  15
ENDBRANCH   4   7
BRANCH   1  24
ATOM     22  C   UNL     1      -0.699  12.514  22.232  0.00  0.00    +0.000 C 
ATOM     23  O   UNL     1       0.399  13.023  22.029  0.00  0.00    +0.000 OA
ATOM     24  N   UNL     1      -1.092  11.245  21.839  0.00  0.00    +0.000 N 
ATOM     25  H   UNL     1      -2.075  11.011  21.925  0.00  0.00    +0.000 HD
BRANCH  22  26
ATOM     26  C   UNL     1      -1.778  13.306  22.958  0.00  0.00    +0.000 C 
BRANCH  26  27
ATOM     27  O   UNL     1      -2.525  14.020  21.977  0.00  0.00    +0.000 OA
BRANCH  27  31
ATOM     28  C   UNL     1      -6.073  12.297  20.622  0.00  0.00    +0.000 A 
ATOM     29  C   UNL     1      -4.958  12.443  19.798  0.00  0.00    +0.000 A 
ATOM     30  C   UNL     1      -3.784  13.012  20.296  0.00  0.00    +0.000 A 
ATOM     31  C   UNL     1      -3.724  13.478  21.610  0.00  0.00    +0.000 A 
ATOM     32  C   UNL     1      -4.838  13.333  22.435  0.00  0.00    +0.000 A 
ATOM     33  C   UNL     1      -6.011  12.746  21.941  0.00  0.00    +0.000 A 
BRANCH  28  35
ATOM     34  C   UNL     1      -7.139  11.691  18.603  0.00  0.00    +0.000 C 
ATOM     35  O   UNL     1      -7.172  11.740  20.025  0.00  0.00    +0.000 OA
ENDBRANCH  28  35
ENDBRANCH  27  31
ENDBRANCH  26  27
ENDBRANCH  22  26
ENDBRANCH   1  24
TORSDOF 7
ENDMDL
MODEL 5
REMARK VINA RESULT:      -8.0      2.032     12.198
REMARK  Name = 
REMARK  9 active torsions:
REMARK  status: ('A' for Active; 'I' for Inactive)
REMARK    1  A    between atoms: C_1  and  O_2
REMARK    2  A    between atoms: O_2  and  C_3
REMARK    3  A    between atoms: C_6  and  O_7
REMARK    4  A    between atoms: O_7  and  C_8
REMARK    5  A    between atoms: C_8  and  C_9
REMARK    6  A    between atoms: N_11  and  C_12
REMARK    7  A    between atoms: C_15  and  N_16
REMARK    8  A    between atoms: C_20  and  C_22
REMARK    9  A    between atoms: C_27  and  C_28
REMARK                            x       y       z     vdW  Elec       q    Type
REMARK                         _______ _______ _______ _____ _____    ______ ____
ROOT
ATOM      1  C   UNL     1      -0.349  10.868  21.288  0.00  0.00    +0.000 A 
ATOM      2  C   UNL     1      -0.037   9.832  22.163  0.00  0.00    +0.000 A 
ATOM      3  C   UNL     1       0.699   8.724  21.725  0.00  0.00    +0.000 A 
ATOM      4  C   UNL     1       1.162   8.607  20.410  0.00  0.00    +0.000 A 
ATOM      5  C   UNL     1       0.838   9.663  19.546  0.00  0.00    +0.000 A 
ATOM      6  C   UNL     1       0.080  10.768  19.970  0.00  0.00    +0.000 A 
ENDROOT
BRANCH   4   7
ATOM      7  N   UNL     1       1.930   7.538  19.998  0.00  0.00    +0.000 N 
ATOM      8  C   UNL     1       1.892   6.223  20.673  0.00  0.00    +0.000 C 
ATOM      9  C   UNL     1       1.851   5.089  19.628  0.00  0.00    +0.000 C 
ATOM     10  N   UNL     1       2.920   5.237  18.626  0.00  0.00    +0.000 N 
ATOM     11  C   UNL     1       3.732   4.140  18.339  0.00  0.00    +0.000 C 
ATOM     12  O   UNL     1       3.575   3.045  18.882  0.00  0.00    +0.000 OA
ATOM     13  C   UNL     1       2.903   6.555  17.969  0.00  0.00    +0.000 C 
ATOM     14  C   UNL     1       3.019   7.684  19.015  0.00  0.00    +0.000 C 
BRANCH  11  15
ATOM     15  C   UNL     1       4.862   4.269  17.363  0.00  0.00    +0.000 A 
ATOM     16  C   UNL     1       4.638   3.974  16.010  0.00  0.00    +0.000 A 
ATOM     17  C   UNL     1       5.681   4.020  15.083  0.00  0.00    +0.000 A 
ATOM     18  C   UNL     1       6.936   4.465  15.481  0.00  0.00    +0.000 A 
ATOM     19  C   UNL     1       7.147   4.859  16.802  0.00  0.00    +0.000 A 
ATOM     20  C   UNL     1       6.127   4.747  17.765  0.00  0.00    +0.000 A 
ATOM     21  C   UNL     1       6.424   5.199  19.170  0.00  0.00    +0.000 C 
ENDBRANCH  11  15
ENDBRANCH   4   7
BRANCH   1  24
ATOM     22  C   UNL     1      -0.596  13.227  22.042  0.00  0.00    +0.000 C 
ATOM     23  O   UNL     1       0.580  13.570  21.974  0.00  0.00    +0.000 OA
ATOM     24  N   UNL     1      -1.106  11.994  21.669  0.00  0.00    +0.000 N 
ATOM     25  H   UNL     1      -2.114  11.898  21.622  0.00  0.00    +0.000 HD
BRANCH  22  26
ATOM     26  C   UNL     1      -1.643  14.207  22.555  0.00  0.00    +0.000 C 
BRANCH  26  27
ATOM     27  O   UNL     1      -2.202  13.660  23.746  0.00  0.00    +0.000 OA
BRANCH  27  31
ATOM     28  C   UNL     1      -6.260  12.772  23.373  0.00  0.00    +0.000 A 
ATOM     29  C   UNL     1      -5.591  13.586  22.459  0.00  0.00    +0.000 A 
ATOM     30  C   UNL     1      -4.229  13.846  22.613  0.00  0.00    +0.000 A 
ATOM     31  C   UNL     1      -3.527  13.330  23.702  0.00  0.00    +0.000 A 
ATOM     32  C   UNL     1      -4.192  12.515  24.617  0.00  0.00    +0.000 A 
ATOM     33  C   UNL     1      -5.557  12.240  24.454  0.00  0.00    +0.000 A 
BRANCH  28  35
ATOM     34  C   UNL     1      -7.917  11.706  22.070  0.00  0.00    +0.000 C 
ATOM     35  O   UNL     1      -7.596  12.597  23.132  0.00  0.00    +0.000 OA
ENDBRANCH  28  35
ENDBRANCH  27  31
ENDBRANCH  26  27
ENDBRANCH  22  26
ENDBRANCH   1  24
TORSDOF 7
ENDMDL
MODEL 6
REMARK VINA RESULT:      -8.0      2.301      3.357
REMARK  Name = 
REMARK  9 active torsions:
REMARK  status: ('A' for Active; 'I' for Inactive)
REMARK    1  A    between atoms: C_1  and  O_2
REMARK    2  A    between atoms: O_2  and  C_3
REMARK    3  A    between atoms: C_6  and  O_7
REMARK    4  A    between atoms: O_7  and  C_8
REMARK    5  A    between atoms: C_8  and  C_9
REMARK    6  A    between atoms: N_11  and  C_12
REMARK    7  A    between atoms: C_15  and  N_16
REMARK    8  A    between atoms: C_20  and  C_22
REMARK    9  A    between atoms: C_27  and  C_28
REMARK                            x       y       z     vdW  Elec       q    Type
REMARK                         _______ _______ _______ _____ _____    ______ ____
ROOT
ATOM      1  C   UNL     1       2.188   7.449  19.651  0.00  0.00    +0.000 A 
ATOM      2  C   UNL     1       2.237   8.248  18.513  0.00  0.00    +0.000 A 
ATOM      3  C   UNL     1       1.623   9.507  18.496  0.00  0.00    +0.000 A 
ATOM      4  C   UNL     1       0.948  10.024  19.608  0.00  0.00    +0.000 A 
ATOM      5  C   UNL     1       0.912   9.203  20.744  0.00  0.00    +0.000 A 
ATOM      6  C   UNL     1       1.505   7.929  20.763  0.00  0.00    +0.000 A 
ENDROOT
BRANCH   4   7
ATOM      7  N   UNL     1       0.389  11.285  19.602  0.00  0.00    +0.000 N 
ATOM      8  C   UNL     1      -1.036  11.525  19.909  0.00  0.00    +0.000 C 
ATOM      9  C   UNL     1      -1.182  12.743  20.844  0.00  0.00    +0.000 C 
ATOM     10  N   UNL     1      -0.457  13.915  20.323  0.00  0.00    +0.000 N 
ATOM     11  C   UNL     1      -1.122  15.138  20.242  0.00  0.00    +0.000 C 
ATOM     12  O   UNL     1      -2.291  15.277  20.607  0.00  0.00    +0.000 OA
ATOM     13  C   UNL     1       0.962  13.630  20.052  0.00  0.00    +0.000 C 
ATOM     14  C   UNL     1       1.099  12.457  19.057  0.00  0.00    +0.000 C 
BRANCH  11  15
ATOM     15  C   UNL     1      -0.432  16.339  19.670  0.00  0.00    +0.000 A 
ATOM     16  C   UNL     1      -0.613  16.655  18.315  0.00  0.00    +0.000 A 
ATOM     17  C   UNL     1       0.065  17.727  17.732  0.00  0.00    +0.000 A 
ATOM     18  C   UNL     1       0.849  18.558  18.523  0.00  0.00    +0.000 A 
ATOM     19  C   UNL     1       0.957  18.315  19.893  0.00  0.00    +0.000 A 
ATOM     20  C   UNL     1       0.341  17.196  20.482  0.00  0.00    +0.000 A 
ATOM     21  C   UNL     1       0.494  17.002  21.967  0.00  0.00    +0.000 C 
ENDBRANCH  11  15
ENDBRANCH   4   7
BRANCH   1  24
ATOM     22  C   UNL     1       2.520   5.118  18.845  0.00  0.00    +0.000 C 
ATOM     23  O   UNL     1       1.863   5.182  17.811  0.00  0.00    +0.000 OA
ATOM     24  N   UNL     1       2.767   6.166  19.716  0.00  0.00    +0.000 N 
ATOM     25  H   UNL     1       3.458   6.019  20.444  0.00  0.00    +0.000 HD
BRANCH  22  26
ATOM     26  C   UNL     1       3.166   3.800  19.253  0.00  0.00    +0.000 C 
BRANCH  26  27
ATOM     27  O   UNL     1       4.529   4.066  19.572  0.00  0.00    +0.000 OA
BRANCH  27  31
ATOM     28  C   UNL     1       6.806   5.223  16.274  0.00  0.00    +0.000 A 
ATOM     29  C   UNL     1       5.825   4.235  16.189  0.00  0.00    +0.000 A 
ATOM     30  C   UNL     1       5.075   3.888  17.314  0.00  0.00    +0.000 A 
ATOM     31  C   UNL     1       5.322   4.495  18.546  0.00  0.00    +0.000 A 
ATOM     32  C   UNL     1       6.302   5.483  18.633  0.00  0.00    +0.000 A 
ATOM     33  C   UNL     1       7.044   5.843  17.501  0.00  0.00    +0.000 A 
BRANCH  28  35
ATOM     34  C   UNL     1       7.059   4.728  13.979  0.00  0.00    +0.000 C 
ATOM     35  O   UNL     1       7.488   5.471  15.114  0.00  0.00    +0.000 OA
ENDBRANCH  28  35
ENDBRANCH  27  31
ENDBRANCH  26  27
ENDBRANCH  22  26
ENDBRANCH   1  24
TORSDOF 7
ENDMDL
MODEL 7
REMARK VINA RESULT:      -8.0      1.097      1.359
REMARK  Name = 
REMARK  9 active torsions:
REMARK  status: ('A' for Active; 'I' for Inactive)
REMARK    1  A    between atoms: C_1  and  O_2
REMARK    2  A    between atoms: O_2  and  C_3
REMARK    3  A    between atoms: C_6  and  O_7
REMARK    4  A    between atoms: O_7  and  C_8
REMARK    5  A    between atoms: C_8  and  C_9
REMARK    6  A    between atoms: N_11  and  C_12
REMARK    7  A    between atoms: C_15  and  N_16
REMARK    8  A    between atoms: C_20  and  C_22
REMARK    9  A    between atoms: C_27  and  C_28
REMARK                            x       y       z     vdW  Elec       q    Type
REMARK                         _______ _______ _______ _____ _____    ______ ____
ROOT
ATOM      1  C   UNL     1       2.415   6.986  19.190  0.00  0.00    +0.000 A 
ATOM      2  C   UNL     1       1.927   7.141  20.484  0.00  0.00    +0.000 A 
ATOM      3  C   UNL     1       1.250   8.309  20.857  0.00  0.00    +0.000 A 
ATOM      4  C   UNL     1       1.021   9.358  19.961  0.00  0.00    +0.000 A 
ATOM      5  C   UNL     1       1.520   9.181  18.662  0.00  0.00    +0.000 A 
ATOM      6  C   UNL     1       2.221   8.023  18.285  0.00  0.00    +0.000 A 
ENDROOT
BRANCH   4   7
ATOM      7  N   UNL     1       0.309  10.484  20.320  0.00  0.00    +0.000 N 
ATOM      8  C   UNL     1      -0.367  11.348  19.331  0.00  0.00    +0.000 C 
ATOM      9  C   UNL     1      -1.776  11.729  19.831  0.00  0.00    +0.000 C 
ATOM     10  N   UNL     1      -1.736  12.273  21.199  0.00  0.00    +0.000 N 
ATOM     11  C   UNL     1      -2.388  13.477  21.466  0.00  0.00    +0.000 C 
ATOM     12  O   UNL     1      -3.012  14.093  20.599  0.00  0.00    +0.000 OA
ATOM     13  C   UNL     1      -1.070  11.368  22.150  0.00  0.00    +0.000 C 
ATOM     14  C   UNL     1       0.367  11.049  21.681  0.00  0.00    +0.000 C 
BRANCH  11  15
ATOM     15  C   UNL     1      -2.324  14.086  22.833  0.00  0.00    +0.000 A 
ATOM     16  C   UNL     1      -1.272  14.958  23.149  0.00  0.00    +0.000 A 
ATOM     17  C   UNL     1      -1.144  15.493  24.433  0.00  0.00    +0.000 A 
ATOM     18  C   UNL     1      -2.127  15.244  25.383  0.00  0.00    +0.000 A 
ATOM     19  C   UNL     1      -3.232  14.460  25.051  0.00  0.00    +0.000 A 
ATOM     20  C   UNL     1      -3.339  13.852  23.787  0.00  0.00    +0.000 A 
ATOM     21  C   UNL     1      -4.563  13.026  23.496  0.00  0.00    +0.000 C 
ENDBRANCH  11  15
ENDBRANCH   4   7
BRANCH   1  24
ATOM     22  C   UNL     1       3.237   4.652  19.466  0.00  0.00    +0.000 C 
ATOM     23  O   UNL     1       2.633   4.361  20.493  0.00  0.00    +0.000 OA
ATOM     24  N   UNL     1       3.124   5.843  18.767  0.00  0.00    +0.000 N 
ATOM     25  H   UNL     1       3.551   5.891  17.849  0.00  0.00    +0.000 HD
BRANCH  22  26
ATOM     26  C   UNL     1       4.195   3.649  18.839  0.00  0.00    +0.000 C 
BRANCH  26  27
ATOM     27  O   UNL     1       5.387   4.347  18.489  0.00  0.00    +0.000 OA
BRANCH  27  31
ATOM     28  C   UNL     1       6.580   4.550  14.497  0.00  0.00    +0.000 A 
ATOM     29  C   UNL     1       7.457   4.815  15.549  0.00  0.00    +0.000 A 
ATOM     30  C   UNL     1       7.020   4.721  16.871  0.00  0.00    +0.000 A 
ATOM     31  C   UNL     1       5.693   4.401  17.159  0.00  0.00    +0.000 A 
ATOM     32  C   UNL     1       4.815   4.135  16.110  0.00  0.00    +0.000 A 
ATOM     33  C   UNL     1       5.256   4.212  14.783  0.00  0.00    +0.000 A 
BRANCH  28  35
ATOM     34  C   UNL     1       6.706   3.705  12.296  0.00  0.00    +0.000 C 
ATOM     35  O   UNL     1       7.110   4.686  13.244  0.00  0.00    +0.000 OA
ENDBRANCH  28  35
ENDBRANCH  27  31
ENDBRANCH  26  27
ENDBRANCH  22  26
ENDBRANCH   1  24
TORSDOF 7
ENDMDL
MODEL 8
REMARK VINA RESULT:      -8.0      2.193      3.234
REMARK  Name = 
REMARK  9 active torsions:
REMARK  status: ('A' for Active; 'I' for Inactive)
REMARK    1  A    between atoms: C_1  and  O_2
REMARK    2  A    between atoms: O_2  and  C_3
REMARK    3  A    between atoms: C_6  and  O_7
REMARK    4  A    between atoms: O_7  and  C_8
REMARK    5  A    between atoms: C_8  and  C_9
REMARK    6  A    between atoms: N_11  and  C_12
REMARK    7  A    between atoms: C_15  and  N_16
REMARK    8  A    between atoms: C_20  and  C_22
REMARK    9  A    between atoms: C_27  and  C_28
REMARK                            x       y       z     vdW  Elec       q    Type
REMARK                         _______ _______ _______ _____ _____    ______ ____
ROOT
ATOM      1  C   UNL     1       2.153   7.295  19.785  0.00  0.00    +0.000 A 
ATOM      2  C   UNL     1       1.509   7.816  20.903  0.00  0.00    +0.000 A 
ATOM      3  C   UNL     1       0.966   9.107  20.877  0.00  0.00    +0.000 A 
ATOM      4  C   UNL     1       1.031   9.922  19.742  0.00  0.00    +0.000 A 
ATOM      5  C   UNL     1       1.682   9.376  18.626  0.00  0.00    +0.000 A 
ATOM      6  C   UNL     1       2.251   8.091  18.650  0.00  0.00    +0.000 A 
ENDROOT
BRANCH   4   7
ATOM      7  N   UNL     1       0.449  11.172  19.706  0.00  0.00    +0.000 N 
ATOM      8  C   UNL     1      -0.998  11.384  19.914  0.00  0.00    +0.000 C 
ATOM      9  C   UNL     1      -1.232  12.591  20.846  0.00  0.00    +0.000 C 
ATOM     10  N   UNL     1      -0.495  13.780  20.387  0.00  0.00    +0.000 N 
ATOM     11  C   UNL     1      -1.176  14.992  20.269  0.00  0.00    +0.000 C 
ATOM     12  O   UNL     1      -2.370  15.105  20.551  0.00  0.00    +0.000 OA
ATOM     13  C   UNL     1       0.944  13.523  20.214  0.00  0.00    +0.000 C 
ATOM     14  C   UNL     1       1.173  12.362  19.222  0.00  0.00    +0.000 C 
BRANCH  11  15
ATOM     15  C   UNL     1      -0.470  16.210  19.756  0.00  0.00    +0.000 A 
ATOM     16  C   UNL     1      -0.498  16.493  18.382  0.00  0.00    +0.000 A 
ATOM     17  C   UNL     1       0.202  17.582  17.859  0.00  0.00    +0.000 A 
ATOM     18  C   UNL     1       0.850  18.460  18.720  0.00  0.00    +0.000 A 
ATOM     19  C   UNL     1       0.800  18.248  20.097  0.00  0.00    +0.000 A 
ATOM     20  C   UNL     1       0.163  17.114  20.635  0.00  0.00    +0.000 A 
ATOM     21  C   UNL     1       0.142  16.954  22.131  0.00  0.00    +0.000 C 
ENDBRANCH  11  15
ENDBRANCH   4   7
BRANCH   1  24
ATOM     22  C   UNL     1       2.436   4.997  18.870  0.00  0.00    +0.000 C 
ATOM     23  O   UNL     1       1.713   5.098  17.884  0.00  0.00    +0.000 OA
ATOM     24  N   UNL     1       2.738   6.012  19.763  0.00  0.00    +0.000 N 
ATOM     25  H   UNL     1       3.474   5.840  20.438  0.00  0.00    +0.000 HD
BRANCH  22  26
ATOM     26  C   UNL     1       3.109   3.668  19.183  0.00  0.00    +0.000 C 
BRANCH  26  27
ATOM     27  O   UNL     1       4.507   3.909  19.310  0.00  0.00    +0.000 OA
BRANCH  27  31
ATOM     28  C   UNL     1       6.768   4.864  15.937  0.00  0.00    +0.000 A 
ATOM     29  C   UNL     1       7.108   5.318  17.212  0.00  0.00    +0.000 A 
ATOM     30  C   UNL     1       6.332   4.962  18.316  0.00  0.00    +0.000 A 
ATOM     31  C   UNL     1       5.185   4.184  18.156  0.00  0.00    +0.000 A 
ATOM     32  C   UNL     1       4.843   3.729  16.884  0.00  0.00    +0.000 A 
ATOM     33  C   UNL     1       5.631   4.071  15.777  0.00  0.00    +0.000 A 
BRANCH  28  35
ATOM     34  C   UNL     1       7.231   4.849  13.622  0.00  0.00    +0.000 C 
ATOM     35  O   UNL     1       7.590   5.285  14.928  0.00  0.00    +0.000 OA
ENDBRANCH  28  35
ENDBRANCH  27  31
ENDBRANCH  26  27
ENDBRANCH  22  26
ENDBRANCH   1  24
TORSDOF 7
ENDMDL
MODEL 9
REMARK VINA RESULT:      -8.0      2.174      3.260
REMARK  Name = 
REMARK  9 active torsions:
REMARK  status: ('A' for Active; 'I' for Inactive)
REMARK    1  A    between atoms: C_1  and  O_2
REMARK    2  A    between atoms: O_2  and  C_3
REMARK    3  A    between atoms: C_6  and  O_7
REMARK    4  A    between atoms: O_7  and  C_8
REMARK    5  A    between atoms: C_8  and  C_9
REMARK    6  A    between atoms: N_11  and  C_12
REMARK    7  A    between atoms: C_15  and  N_16
REMARK    8  A    between atoms: C_20  and  C_22
REMARK    9  A    between atoms: C_27  and  C_28
REMARK                            x       y       z     vdW  Elec       q    Type
REMARK                         _______ _______ _______ _____ _____    ______ ____
ROOT
ATOM      1  C   UNL     1       3.780   6.575  18.190  0.00  0.00    +0.000 A 
ATOM      2  C   UNL     1       3.369   7.774  17.618  0.00  0.00    +0.000 A 
ATOM      3  C   UNL     1       2.421   8.583  18.257  0.00  0.00    +0.000 A 
ATOM      4  C   UNL     1       1.856   8.240  19.490  0.00  0.00    +0.000 A 
ATOM      5  C   UNL     1       2.287   7.028  20.050  0.00  0.00    +0.000 A 
ATOM      6  C   UNL     1       3.219   6.198  19.405  0.00  0.00    +0.000 A 
ENDROOT
BRANCH   4   7
ATOM      7  N   UNL     1       0.961   9.065  20.139  0.00  0.00    +0.000 N 
ATOM      8  C   UNL     1      -0.063   8.552  21.072  0.00  0.00    +0.000 C 
ATOM      9  C   UNL     1      -0.131   9.441  22.330  0.00  0.00    +0.000 C 
ATOM     10  N   UNL     1      -0.275  10.865  21.980  0.00  0.00    +0.000 N 
ATOM     11  C   UNL     1      -1.277  11.614  22.597  0.00  0.00    +0.000 C 
ATOM     12  O   UNL     1      -2.036  11.130  23.438  0.00  0.00    +0.000 OA
ATOM     13  C   UNL     1       0.780  11.332  21.065  0.00  0.00    +0.000 C 
ATOM     14  C   UNL     1       0.794  10.484  19.774  0.00  0.00    +0.000 C 
BRANCH  11  15
ATOM     15  C   UNL     1      -1.485  13.051  22.227  0.00  0.00    +0.000 A 
ATOM     16  C   UNL     1      -0.902  14.054  23.014  0.00  0.00    +0.000 A 
ATOM     17  C   UNL     1      -1.126  15.405  22.738  0.00  0.00    +0.000 A 
ATOM     18  C   UNL     1      -1.850  15.764  21.608  0.00  0.00    +0.000 A 
ATOM     19  C   UNL     1      -2.350  14.777  20.759  0.00  0.00    +0.000 A 
ATOM     20  C   UNL     1      -2.197  13.412  21.063  0.00  0.00    +0.000 A 
ATOM     21  C   UNL     1      -2.756  12.402  20.097  0.00  0.00    +0.000 C 
ENDBRANCH  11  15
ENDBRANCH   4   7
BRANCH   1  24
ATOM     22  C   UNL     1       6.090   5.868  17.585  0.00  0.00    +0.000 C 
ATOM     23  O   UNL     1       6.716   6.704  18.228  0.00  0.00    +0.000 OA
ATOM     24  N   UNL     1       4.713   5.712  17.580  0.00  0.00    +0.000 N 
ATOM     25  H   UNL     1       4.337   4.882  17.136  0.00  0.00    +0.000 HD
BRANCH  22  26
ATOM     26  C   UNL     1       6.836   4.869  16.711  0.00  0.00    +0.000 C 
BRANCH  26  27
ATOM     27  O   UNL     1       7.108   5.503  15.464  0.00  0.00    +0.000 OA
BRANCH  27  31
ATOM     28  C   UNL     1       5.929   3.270  12.145  0.00  0.00    +0.000 A 
ATOM     29  C   UNL     1       5.195   3.281  13.331  0.00  0.00    +0.000 A 
ATOM     30  C   UNL     1       5.617   4.054  14.413  0.00  0.00    +0.000 A 
ATOM     31  C   UNL     1       6.798   4.794  14.339  0.00  0.00    +0.000 A 
ATOM     32  C   UNL     1       7.533   4.784  13.155  0.00  0.00    +0.000 A 
ATOM     33  C   UNL     1       7.101   4.022  12.062  0.00  0.00    +0.000 A 
BRANCH  28  35
ATOM     34  C   UNL     1       6.011   1.170  11.068  0.00  0.00    +0.000 C 
ATOM     35  O   UNL     1       5.431   2.466  11.156  0.00  0.00    +0.000 OA
ENDBRANCH  28  35
ENDBRANCH  27  31
ENDBRANCH  26  27
ENDBRANCH  22  26
ENDBRANCH   1  24
TORSDOF 7
ENDMDL
