MODEL 1
REMARK VINA RESULT:      -6.5      0.000      0.000
REMARK  Name = 
REMARK  9 active torsions:
REMARK  status: ('A' for Active; 'I' for Inactive)
REMARK    1  A    between atoms: C_1  and  C_2
REMARK    2  A    between atoms: N_4  and  C_5
REMARK    3  A    between atoms: C_7  and  O_8
REMARK    4  A    between atoms: O_8  and  S_9
REMARK    5  A    between atoms: S_9  and  C_10
REMARK    6  A    between atoms: C_13  and  C_14
REMARK    7  A    between atoms: C_14  and  O_15
REMARK    8  A    between atoms: O_15  and  S_16
REMARK    9  A    between atoms: S_16  and  C_17
REMARK                            x       y       z     vdW  Elec       q    Type
REMARK                         _______ _______ _______ _____ _____    ______ ____
ROOT
ATOM      1  C   UNL     1       2.381   4.089  18.656  0.00  0.00    +0.000 C 
ATOM      2  C   UNL     1       2.854   3.968  17.224  0.00  0.00    +0.000 C 
ATOM      3  C   UNL     1       4.367   4.046  17.355  0.00  0.00    +0.000 C 
ATOM      4  C   UNL     1       4.580   3.212  18.613  0.00  0.00    +0.000 C 
ATOM      5  O   UNL     1       3.428   3.503  19.454  0.00  0.00    +0.000 OA
ENDROOT
BRANCH   1   9
ATOM      6  C   UNL     1       2.245   8.952  17.679  0.00  0.00    +0.000 C 
ATOM      7  C   UNL     1       2.074   7.818  18.640  0.00  0.00    +0.000 A 
ATOM      8  C   UNL     1       2.219   6.550  18.262  0.00  0.00    +0.000 A 
ATOM      9  N   UNL     1       2.128   5.465  19.113  0.00  0.00    +0.000 N 
ATOM     10  C   UNL     1       1.804   5.655  20.454  0.00  0.00    +0.000 A 
ATOM     11  O   UNL     1       1.639   4.749  21.267  0.00  0.00    +0.000 OA
ATOM     12  N   UNL     1       1.627   6.965  20.836  0.00  0.00    +0.000 N 
ATOM     13  C   UNL     1       1.735   8.076  20.048  0.00  0.00    +0.000 A 
ATOM     14  O   UNL     1       1.544   9.210  20.471  0.00  0.00    +0.000 OA
ATOM     15  H   UNL     1       1.372   7.116  21.803  0.00  0.00    +0.000 HD
ENDBRANCH   1   9
BRANCH   3  16
ATOM     16  O   UNL     1       5.013   3.645  16.155  0.00  0.00    +0.000 OA
BRANCH  16  17
ATOM     17  S   UNL     1       5.838   4.843  15.383  0.00  0.00    +0.000 S 
ATOM     18  C   UNL     1       5.519   4.371  13.710  0.00  0.00    +0.000 C 
ATOM     19  O   UNL     1       5.162   6.100  15.635  0.00  0.00    +0.000 OA
ATOM     20  O   UNL     1       7.252   4.675  15.664  0.00  0.00    +0.000 OA
ENDBRANCH  16  17
ENDBRANCH   3  16
BRANCH   4  21
ATOM     21  C   UNL     1       5.833   3.598  19.406  0.00  0.00    +0.000 C 
BRANCH  21  22
ATOM     22  O   UNL     1       6.218   4.928  19.060  0.00  0.00    +0.000 OA
BRANCH  22  23
ATOM     23  S   UNL     1       7.806   5.286  19.160  0.00  0.00    +0.000 S 
ATOM     24  C   UNL     1       7.750   6.870  18.353  0.00  0.00    +0.000 C 
ATOM     25  O   UNL     1       8.133   5.483  20.555  0.00  0.00    +0.000 OA
ATOM     26  O   UNL     1       8.543   4.362  18.327  0.00  0.00    +0.000 OA
ENDBRANCH  22  23
ENDBRANCH  21  22
ENDBRANCH   4  21
TORSDOF 6
ENDMDL
MODEL 2
REMARK VINA RESULT:      -6.4      1.359      1.458
REMARK  Name = 
REMARK  9 active torsions:
REMARK  status: ('A' for Active; 'I' for Inactive)
REMARK    1  A    between atoms: C_1  and  C_2
REMARK    2  A    between atoms: N_4  and  C_5
REMARK    3  A    between atoms: C_7  and  O_8
REMARK    4  A    between atoms: O_8  and  S_9
REMARK    5  A    between atoms: S_9  and  C_10
REMARK    6  A    between atoms: C_13  and  C_14
REMARK    7  A    between atoms: C_14  and  O_15
REMARK    8  A    between atoms: O_15  and  S_16
REMARK    9  A    between atoms: S_16  and  C_17
REMARK                            x       y       z     vdW  Elec       q    Type
REMARK                         _______ _______ _______ _____ _____    ______ ____
ROOT
ATOM      1  C   UNL     1       3.725   3.897  19.084  0.00  0.00    +0.000 C 
ATOM      2  C   UNL     1       3.730   3.495  17.626  0.00  0.00    +0.000 C 
ATOM      3  C   UNL     1       5.009   4.128  17.100  0.00  0.00    +0.000 C 
ATOM      4  C   UNL     1       5.948   3.870  18.272  0.00  0.00    +0.000 C 
ATOM      5  O   UNL     1       5.114   3.998  19.457  0.00  0.00    +0.000 OA
ENDROOT
BRANCH   1   9
ATOM      6  C   UNL     1       2.544   8.516  17.707  0.00  0.00    +0.000 C 
ATOM      7  C   UNL     1       2.486   7.407  18.712  0.00  0.00    +0.000 A 
ATOM      8  C   UNL     1       3.020   6.213  18.470  0.00  0.00    +0.000 A 
ATOM      9  N   UNL     1       3.046   5.170  19.376  0.00  0.00    +0.000 N 
ATOM     10  C   UNL     1       2.431   5.308  20.617  0.00  0.00    +0.000 A 
ATOM     11  O   UNL     1       2.349   4.418  21.460  0.00  0.00    +0.000 OA
ATOM     12  N   UNL     1       1.855   6.536  20.855  0.00  0.00    +0.000 N 
ATOM     13  C   UNL     1       1.827   7.611  20.012  0.00  0.00    +0.000 A 
ATOM     14  O   UNL     1       1.275   8.666  20.300  0.00  0.00    +0.000 OA
ATOM     15  H   UNL     1       1.389   6.644  21.745  0.00  0.00    +0.000 HD
ENDBRANCH   1   9
BRANCH   3  16
ATOM     16  O   UNL     1       5.355   3.614  15.822  0.00  0.00    +0.000 OA
BRANCH  16  17
ATOM     17  S   UNL     1       6.065   4.702  14.810  0.00  0.00    +0.000 S 
ATOM     18  C   UNL     1       5.590   3.996  13.261  0.00  0.00    +0.000 C 
ATOM     19  O   UNL     1       5.384   5.973  14.955  0.00  0.00    +0.000 OA
ATOM     20  O   UNL     1       7.503   4.592  14.962  0.00  0.00    +0.000 OA
ENDBRANCH  16  17
ENDBRANCH   3  16
BRANCH   4  21
ATOM     21  C   UNL     1       7.078   4.897  18.397  0.00  0.00    +0.000 C 
BRANCH  21  22
ATOM     22  O   UNL     1       6.561   6.201  18.133  0.00  0.00    +0.000 OA
BRANCH  22  23
ATOM     23  S   UNL     1       7.636   7.346  17.694  0.00  0.00    +0.000 S 
ATOM     24  C   UNL     1       6.493   8.698  17.518  0.00  0.00    +0.000 C 
ATOM     25  O   UNL     1       8.498   7.607  18.825  0.00  0.00    +0.000 OA
ATOM     26  O   UNL     1       8.167   7.010  16.392  0.00  0.00    +0.000 OA
ENDBRANCH  22  23
ENDBRANCH  21  22
ENDBRANCH   4  21
TORSDOF 6
ENDMDL
MODEL 3
REMARK VINA RESULT:      -6.3      1.524      2.053
REMARK  Name = 
REMARK  9 active torsions:
REMARK  status: ('A' for Active; 'I' for Inactive)
REMARK    1  A    between atoms: C_1  and  C_2
REMARK    2  A    between atoms: N_4  and  C_5
REMARK    3  A    between atoms: C_7  and  O_8
REMARK    4  A    between atoms: O_8  and  S_9
REMARK    5  A    between atoms: S_9  and  C_10
REMARK    6  A    between atoms: C_13  and  C_14
REMARK    7  A    between atoms: C_14  and  O_15
REMARK    8  A    between atoms: O_15  and  S_16
REMARK    9  A    between atoms: S_16  and  C_17
REMARK                            x       y       z     vdW  Elec       q    Type
REMARK                         _______ _______ _______ _____ _____    ______ ____
ROOT
ATOM      1  C   UNL     1       4.129   3.862  18.986  0.00  0.00    +0.000 C 
ATOM      2  C   UNL     1       4.200   3.460  17.530  0.00  0.00    +0.000 C 
ATOM      3  C   UNL     1       5.449   4.174  17.036  0.00  0.00    +0.000 C 
ATOM      4  C   UNL     1       6.371   3.977  18.234  0.00  0.00    +0.000 C 
ATOM      5  O   UNL     1       5.498   4.052  19.396  0.00  0.00    +0.000 OA
ENDROOT
BRANCH   1   9
ATOM      6  C   UNL     1       2.784   8.440  17.621  0.00  0.00    +0.000 C 
ATOM      7  C   UNL     1       2.722   7.307  18.599  0.00  0.00    +0.000 A 
ATOM      8  C   UNL     1       3.337   6.149  18.370  0.00  0.00    +0.000 A 
ATOM      9  N   UNL     1       3.363   5.089  19.256  0.00  0.00    +0.000 N 
ATOM     10  C   UNL     1       2.662   5.167  20.457  0.00  0.00    +0.000 A 
ATOM     11  O   UNL     1       2.576   4.254  21.275  0.00  0.00    +0.000 OA
ATOM     12  N   UNL     1       2.005   6.355  20.678  0.00  0.00    +0.000 N 
ATOM     13  C   UNL     1       1.971   7.445  19.855  0.00  0.00    +0.000 A 
ATOM     14  O   UNL     1       1.343   8.462  20.127  0.00  0.00    +0.000 OA
ATOM     15  H   UNL     1       1.476   6.418  21.538  0.00  0.00    +0.000 HD
ENDBRANCH   1   9
BRANCH   3  16
ATOM     16  O   UNL     1       5.862   3.681  15.770  0.00  0.00    +0.000 OA
BRANCH  16  17
ATOM     17  S   UNL     1       5.653   4.732  14.520  0.00  0.00    +0.000 S 
ATOM     18  C   UNL     1       7.329   4.854  13.971  0.00  0.00    +0.000 C 
ATOM     19  O   UNL     1       4.887   4.066  13.486  0.00  0.00    +0.000 OA
ATOM     20  O   UNL     1       5.238   6.010  15.066  0.00  0.00    +0.000 OA
ENDBRANCH  16  17
ENDBRANCH   3  16
BRANCH   4  21
ATOM     21  C   UNL     1       7.429   5.075  18.386  0.00  0.00    +0.000 C 
BRANCH  21  22
ATOM     22  O   UNL     1       6.784   6.346  18.450  0.00  0.00    +0.000 OA
BRANCH  22  23
ATOM     23  S   UNL     1       7.313   7.495  17.422  0.00  0.00    +0.000 S 
ATOM     24  C   UNL     1       8.463   8.294  18.520  0.00  0.00    +0.000 C 
ATOM     25  O   UNL     1       8.053   6.842  16.365  0.00  0.00    +0.000 OA
ATOM     26  O   UNL     1       6.225   8.404  17.142  0.00  0.00    +0.000 OA
ENDBRANCH  22  23
ENDBRANCH  21  22
ENDBRANCH   4  21
TORSDOF 6
ENDMDL
MODEL 4
REMARK VINA RESULT:      -6.2      3.029      6.295
REMARK  Name = 
REMARK  9 active torsions:
REMARK  status: ('A' for Active; 'I' for Inactive)
REMARK    1  A    between atoms: C_1  and  C_2
REMARK    2  A    between atoms: N_4  and  C_5
REMARK    3  A    between atoms: C_7  and  O_8
REMARK    4  A    between atoms: O_8  and  S_9
REMARK    5  A    between atoms: S_9  and  C_10
REMARK    6  A    between atoms: C_13  and  C_14
REMARK    7  A    between atoms: C_14  and  O_15
REMARK    8  A    between atoms: O_15  and  S_16
REMARK    9  A    between atoms: S_16  and  C_17
REMARK                            x       y       z     vdW  Elec       q    Type
REMARK                         _______ _______ _______ _____ _____    ______ ____
ROOT
ATOM      1  C   UNL     1       2.763   5.324  17.400  0.00  0.00    +0.000 C 
ATOM      2  C   UNL     1       2.010   4.302  18.223  0.00  0.00    +0.000 C 
ATOM      3  C   UNL     1       1.980   4.930  19.608  0.00  0.00    +0.000 C 
ATOM      4  C   UNL     1       1.729   6.389  19.245  0.00  0.00    +0.000 C 
ATOM      5  O   UNL     1       2.458   6.597  18.003  0.00  0.00    +0.000 OA
ENDROOT
BRANCH   1   9
ATOM      6  C   UNL     1       7.319   7.287  17.508  0.00  0.00    +0.000 C 
ATOM      7  C   UNL     1       6.424   6.091  17.402  0.00  0.00    +0.000 A 
ATOM      8  C   UNL     1       5.102   6.194  17.504  0.00  0.00    +0.000 A 
ATOM      9  N   UNL     1       4.222   5.137  17.361  0.00  0.00    +0.000 N 
ATOM     10  C   UNL     1       4.707   3.848  17.155  0.00  0.00    +0.000 A 
ATOM     11  O   UNL     1       4.006   2.842  17.079  0.00  0.00    +0.000 OA
ATOM     12  N   UNL     1       6.077   3.741  17.077  0.00  0.00    +0.000 N 
ATOM     13  C   UNL     1       6.991   4.752  17.179  0.00  0.00    +0.000 A 
ATOM     14  O   UNL     1       8.200   4.562  17.113  0.00  0.00    +0.000 OA
ATOM     15  H   UNL     1       6.444   2.808  16.947  0.00  0.00    +0.000 HD
ENDBRANCH   1   9
BRANCH   3  16
ATOM     16  O   UNL     1       1.053   4.270  20.458  0.00  0.00    +0.000 OA
BRANCH  16  17
ATOM     17  S   UNL     1       1.505   2.759  20.929  0.00  0.00    +0.000 S 
ATOM     18  C   UNL     1       3.261   2.954  20.856  0.00  0.00    +0.000 C 
ATOM     19  O   UNL     1       1.129   2.581  22.317  0.00  0.00    +0.000 OA
ATOM     20  O   UNL     1       1.088   1.820  19.905  0.00  0.00    +0.000 OA
ENDBRANCH  16  17
ENDBRANCH   3  16
BRANCH   4  21
ATOM     21  C   UNL     1       2.279   7.385  20.270  0.00  0.00    +0.000 C 
BRANCH  21  22
ATOM     22  O   UNL     1       1.390   7.455  21.385  0.00  0.00    +0.000 OA
BRANCH  22  23
ATOM     23  S   UNL     1       0.780   8.921  21.751  0.00  0.00    +0.000 S 
ATOM     24  C   UNL     1       0.861   9.632  20.122  0.00  0.00    +0.000 C 
ATOM     25  O   UNL     1      -0.608   8.749  22.117  0.00  0.00    +0.000 OA
ATOM     26  O   UNL     1       1.715   9.612  22.610  0.00  0.00    +0.000 OA
ENDBRANCH  22  23
ENDBRANCH  21  22
ENDBRANCH   4  21
TORSDOF 6
ENDMDL
MODEL 5
REMARK VINA RESULT:      -5.9      3.000      6.303
REMARK  Name = 
REMARK  9 active torsions:
REMARK  status: ('A' for Active; 'I' for Inactive)
REMARK    1  A    between atoms: C_1  and  C_2
REMARK    2  A    between atoms: N_4  and  C_5
REMARK    3  A    between atoms: C_7  and  O_8
REMARK    4  A    between atoms: O_8  and  S_9
REMARK    5  A    between atoms: S_9  and  C_10
REMARK    6  A    between atoms: C_13  and  C_14
REMARK    7  A    between atoms: C_14  and  O_15
REMARK    8  A    between atoms: O_15  and  S_16
REMARK    9  A    between atoms: S_16  and  C_17
REMARK                            x       y       z     vdW  Elec       q    Type
REMARK                         _______ _______ _______ _____ _____    ______ ____
ROOT
ATOM      1  C   UNL     1       2.807   5.386  17.477  0.00  0.00    +0.000 C 
ATOM      2  C   UNL     1       2.057   4.342  18.276  0.00  0.00    +0.000 C 
ATOM      3  C   UNL     1       2.033   4.933  19.677  0.00  0.00    +0.000 C 
ATOM      4  C   UNL     1       1.780   6.401  19.353  0.00  0.00    +0.000 C 
ATOM      5  O   UNL     1       2.505   6.643  18.115  0.00  0.00    +0.000 OA
ENDROOT
BRANCH   1   9
ATOM      6  C   UNL     1       7.361   7.355  17.535  0.00  0.00    +0.000 C 
ATOM      7  C   UNL     1       6.468   6.157  17.444  0.00  0.00    +0.000 A 
ATOM      8  C   UNL     1       5.145   6.259  17.557  0.00  0.00    +0.000 A 
ATOM      9  N   UNL     1       4.266   5.200  17.427  0.00  0.00    +0.000 N 
ATOM     10  C   UNL     1       4.751   3.911  17.225  0.00  0.00    +0.000 A 
ATOM     11  O   UNL     1       4.051   2.904  17.162  0.00  0.00    +0.000 OA
ATOM     12  N   UNL     1       6.121   3.805  17.137  0.00  0.00    +0.000 N 
ATOM     13  C   UNL     1       7.034   4.817  17.225  0.00  0.00    +0.000 A 
ATOM     14  O   UNL     1       8.243   4.629  17.151  0.00  0.00    +0.000 OA
ATOM     15  H   UNL     1       6.488   2.872  17.010  0.00  0.00    +0.000 HD
ENDBRANCH   1   9
BRANCH   3  16
ATOM     16  O   UNL     1       1.110   4.251  20.513  0.00  0.00    +0.000 OA
BRANCH  16  17
ATOM     17  S   UNL     1       1.655   2.819  21.117  0.00  0.00    +0.000 S 
ATOM     18  C   UNL     1       1.119   1.744  19.820  0.00  0.00    +0.000 C 
ATOM     19  O   UNL     1       3.103   2.843  21.114  0.00  0.00    +0.000 OA
ATOM     20  O   UNL     1       0.905   2.521  22.323  0.00  0.00    +0.000 OA
ENDBRANCH  16  17
ENDBRANCH   3  16
BRANCH   4  21
ATOM     21  C   UNL     1       2.335   7.370  20.403  0.00  0.00    +0.000 C 
BRANCH  21  22
ATOM     22  O   UNL     1       1.329   7.632  21.382  0.00  0.00    +0.000 OA
BRANCH  22  23
ATOM     23  S   UNL     1       1.090   9.190  21.796  0.00  0.00    +0.000 S 
ATOM     24  C   UNL     1      -0.554   9.018  22.454  0.00  0.00    +0.000 C 
ATOM     25  O   UNL     1       1.995   9.509  22.877  0.00  0.00    +0.000 OA
ATOM     26  O   UNL     1       1.030   9.987  20.591  0.00  0.00    +0.000 OA
ENDBRANCH  22  23
ENDBRANCH  21  22
ENDBRANCH   4  21
TORSDOF 6
ENDMDL
MODEL 6
REMARK VINA RESULT:      -5.9      2.780      5.707
REMARK  Name = 
REMARK  9 active torsions:
REMARK  status: ('A' for Active; 'I' for Inactive)
REMARK    1  A    between atoms: C_1  and  C_2
REMARK    2  A    between atoms: N_4  and  C_5
REMARK    3  A    between atoms: C_7  and  O_8
REMARK    4  A    between atoms: O_8  and  S_9
REMARK    5  A    between atoms: S_9  and  C_10
REMARK    6  A    between atoms: C_13  and  C_14
REMARK    7  A    between atoms: C_14  and  O_15
REMARK    8  A    between atoms: O_15  and  S_16
REMARK    9  A    between atoms: S_16  and  C_17
REMARK                            x       y       z     vdW  Elec       q    Type
REMARK                         _______ _______ _______ _____ _____    ______ ____
ROOT
ATOM      1  C   UNL     1       4.559   3.644  16.877  0.00  0.00    +0.000 C 
ATOM      2  C   UNL     1       4.309   2.650  17.990  0.00  0.00    +0.000 C 
ATOM      3  C   UNL     1       3.178   3.294  18.777  0.00  0.00    +0.000 C 
ATOM      4  C   UNL     1       2.327   3.844  17.639  0.00  0.00    +0.000 C 
ATOM      5  O   UNL     1       3.282   4.263  16.624  0.00  0.00    +0.000 OA
ENDROOT
BRANCH   1   9
ATOM      6  C   UNL     1       7.843   5.607  20.038  0.00  0.00    +0.000 C 
ATOM      7  C   UNL     1       7.135   5.637  18.719  0.00  0.00    +0.000 A 
ATOM      8  C   UNL     1       6.279   4.683  18.361  0.00  0.00    +0.000 A 
ATOM      9  N   UNL     1       5.555   4.683  17.183  0.00  0.00    +0.000 N 
ATOM     10  C   UNL     1       5.745   5.698  16.248  0.00  0.00    +0.000 A 
ATOM     11  O   UNL     1       5.194   5.747  15.151  0.00  0.00    +0.000 OA
ATOM     12  N   UNL     1       6.651   6.668  16.610  0.00  0.00    +0.000 N 
ATOM     13  C   UNL     1       7.369   6.736  17.770  0.00  0.00    +0.000 A 
ATOM     14  O   UNL     1       8.170   7.634  18.003  0.00  0.00    +0.000 OA
ATOM     15  H   UNL     1       6.812   7.401  15.932  0.00  0.00    +0.000 HD
ENDBRANCH   1   9
BRANCH   3  16
ATOM     16  O   UNL     1       2.590   2.375  19.686  0.00  0.00    +0.000 OA
BRANCH  16  17
ATOM     17  S   UNL     1       1.825   3.068  20.969  0.00  0.00    +0.000 S 
ATOM     18  C   UNL     1       2.887   4.460  21.211  0.00  0.00    +0.000 C 
ATOM     19  O   UNL     1       0.536   3.557  20.523  0.00  0.00    +0.000 OA
ATOM     20  O   UNL     1       1.944   2.175  22.105  0.00  0.00    +0.000 OA
ENDBRANCH  16  17
ENDBRANCH   3  16
BRANCH   4  21
ATOM     21  C   UNL     1       1.501   5.076  18.024  0.00  0.00    +0.000 C 
BRANCH  21  22
ATOM     22  O   UNL     1       2.052   6.230  17.390  0.00  0.00    +0.000 OA
BRANCH  22  23
ATOM     23  S   UNL     1       2.618   7.408  18.365  0.00  0.00    +0.000 S 
ATOM     24  C   UNL     1       1.639   8.747  17.720  0.00  0.00    +0.000 C 
ATOM     25  O   UNL     1       2.184   7.119  19.713  0.00  0.00    +0.000 OA
ATOM     26  O   UNL     1       4.007   7.648  18.045  0.00  0.00    +0.000 OA
ENDBRANCH  22  23
ENDBRANCH  21  22
ENDBRANCH   4  21
TORSDOF 6
ENDMDL
MODEL 7
REMARK VINA RESULT:      -5.9      3.066      6.320
REMARK  Name = 
REMARK  9 active torsions:
REMARK  status: ('A' for Active; 'I' for Inactive)
REMARK    1  A    between atoms: C_1  and  C_2
REMARK    2  A    between atoms: N_4  and  C_5
REMARK    3  A    between atoms: C_7  and  O_8
REMARK    4  A    between atoms: O_8  and  S_9
REMARK    5  A    between atoms: S_9  and  C_10
REMARK    6  A    between atoms: C_13  and  C_14
REMARK    7  A    between atoms: C_14  and  O_15
REMARK    8  A    between atoms: O_15  and  S_16
REMARK    9  A    between atoms: S_16  and  C_17
REMARK                            x       y       z     vdW  Elec       q    Type
REMARK                         _______ _______ _______ _____ _____    ______ ____
ROOT
ATOM      1  C   UNL     1       3.785   5.704  16.972  0.00  0.00    +0.000 C 
ATOM      2  C   UNL     1       2.706   4.669  17.198  0.00  0.00    +0.000 C 
ATOM      3  C   UNL     1       2.308   4.898  18.648  0.00  0.00    +0.000 C 
ATOM      4  C   UNL     1       2.342   6.421  18.707  0.00  0.00    +0.000 C 
ATOM      5  O   UNL     1       3.444   6.805  17.838  0.00  0.00    +0.000 OA
ENDROOT
BRANCH   1   9
ATOM      6  C   UNL     1       7.749   5.783  19.957  0.00  0.00    +0.000 C 
ATOM      7  C   UNL     1       7.073   5.300  18.710  0.00  0.00    +0.000 A 
ATOM      8  C   UNL     1       5.812   5.620  18.428  0.00  0.00    +0.000 A 
ATOM      9  N   UNL     1       5.153   5.252  17.270  0.00  0.00    +0.000 N 
ATOM     10  C   UNL     1       5.789   4.441  16.333  0.00  0.00    +0.000 A 
ATOM     11  O   UNL     1       5.262   4.013  15.309  0.00  0.00    +0.000 OA
ATOM     12  N   UNL     1       7.083   4.090  16.641  0.00  0.00    +0.000 N 
ATOM     13  C   UNL     1       7.794   4.449  17.752  0.00  0.00    +0.000 A 
ATOM     14  O   UNL     1       8.943   4.075  17.954  0.00  0.00    +0.000 OA
ATOM     15  H   UNL     1       7.550   3.485  15.979  0.00  0.00    +0.000 HD
ENDBRANCH   1   9
BRANCH   3  16
ATOM     16  O   UNL     1       1.095   4.231  18.966  0.00  0.00    +0.000 OA
BRANCH  16  17
ATOM     17  S   UNL     1       1.272   2.659  19.421  0.00  0.00    +0.000 S 
ATOM     18  C   UNL     1       1.181   2.862  21.175  0.00  0.00    +0.000 C 
ATOM     19  O   UNL     1       0.100   1.923  18.991  0.00  0.00    +0.000 OA
ATOM     20  O   UNL     1       2.610   2.229  19.061  0.00  0.00    +0.000 OA
ENDBRANCH  16  17
ENDBRANCH   3  16
BRANCH   4  21
ATOM     21  C   UNL     1       2.644   6.979  20.101  0.00  0.00    +0.000 C 
BRANCH  21  22
ATOM     22  O   UNL     1       1.444   6.993  20.874  0.00  0.00    +0.000 OA
BRANCH  22  23
ATOM     23  S   UNL     1       0.885   8.451  21.341  0.00  0.00    +0.000 S 
ATOM     24  C   UNL     1       1.049   9.286  19.778  0.00  0.00    +0.000 C 
ATOM     25  O   UNL     1      -0.520   8.313  21.652  0.00  0.00    +0.000 OA
ATOM     26  O   UNL     1       1.820   9.028  22.280  0.00  0.00    +0.000 OA
ENDBRANCH  22  23
ENDBRANCH  21  22
ENDBRANCH   4  21
TORSDOF 6
ENDMDL
MODEL 8
REMARK VINA RESULT:      -5.8      2.815      5.734
REMARK  Name = 
REMARK  9 active torsions:
REMARK  status: ('A' for Active; 'I' for Inactive)
REMARK    1  A    between atoms: C_1  and  C_2
REMARK    2  A    between atoms: N_4  and  C_5
REMARK    3  A    between atoms: C_7  and  O_8
REMARK    4  A    between atoms: O_8  and  S_9
REMARK    5  A    between atoms: S_9  and  C_10
REMARK    6  A    between atoms: C_13  and  C_14
REMARK    7  A    between atoms: C_14  and  O_15
REMARK    8  A    between atoms: O_15  and  S_16
REMARK    9  A    between atoms: S_16  and  C_17
REMARK                            x       y       z     vdW  Elec       q    Type
REMARK                         _______ _______ _______ _____ _____    ______ ____
ROOT
ATOM      1  C   UNL     1       4.502   3.422  16.768  0.00  0.00    +0.000 C 
ATOM      2  C   UNL     1       4.397   2.509  17.969  0.00  0.00    +0.000 C 
ATOM      3  C   UNL     1       3.354   3.199  18.835  0.00  0.00    +0.000 C 
ATOM      4  C   UNL     1       2.368   3.659  17.767  0.00  0.00    +0.000 C 
ATOM      5  O   UNL     1       3.194   4.011  16.622  0.00  0.00    +0.000 OA
ENDROOT
BRANCH   1   9
ATOM      6  C   UNL     1       7.851   5.849  19.510  0.00  0.00    +0.000 C 
ATOM      7  C   UNL     1       7.121   5.668  18.215  0.00  0.00    +0.000 A 
ATOM      8  C   UNL     1       6.253   4.675  18.033  0.00  0.00    +0.000 A 
ATOM      9  N   UNL     1       5.509   4.489  16.883  0.00  0.00    +0.000 N 
ATOM     10  C   UNL     1       5.689   5.334  15.791  0.00  0.00    +0.000 A 
ATOM     11  O   UNL     1       5.121   5.207  14.709  0.00  0.00    +0.000 OA
ATOM     12  N   UNL     1       6.607   6.342  15.973  0.00  0.00    +0.000 N 
ATOM     13  C   UNL     1       7.346   6.594  17.095  0.00  0.00    +0.000 A 
ATOM     14  O   UNL     1       8.157   7.510  17.164  0.00  0.00    +0.000 OA
ATOM     15  H   UNL     1       6.762   6.952  15.181  0.00  0.00    +0.000 HD
ENDBRANCH   1   9
BRANCH   3  16
ATOM     16  O   UNL     1       2.888   2.343  19.868  0.00  0.00    +0.000 OA
BRANCH  16  17
ATOM     17  S   UNL     1       2.231   3.119  21.162  0.00  0.00    +0.000 S 
ATOM     18  C   UNL     1       0.566   3.264  20.587  0.00  0.00    +0.000 C 
ATOM     19  O   UNL     1       2.240   2.212  22.292  0.00  0.00    +0.000 OA
ATOM     20  O   UNL     1       2.822   4.440  21.248  0.00  0.00    +0.000 OA
ENDBRANCH  16  17
ENDBRANCH   3  16
BRANCH   4  21
ATOM     21  C   UNL     1       1.573   4.909  18.158  0.00  0.00    +0.000 C 
BRANCH  21  22
ATOM     22  O   UNL     1       2.075   6.033  17.435  0.00  0.00    +0.000 OA
BRANCH  22  23
ATOM     23  S   UNL     1       2.761   7.225  18.310  0.00  0.00    +0.000 S 
ATOM     24  C   UNL     1       1.714   8.558  17.767  0.00  0.00    +0.000 C 
ATOM     25  O   UNL     1       2.497   6.964  19.707  0.00  0.00    +0.000 OA
ATOM     26  O   UNL     1       4.101   7.452  17.817  0.00  0.00    +0.000 OA
ENDBRANCH  22  23
ENDBRANCH  21  22
ENDBRANCH   4  21
TORSDOF 6
ENDMDL
MODEL 9
REMARK VINA RESULT:      -5.8      7.583     11.184
REMARK  Name = 
REMARK  9 active torsions:
REMARK  status: ('A' for Active; 'I' for Inactive)
REMARK    1  A    between atoms: C_1  and  C_2
REMARK    2  A    between atoms: N_4  and  C_5
REMARK    3  A    between atoms: C_7  and  O_8
REMARK    4  A    between atoms: O_8  and  S_9
REMARK    5  A    between atoms: S_9  and  C_10
REMARK    6  A    between atoms: C_13  and  C_14
REMARK    7  A    between atoms: C_14  and  O_15
REMARK    8  A    between atoms: O_15  and  S_16
REMARK    9  A    between atoms: S_16  and  C_17
REMARK                            x       y       z     vdW  Elec       q    Type
REMARK                         _______ _______ _______ _____ _____    ______ ____
ROOT
ATOM      1  C   UNL     1      -1.516  13.823  20.402  0.00  0.00    +0.000 C 
ATOM      2  C   UNL     1      -2.665  14.498  21.118  0.00  0.00    +0.000 C 
ATOM      3  C   UNL     1      -3.036  13.493  22.197  0.00  0.00    +0.000 C 
ATOM      4  C   UNL     1      -1.650  13.024  22.626  0.00  0.00    +0.000 C 
ATOM      5  O   UNL     1      -0.859  13.023  21.405  0.00  0.00    +0.000 OA
ENDROOT
BRANCH   1   9
ATOM      6  C   UNL     1      -4.848  10.826  18.269  0.00  0.00    +0.000 C 
ATOM      7  C   UNL     1      -3.515  11.508  18.246  0.00  0.00    +0.000 A 
ATOM      8  C   UNL     1      -3.141  12.350  19.207  0.00  0.00    +0.000 A 
ATOM      9  N   UNL     1      -1.906  12.966  19.270  0.00  0.00    +0.000 N 
ATOM     10  C   UNL     1      -0.978  12.774  18.250  0.00  0.00    +0.000 A 
ATOM     11  O   UNL     1       0.117  13.328  18.189  0.00  0.00    +0.000 OA
ATOM     12  N   UNL     1      -1.378  11.925  17.244  0.00  0.00    +0.000 N 
ATOM     13  C   UNL     1      -2.570  11.265  17.146  0.00  0.00    +0.000 A 
ATOM     14  O   UNL     1      -2.849  10.537  16.201  0.00  0.00    +0.000 OA
ATOM     15  H   UNL     1      -0.721  11.791  16.487  0.00  0.00    +0.000 HD
ENDBRANCH   1   9
BRANCH   3  16
ATOM     16  O   UNL     1      -3.892  14.070  23.172  0.00  0.00    +0.000 OA
BRANCH  16  17
ATOM     17  S   UNL     1      -5.286  13.238  23.444  0.00  0.00    +0.000 S 
ATOM     18  C   UNL     1      -4.796  12.331  24.880  0.00  0.00    +0.000 C 
ATOM     19  O   UNL     1      -6.314  14.182  23.835  0.00  0.00    +0.000 OA
ATOM     20  O   UNL     1      -5.486  12.315  22.343  0.00  0.00    +0.000 OA
ENDBRANCH  16  17
ENDBRANCH   3  16
BRANCH   4  21
ATOM     21  C   UNL     1      -1.626  11.599  23.187  0.00  0.00    +0.000 C 
BRANCH  21  22
ATOM     22  O   UNL     1      -1.178  10.700  22.173  0.00  0.00    +0.000 OA
BRANCH  22  23
ATOM     23  S   UNL     1       0.196   9.876  22.473  0.00  0.00    +0.000 S 
ATOM     24  C   UNL     1      -0.242   8.364  21.643  0.00  0.00    +0.000 C 
ATOM     25  O   UNL     1       1.269  10.515  21.745  0.00  0.00    +0.000 OA
ATOM     26  O   UNL     1       0.283   9.620  23.893  0.00  0.00    +0.000 OA
ENDBRANCH  22  23
ENDBRANCH  21  22
ENDBRANCH   4  21
TORSDOF 6
ENDMDL
