MODEL 1
REMARK VINA RESULT:      -6.4      0.000      0.000
REMARK  Name = 
REMARK  12 active torsions:
REMARK  status: ('A' for Active; 'I' for Inactive)
REMARK    1  A    between atoms: C_1  and  O_2
REMARK    2  A    between atoms: O_2  and  C_3
REMARK    3  A    between atoms: C_3  and  C_5
REMARK    4  A    between atoms: C_5  and  C_6
REMARK    5  A    between atoms: C_6  and  C_7
REMARK    6  A    between atoms: C_7  and  C_8
REMARK    7  A    between atoms: C_8  and  C_9
REMARK    8  A    between atoms: C_9  and  C_10
REMARK    9  A    between atoms: C_10  and  C_11
REMARK   10  A    between atoms: C_11  and  C_12
REMARK   11  A    between atoms: C_18  and  S_19
REMARK   12  A    between atoms: S_19  and  N_20
REMARK                            x       y       z     vdW  Elec       q    Type
REMARK                         _______ _______ _______ _____ _____    ______ ____
ROOT
ATOM      1  C   UNL     1       3.929   2.600  19.738  0.00  0.00    +0.000 C 
ATOM      2  O   UNL     1       3.585   1.979  18.736  0.00  0.00    +0.000 OA
ATOM      3  N   UNL     1       4.857   3.618  19.770  0.00  0.00    +0.000 N 
ATOM      4  C   UNL     1       5.505   4.120  18.664  0.00  0.00    +0.000 A 
ATOM      5  N   UNL     1       6.584   4.874  18.742  0.00  0.00    +0.000 NA
ATOM      6  N   UNL     1       7.059   5.235  17.490  0.00  0.00    +0.000 NA
ATOM      7  C   UNL     1       6.272   4.771  16.540  0.00  0.00    +0.000 A 
ATOM      8  S   UNL     1       4.928   3.885  17.072  0.00  0.00    +0.000 S 
ATOM      9  H   UNL     1       5.237   3.923  20.656  0.00  0.00    +0.000 HD
ENDROOT
BRANCH   7  10
ATOM     10  S   UNL     1       6.497   5.010  14.810  0.00  0.00    +0.000 S 
ATOM     11  O   UNL     1       5.501   5.976  14.407  0.00  0.00    +0.000 OA
ATOM     12  O   UNL     1       7.916   5.210  14.620  0.00  0.00    +0.000 OA
BRANCH  10  13
ATOM     13  N   UNL     1       6.108   3.562  14.035  0.00  0.00    +0.000 NA
ATOM     14  H   UNL     1       6.922   2.950  13.957  0.00  0.00    +0.000 HD
ATOM     15  H   UNL     1       5.631   3.732  13.151  0.00  0.00    +0.000 HD
ENDBRANCH  10  13
ENDBRANCH   7  10
BRANCH   1  16
ATOM     16  C   UNL     1       3.346   2.272  21.106  0.00  0.00    +0.000 C 
BRANCH  16  17
ATOM     17  C   UNL     1       1.853   2.609  21.125  0.00  0.00    +0.000 C 
BRANCH  17  18
ATOM     18  C   UNL     1       1.527   4.018  20.639  0.00  0.00    +0.000 C 
BRANCH  18  19
ATOM     19  C   UNL     1       0.930   3.949  19.230  0.00  0.00    +0.000 C 
BRANCH  19  20
ATOM     20  C   UNL     1       1.551   4.972  18.278  0.00  0.00    +0.000 C 
BRANCH  20  21
ATOM     21  C   UNL     1       2.359   6.009  19.061  0.00  0.00    +0.000 C 
BRANCH  21  22
ATOM     22  C   UNL     1       2.969   7.073  18.150  0.00  0.00    +0.000 C 
BRANCH  22  23
ATOM     23  C   UNL     1       2.229   8.386  18.268  0.00  0.00    +0.000 C 
ATOM     24  O   UNL     1       2.128   9.225  17.386  0.00  0.00    +0.000 OA
BRANCH  23  26
ATOM     25  C   UNL     1       0.835   9.633  19.671  0.00  0.00    +0.000 C 
ATOM     26  O   UNL     1       1.688   8.497  19.514  0.00  0.00    +0.000 OA
ENDBRANCH  23  26
ENDBRANCH  22  23
ENDBRANCH  21  22
ENDBRANCH  20  21
ENDBRANCH  19  20
ENDBRANCH  18  19
ENDBRANCH  17  18
ENDBRANCH  16  17
ENDBRANCH   1  16
TORSDOF 11
ENDMDL
MODEL 2
REMARK VINA RESULT:      -6.2      5.159      7.894
REMARK  Name = 
REMARK  12 active torsions:
REMARK  status: ('A' for Active; 'I' for Inactive)
REMARK    1  A    between atoms: C_1  and  O_2
REMARK    2  A    between atoms: O_2  and  C_3
REMARK    3  A    between atoms: C_3  and  C_5
REMARK    4  A    between atoms: C_5  and  C_6
REMARK    5  A    between atoms: C_6  and  C_7
REMARK    6  A    between atoms: C_7  and  C_8
REMARK    7  A    between atoms: C_8  and  C_9
REMARK    8  A    between atoms: C_9  and  C_10
REMARK    9  A    between atoms: C_10  and  C_11
REMARK   10  A    between atoms: C_11  and  C_12
REMARK   11  A    between atoms: C_18  and  S_19
REMARK   12  A    between atoms: S_19  and  N_20
REMARK                            x       y       z     vdW  Elec       q    Type
REMARK                         _______ _______ _______ _____ _____    ______ ____
ROOT
ATOM      1  C   UNL     1       2.005   7.432  19.972  0.00  0.00    +0.000 C 
ATOM      2  O   UNL     1       1.961   8.197  19.012  0.00  0.00    +0.000 OA
ATOM      3  N   UNL     1       1.548   7.713  21.241  0.00  0.00    +0.000 N 
ATOM      4  C   UNL     1       0.927   8.886  21.607  0.00  0.00    +0.000 A 
ATOM      5  N   UNL     1       0.764   9.253  22.863  0.00  0.00    +0.000 NA
ATOM      6  N   UNL     1       0.131  10.483  22.968  0.00  0.00    +0.000 NA
ATOM      7  C   UNL     1      -0.193  10.945  21.777  0.00  0.00    +0.000 A 
ATOM      8  S   UNL     1       0.229   9.953  20.468  0.00  0.00    +0.000 S 
ATOM      9  H   UNL     1       1.816   7.119  22.014  0.00  0.00    +0.000 HD
ENDROOT
BRANCH   7  10
ATOM     10  S   UNL     1      -1.023  12.464  21.455  0.00  0.00    +0.000 S 
ATOM     11  O   UNL     1      -0.236  13.493  22.092  0.00  0.00    +0.000 OA
ATOM     12  O   UNL     1      -1.323  12.458  20.040  0.00  0.00    +0.000 OA
BRANCH  10  13
ATOM     13  N   UNL     1      -2.506  12.420  22.260  0.00  0.00    +0.000 NA
ATOM     14  H   UNL     1      -2.529  11.679  22.961  0.00  0.00    +0.000 HD
ATOM     15  H   UNL     1      -3.284  12.392  21.602  0.00  0.00    +0.000 HD
ENDBRANCH  10  13
ENDBRANCH   7  10
BRANCH   1  16
ATOM     16  C   UNL     1       2.617   6.044  19.844  0.00  0.00    +0.000 C 
BRANCH  16  17
ATOM     17  C   UNL     1       1.994   5.107  20.882  0.00  0.00    +0.000 C 
BRANCH  17  18
ATOM     18  C   UNL     1       0.888   4.214  20.328  0.00  0.00    +0.000 C 
BRANCH  18  19
ATOM     19  C   UNL     1       1.401   2.774  20.214  0.00  0.00    +0.000 C 
BRANCH  19  20
ATOM     20  C   UNL     1       1.211   2.192  18.813  0.00  0.00    +0.000 C 
BRANCH  20  21
ATOM     21  C   UNL     1       2.158   2.869  17.820  0.00  0.00    +0.000 C 
BRANCH  21  22
ATOM     22  C   UNL     1       3.592   2.360  17.951  0.00  0.00    +0.000 C 
BRANCH  22  23
ATOM     23  C   UNL     1       4.552   3.496  18.227  0.00  0.00    +0.000 C 
ATOM     24  O   UNL     1       5.255   3.604  19.220  0.00  0.00    +0.000 OA
BRANCH  23  26
ATOM     25  C   UNL     1       5.446   4.091  16.150  0.00  0.00    +0.000 C 
ATOM     26  O   UNL     1       4.517   4.386  17.195  0.00  0.00    +0.000 OA
ENDBRANCH  23  26
ENDBRANCH  22  23
ENDBRANCH  21  22
ENDBRANCH  20  21
ENDBRANCH  19  20
ENDBRANCH  18  19
ENDBRANCH  17  18
ENDBRANCH  16  17
ENDBRANCH   1  16
TORSDOF 11
ENDMDL
MODEL 3
REMARK VINA RESULT:      -6.2      6.443      8.309
REMARK  Name = 
REMARK  12 active torsions:
REMARK  status: ('A' for Active; 'I' for Inactive)
REMARK    1  A    between atoms: C_1  and  O_2
REMARK    2  A    between atoms: O_2  and  C_3
REMARK    3  A    between atoms: C_3  and  C_5
REMARK    4  A    between atoms: C_5  and  C_6
REMARK    5  A    between atoms: C_6  and  C_7
REMARK    6  A    between atoms: C_7  and  C_8
REMARK    7  A    between atoms: C_8  and  C_9
REMARK    8  A    between atoms: C_9  and  C_10
REMARK    9  A    between atoms: C_10  and  C_11
REMARK   10  A    between atoms: C_11  and  C_12
REMARK   11  A    between atoms: C_18  and  S_19
REMARK   12  A    between atoms: S_19  and  N_20
REMARK                            x       y       z     vdW  Elec       q    Type
REMARK                         _______ _______ _______ _____ _____    ______ ____
ROOT
ATOM      1  C   UNL     1       7.305   7.073  17.875  0.00  0.00    +0.000 C 
ATOM      2  O   UNL     1       7.961   6.301  18.569  0.00  0.00    +0.000 OA
ATOM      3  N   UNL     1       6.029   6.842  17.410  0.00  0.00    +0.000 N 
ATOM      4  C   UNL     1       5.282   5.721  17.697  0.00  0.00    +0.000 A 
ATOM      5  N   UNL     1       4.202   5.383  17.021  0.00  0.00    +0.000 NA
ATOM      6  N   UNL     1       3.642   4.204  17.490  0.00  0.00    +0.000 NA
ATOM      7  C   UNL     1       4.310   3.752  18.533  0.00  0.00    +0.000 A 
ATOM      8  S   UNL     1       5.634   4.694  19.017  0.00  0.00    +0.000 S 
ATOM      9  H   UNL     1       5.649   7.425  16.675  0.00  0.00    +0.000 HD
ENDROOT
BRANCH   7  10
ATOM     10  S   UNL     1       3.931   2.293  19.443  0.00  0.00    +0.000 S 
ATOM     11  O   UNL     1       3.521   1.309  18.469  0.00  0.00    +0.000 OA
ATOM     12  O   UNL     1       5.038   2.095  20.352  0.00  0.00    +0.000 OA
BRANCH  10  13
ATOM     13  N   UNL     1       2.579   2.621  20.399  0.00  0.00    +0.000 NA
ATOM     14  H   UNL     1       1.723   2.639  19.842  0.00  0.00    +0.000 HD
ATOM     15  H   UNL     1       2.720   3.454  20.968  0.00  0.00    +0.000 HD
ENDBRANCH  10  13
ENDBRANCH   7  10
BRANCH   1  16
ATOM     16  C   UNL     1       7.877   8.412  17.429  0.00  0.00    +0.000 C 
BRANCH  16  17
ATOM     17  C   UNL     1       8.651   9.053  18.583  0.00  0.00    +0.000 C 
BRANCH  17  18
ATOM     18  C   UNL     1       9.029  10.512  18.343  0.00  0.00    +0.000 C 
BRANCH  18  19
ATOM     19  C   UNL     1      10.116  10.930  19.339  0.00  0.00    +0.000 C 
BRANCH  19  20
ATOM     20  C   UNL     1      11.006  12.050  18.801  0.00  0.00    +0.000 C 
BRANCH  20  21
ATOM     21  C   UNL     1      10.685  12.328  17.331  0.00  0.00    +0.000 C 
BRANCH  21  22
ATOM     22  C   UNL     1      11.589  13.407  16.737  0.00  0.00    +0.000 C 
BRANCH  22  23
ATOM     23  C   UNL     1      11.421  14.723  17.463  0.00  0.00    +0.000 C 
ATOM     24  O   UNL     1      12.331  15.414  17.896  0.00  0.00    +0.000 OA
BRANCH  23  26
ATOM     25  C   UNL     1       9.783  15.875  18.668  0.00  0.00    +0.000 C 
ATOM     26  O   UNL     1      10.096  15.026  17.563  0.00  0.00    +0.000 OA
ENDBRANCH  23  26
ENDBRANCH  22  23
ENDBRANCH  21  22
ENDBRANCH  20  21
ENDBRANCH  19  20
ENDBRANCH  18  19
ENDBRANCH  17  18
ENDBRANCH  16  17
ENDBRANCH   1  16
TORSDOF 11
ENDMDL
MODEL 4
REMARK VINA RESULT:      -6.1      4.964      7.682
REMARK  Name = 
REMARK  12 active torsions:
REMARK  status: ('A' for Active; 'I' for Inactive)
REMARK    1  A    between atoms: C_1  and  O_2
REMARK    2  A    between atoms: O_2  and  C_3
REMARK    3  A    between atoms: C_3  and  C_5
REMARK    4  A    between atoms: C_5  and  C_6
REMARK    5  A    between atoms: C_6  and  C_7
REMARK    6  A    between atoms: C_7  and  C_8
REMARK    7  A    between atoms: C_8  and  C_9
REMARK    8  A    between atoms: C_9  and  C_10
REMARK    9  A    between atoms: C_10  and  C_11
REMARK   10  A    between atoms: C_11  and  C_12
REMARK   11  A    between atoms: C_18  and  S_19
REMARK   12  A    between atoms: S_19  and  N_20
REMARK                            x       y       z     vdW  Elec       q    Type
REMARK                         _______ _______ _______ _____ _____    ______ ____
ROOT
ATOM      1  C   UNL     1       2.192   7.179  19.838  0.00  0.00    +0.000 C 
ATOM      2  O   UNL     1       2.016   7.858  18.830  0.00  0.00    +0.000 OA
ATOM      3  N   UNL     1       1.853   7.549  21.121  0.00  0.00    +0.000 N 
ATOM      4  C   UNL     1       1.220   8.726  21.455  0.00  0.00    +0.000 A 
ATOM      5  N   UNL     1       1.169   9.191  22.687  0.00  0.00    +0.000 NA
ATOM      6  N   UNL     1       0.495  10.402  22.759  0.00  0.00    +0.000 NA
ATOM      7  C   UNL     1       0.031  10.749  21.575  0.00  0.00    +0.000 A 
ATOM      8  S   UNL     1       0.363   9.666  20.313  0.00  0.00    +0.000 S 
ATOM      9  H   UNL     1       2.225   7.033  21.907  0.00  0.00    +0.000 HD
ENDROOT
BRANCH   7  10
ATOM     10  S   UNL     1      -0.896  12.203  21.220  0.00  0.00    +0.000 S 
ATOM     11  O   UNL     1      -2.066  12.147  22.065  0.00  0.00    +0.000 OA
ATOM     12  O   UNL     1       0.052  13.294  21.252  0.00  0.00    +0.000 OA
BRANCH  10  13
ATOM     13  N   UNL     1      -1.443  12.090  19.627  0.00  0.00    +0.000 NA
ATOM     14  H   UNL     1      -0.790  12.528  18.977  0.00  0.00    +0.000 HD
ATOM     15  H   UNL     1      -2.402  12.424  19.540  0.00  0.00    +0.000 HD
ENDBRANCH  10  13
ENDBRANCH   7  10
BRANCH   1  16
ATOM     16  C   UNL     1       2.850   5.809  19.759  0.00  0.00    +0.000 C 
BRANCH  16  17
ATOM     17  C   UNL     1       1.783   4.736  19.524  0.00  0.00    +0.000 C 
BRANCH  17  18
ATOM     18  C   UNL     1       1.684   4.265  18.076  0.00  0.00    +0.000 C 
BRANCH  18  19
ATOM     19  C   UNL     1       2.801   3.255  17.789  0.00  0.00    +0.000 C 
BRANCH  19  20
ATOM     20  C   UNL     1       3.820   3.779  16.777  0.00  0.00    +0.000 C 
BRANCH  20  21
ATOM     21  C   UNL     1       5.170   4.022  17.454  0.00  0.00    +0.000 C 
BRANCH  21  22
ATOM     22  C   UNL     1       5.711   5.424  17.177  0.00  0.00    +0.000 C 
BRANCH  22  23
ATOM     23  C   UNL     1       7.204   5.397  16.939  0.00  0.00    +0.000 C 
ATOM     24  O   UNL     1       7.930   4.427  17.096  0.00  0.00    +0.000 OA
BRANCH  23  26
ATOM     25  C   UNL     1       7.592   7.622  17.543  0.00  0.00    +0.000 C 
ATOM     26  O   UNL     1       7.624   6.625  16.520  0.00  0.00    +0.000 OA
ENDBRANCH  23  26
ENDBRANCH  22  23
ENDBRANCH  21  22
ENDBRANCH  20  21
ENDBRANCH  19  20
ENDBRANCH  18  19
ENDBRANCH  17  18
ENDBRANCH  16  17
ENDBRANCH   1  16
TORSDOF 11
ENDMDL
MODEL 5
REMARK VINA RESULT:      -6.1      5.136      7.894
REMARK  Name = 
REMARK  12 active torsions:
REMARK  status: ('A' for Active; 'I' for Inactive)
REMARK    1  A    between atoms: C_1  and  O_2
REMARK    2  A    between atoms: O_2  and  C_3
REMARK    3  A    between atoms: C_3  and  C_5
REMARK    4  A    between atoms: C_5  and  C_6
REMARK    5  A    between atoms: C_6  and  C_7
REMARK    6  A    between atoms: C_7  and  C_8
REMARK    7  A    between atoms: C_8  and  C_9
REMARK    8  A    between atoms: C_9  and  C_10
REMARK    9  A    between atoms: C_10  and  C_11
REMARK   10  A    between atoms: C_11  and  C_12
REMARK   11  A    between atoms: C_18  and  S_19
REMARK   12  A    between atoms: S_19  and  N_20
REMARK                            x       y       z     vdW  Elec       q    Type
REMARK                         _______ _______ _______ _____ _____    ______ ____
ROOT
ATOM      1  C   UNL     1       2.129   7.557  19.822  0.00  0.00    +0.000 C 
ATOM      2  O   UNL     1       2.165   8.386  18.917  0.00  0.00    +0.000 OA
ATOM      3  N   UNL     1       1.622   7.773  21.084  0.00  0.00    +0.000 N 
ATOM      4  C   UNL     1       1.034   8.946  21.502  0.00  0.00    +0.000 A 
ATOM      5  N   UNL     1       0.825   9.235  22.771  0.00  0.00    +0.000 NA
ATOM      6  N   UNL     1       0.240  10.483  22.932  0.00  0.00    +0.000 NA
ATOM      7  C   UNL     1      -0.005  11.038  21.762  0.00  0.00    +0.000 A 
ATOM      8  S   UNL     1       0.439  10.118  20.408  0.00  0.00    +0.000 S 
ATOM      9  H   UNL     1       1.827   7.117  21.827  0.00  0.00    +0.000 HD
ENDROOT
BRANCH   7  10
ATOM     10  S   UNL     1      -0.753  12.611  21.507  0.00  0.00    +0.000 S 
ATOM     11  O   UNL     1      -0.882  12.766  20.077  0.00  0.00    +0.000 OA
ATOM     12  O   UNL     1      -1.878  12.665  22.414  0.00  0.00    +0.000 OA
BRANCH  10  13
ATOM     13  N   UNL     1       0.338  13.790  22.025  0.00  0.00    +0.000 NA
ATOM     14  H   UNL     1      -0.099  14.441  22.680  0.00  0.00    +0.000 HD
ATOM     15  H   UNL     1       0.796  14.243  21.236  0.00  0.00    +0.000 HD
ENDBRANCH  10  13
ENDBRANCH   7  10
BRANCH   1  16
ATOM     16  C   UNL     1       2.687   6.154  19.627  0.00  0.00    +0.000 C 
BRANCH  16  17
ATOM     17  C   UNL     1       1.791   5.138  20.339  0.00  0.00    +0.000 C 
BRANCH  17  18
ATOM     18  C   UNL     1       1.439   3.919  19.492  0.00  0.00    +0.000 C 
BRANCH  18  19
ATOM     19  C   UNL     1       1.625   4.255  18.009  0.00  0.00    +0.000 C 
BRANCH  19  20
ATOM     20  C   UNL     1       2.420   3.185  17.259  0.00  0.00    +0.000 C 
BRANCH  20  21
ATOM     21  C   UNL     1       3.842   3.088  17.815  0.00  0.00    +0.000 C 
BRANCH  21  22
ATOM     22  C   UNL     1       4.776   4.126  17.194  0.00  0.00    +0.000 C 
BRANCH  22  23
ATOM     23  C   UNL     1       5.961   4.402  18.091  0.00  0.00    +0.000 C 
ATOM     24  O   UNL     1       5.920   4.504  19.308  0.00  0.00    +0.000 OA
BRANCH  23  26
ATOM     25  C   UNL     1       6.939   5.391  16.212  0.00  0.00    +0.000 C 
ATOM     26  O   UNL     1       7.090   4.522  17.337  0.00  0.00    +0.000 OA
ENDBRANCH  23  26
ENDBRANCH  22  23
ENDBRANCH  21  22
ENDBRANCH  20  21
ENDBRANCH  19  20
ENDBRANCH  18  19
ENDBRANCH  17  18
ENDBRANCH  16  17
ENDBRANCH   1  16
TORSDOF 11
ENDMDL
MODEL 6
REMARK VINA RESULT:      -6.0      5.121      7.823
REMARK  Name = 
REMARK  12 active torsions:
REMARK  status: ('A' for Active; 'I' for Inactive)
REMARK    1  A    between atoms: C_1  and  O_2
REMARK    2  A    between atoms: O_2  and  C_3
REMARK    3  A    between atoms: C_3  and  C_5
REMARK    4  A    between atoms: C_5  and  C_6
REMARK    5  A    between atoms: C_6  and  C_7
REMARK    6  A    between atoms: C_7  and  C_8
REMARK    7  A    between atoms: C_8  and  C_9
REMARK    8  A    between atoms: C_9  and  C_10
REMARK    9  A    between atoms: C_10  and  C_11
REMARK   10  A    between atoms: C_11  and  C_12
REMARK   11  A    between atoms: C_18  and  S_19
REMARK   12  A    between atoms: S_19  and  N_20
REMARK                            x       y       z     vdW  Elec       q    Type
REMARK                         _______ _______ _______ _____ _____    ______ ____
ROOT
ATOM      1  C   UNL     1       2.070   7.404  19.906  0.00  0.00    +0.000 C 
ATOM      2  O   UNL     1       1.973   8.195  18.972  0.00  0.00    +0.000 OA
ATOM      3  N   UNL     1       1.670   7.644  21.203  0.00  0.00    +0.000 N 
ATOM      4  C   UNL     1       1.056   8.799  21.631  0.00  0.00    +0.000 A 
ATOM      5  N   UNL     1       0.949   9.129  22.903  0.00  0.00    +0.000 NA
ATOM      6  N   UNL     1       0.309  10.348  23.073  0.00  0.00    +0.000 NA
ATOM      7  C   UNL     1      -0.076  10.840  21.912  0.00  0.00    +0.000 A 
ATOM      8  S   UNL     1       0.294   9.890  20.557  0.00  0.00    +0.000 S 
ATOM      9  H   UNL     1       1.981   7.032  21.945  0.00  0.00    +0.000 HD
ENDROOT
BRANCH   7  10
ATOM     10  S   UNL     1      -0.936  12.357  21.673  0.00  0.00    +0.000 S 
ATOM     11  O   UNL     1      -0.190  13.359  22.398  0.00  0.00    +0.000 OA
ATOM     12  O   UNL     1      -1.203  12.441  20.255  0.00  0.00    +0.000 OA
BRANCH  10  13
ATOM     13  N   UNL     1      -2.436  12.224  22.436  0.00  0.00    +0.000 NA
ATOM     14  H   UNL     1      -3.202  12.418  21.789  0.00  0.00    +0.000 HD
ATOM     15  H   UNL     1      -2.467  12.777  23.291  0.00  0.00    +0.000 HD
ENDBRANCH  10  13
ENDBRANCH   7  10
BRANCH   1  16
ATOM     16  C   UNL     1       2.689   6.027  19.711  0.00  0.00    +0.000 C 
BRANCH  16  17
ATOM     17  C   UNL     1       2.146   5.062  20.767  0.00  0.00    +0.000 C 
BRANCH  17  18
ATOM     18  C   UNL     1       0.999   4.183  20.275  0.00  0.00    +0.000 C 
BRANCH  18  19
ATOM     19  C   UNL     1       1.410   3.487  18.974  0.00  0.00    +0.000 C 
BRANCH  19  20
ATOM     20  C   UNL     1       2.458   2.396  19.196  0.00  0.00    +0.000 C 
BRANCH  20  21
ATOM     21  C   UNL     1       3.413   2.321  18.003  0.00  0.00    +0.000 C 
BRANCH  21  22
ATOM     22  C   UNL     1       3.332   3.565  17.120  0.00  0.00    +0.000 C 
BRANCH  22  23
ATOM     23  C   UNL     1       4.711   4.080  16.772  0.00  0.00    +0.000 C 
ATOM     24  O   UNL     1       5.221   4.047  15.663  0.00  0.00    +0.000 OA
BRANCH  23  26
ATOM     25  C   UNL     1       6.732   4.587  17.832  0.00  0.00    +0.000 C 
ATOM     26  O   UNL     1       5.304   4.591  17.888  0.00  0.00    +0.000 OA
ENDBRANCH  23  26
ENDBRANCH  22  23
ENDBRANCH  21  22
ENDBRANCH  20  21
ENDBRANCH  19  20
ENDBRANCH  18  19
ENDBRANCH  17  18
ENDBRANCH  16  17
ENDBRANCH   1  16
TORSDOF 11
ENDMDL
MODEL 7
REMARK VINA RESULT:      -6.0      7.037      9.970
REMARK  Name = 
REMARK  12 active torsions:
REMARK  status: ('A' for Active; 'I' for Inactive)
REMARK    1  A    between atoms: C_1  and  O_2
REMARK    2  A    between atoms: O_2  and  C_3
REMARK    3  A    between atoms: C_3  and  C_5
REMARK    4  A    between atoms: C_5  and  C_6
REMARK    5  A    between atoms: C_6  and  C_7
REMARK    6  A    between atoms: C_7  and  C_8
REMARK    7  A    between atoms: C_8  and  C_9
REMARK    8  A    between atoms: C_9  and  C_10
REMARK    9  A    between atoms: C_10  and  C_11
REMARK   10  A    between atoms: C_11  and  C_12
REMARK   11  A    between atoms: C_18  and  S_19
REMARK   12  A    between atoms: S_19  and  N_20
REMARK                            x       y       z     vdW  Elec       q    Type
REMARK                         _______ _______ _______ _____ _____    ______ ____
ROOT
ATOM      1  C   UNL     1      -0.295  10.521  18.592  0.00  0.00    +0.000 C 
ATOM      2  O   UNL     1      -0.837  10.511  19.694  0.00  0.00    +0.000 OA
ATOM      3  N   UNL     1      -0.934  10.728  17.389  0.00  0.00    +0.000 N 
ATOM      4  C   UNL     1      -2.277  11.001  17.253  0.00  0.00    +0.000 A 
ATOM      5  N   UNL     1      -2.919  10.905  16.105  0.00  0.00    +0.000 NA
ATOM      6  N   UNL     1      -4.266  11.212  16.234  0.00  0.00    +0.000 NA
ATOM      7  C   UNL     1      -4.546  11.574  17.470  0.00  0.00    +0.000 A 
ATOM      8  S   UNL     1      -3.236  11.574  18.547  0.00  0.00    +0.000 S 
ATOM      9  H   UNL     1      -0.460  10.506  16.524  0.00  0.00    +0.000 HD
ENDROOT
BRANCH   7  10
ATOM     10  S   UNL     1      -6.130  12.060  18.065  0.00  0.00    +0.000 S 
ATOM     11  O   UNL     1      -5.896  12.742  19.317  0.00  0.00    +0.000 OA
ATOM     12  O   UNL     1      -6.803  12.674  16.943  0.00  0.00    +0.000 OA
BRANCH  10  13
ATOM     13  N   UNL     1      -6.994  10.657  18.433  0.00  0.00    +0.000 NA
ATOM     14  H   UNL     1      -7.367  10.217  17.591  0.00  0.00    +0.000 HD
ATOM     15  H   UNL     1      -7.694  10.831  19.153  0.00  0.00    +0.000 HD
ENDBRANCH  10  13
ENDBRANCH   7  10
BRANCH   1  16
ATOM     16  C   UNL     1       1.200  10.275  18.446  0.00  0.00    +0.000 C 
BRANCH  16  17
ATOM     17  C   UNL     1       1.550   8.887  18.989  0.00  0.00    +0.000 C 
BRANCH  17  18
ATOM     18  C   UNL     1       2.138   7.942  17.946  0.00  0.00    +0.000 C 
BRANCH  18  19
ATOM     19  C   UNL     1       3.037   6.911  18.638  0.00  0.00    +0.000 C 
BRANCH  19  20
ATOM     20  C   UNL     1       2.343   5.562  18.829  0.00  0.00    +0.000 C 
BRANCH  20  21
ATOM     21  C   UNL     1       1.906   5.387  20.285  0.00  0.00    +0.000 C 
BRANCH  21  22
ATOM     22  C   UNL     1       1.188   4.059  20.517  0.00  0.00    +0.000 C 
BRANCH  22  23
ATOM     23  C   UNL     1       2.149   2.993  20.994  0.00  0.00    +0.000 C 
ATOM     24  O   UNL     1       2.497   2.821  22.153  0.00  0.00    +0.000 OA
BRANCH  23  26
ATOM     25  C   UNL     1       3.981   2.318  19.709  0.00  0.00    +0.000 C 
ATOM     26  O   UNL     1       2.572   2.248  19.934  0.00  0.00    +0.000 OA
ENDBRANCH  23  26
ENDBRANCH  22  23
ENDBRANCH  21  22
ENDBRANCH  20  21
ENDBRANCH  19  20
ENDBRANCH  18  19
ENDBRANCH  17  18
ENDBRANCH  16  17
ENDBRANCH   1  16
TORSDOF 11
ENDMDL
MODEL 8
REMARK VINA RESULT:      -5.9      4.092      6.234
REMARK  Name = 
REMARK  12 active torsions:
REMARK  status: ('A' for Active; 'I' for Inactive)
REMARK    1  A    between atoms: C_1  and  O_2
REMARK    2  A    between atoms: O_2  and  C_3
REMARK    3  A    between atoms: C_3  and  C_5
REMARK    4  A    between atoms: C_5  and  C_6
REMARK    5  A    between atoms: C_6  and  C_7
REMARK    6  A    between atoms: C_7  and  C_8
REMARK    7  A    between atoms: C_8  and  C_9
REMARK    8  A    between atoms: C_9  and  C_10
REMARK    9  A    between atoms: C_10  and  C_11
REMARK   10  A    between atoms: C_11  and  C_12
REMARK   11  A    between atoms: C_18  and  S_19
REMARK   12  A    between atoms: S_19  and  N_20
REMARK                            x       y       z     vdW  Elec       q    Type
REMARK                         _______ _______ _______ _____ _____    ______ ____
ROOT
ATOM      1  C   UNL     1       2.444   5.693  20.198  0.00  0.00    +0.000 C 
ATOM      2  O   UNL     1       3.084   6.066  19.218  0.00  0.00    +0.000 OA
ATOM      3  N   UNL     1       1.644   6.494  20.983  0.00  0.00    +0.000 N 
ATOM      4  C   UNL     1       1.410   7.831  20.754  0.00  0.00    +0.000 A 
ATOM      5  N   UNL     1       0.894   8.638  21.660  0.00  0.00    +0.000 NA
ATOM      6  N   UNL     1       0.777   9.939  21.193  0.00  0.00    +0.000 NA
ATOM      7  C   UNL     1       1.167  10.021  19.937  0.00  0.00    +0.000 A 
ATOM      8  S   UNL     1       1.691   8.568  19.237  0.00  0.00    +0.000 S 
ATOM      9  H   UNL     1       1.331   6.160  21.885  0.00  0.00    +0.000 HD
ENDROOT
BRANCH   7  10
ATOM     10  S   UNL     1       1.168  11.482  18.955  0.00  0.00    +0.000 S 
ATOM     11  O   UNL     1      -0.174  11.618  18.439  0.00  0.00    +0.000 OA
ATOM     12  O   UNL     1       1.815  12.497  19.756  0.00  0.00    +0.000 OA
BRANCH  10  13
ATOM     13  N   UNL     1       2.172  11.208  17.626  0.00  0.00    +0.000 NA
ATOM     14  H   UNL     1       1.908  10.357  17.128  0.00  0.00    +0.000 HD
ATOM     15  H   UNL     1       3.156  11.245  17.891  0.00  0.00    +0.000 HD
ENDBRANCH  10  13
ENDBRANCH   7  10
BRANCH   1  16
ATOM     16  C   UNL     1       2.493   4.245  20.666  0.00  0.00    +0.000 C 
BRANCH  16  17
ATOM     17  C   UNL     1       1.146   3.570  20.399  0.00  0.00    +0.000 C 
BRANCH  17  18
ATOM     18  C   UNL     1       0.856   3.322  18.922  0.00  0.00    +0.000 C 
BRANCH  18  19
ATOM     19  C   UNL     1       1.978   2.472  18.316  0.00  0.00    +0.000 C 
BRANCH  19  20
ATOM     20  C   UNL     1       2.727   3.198  17.198  0.00  0.00    +0.000 C 
BRANCH  20  21
ATOM     21  C   UNL     1       4.224   3.261  17.512  0.00  0.00    +0.000 C 
BRANCH  21  22
ATOM     22  C   UNL     1       4.952   4.289  16.647  0.00  0.00    +0.000 C 
BRANCH  22  23
ATOM     23  C   UNL     1       6.088   4.936  17.407  0.00  0.00    +0.000 C 
ATOM     24  O   UNL     1       6.871   4.355  18.143  0.00  0.00    +0.000 OA
BRANCH  23  26
ATOM     25  C   UNL     1       7.305   6.924  17.585  0.00  0.00    +0.000 C 
ATOM     26  O   UNL     1       6.110   6.275  17.147  0.00  0.00    +0.000 OA
ENDBRANCH  23  26
ENDBRANCH  22  23
ENDBRANCH  21  22
ENDBRANCH  20  21
ENDBRANCH  19  20
ENDBRANCH  18  19
ENDBRANCH  17  18
ENDBRANCH  16  17
ENDBRANCH   1  16
TORSDOF 11
ENDMDL
MODEL 9
REMARK VINA RESULT:      -5.9      4.252      6.525
REMARK  Name = 
REMARK  12 active torsions:
REMARK  status: ('A' for Active; 'I' for Inactive)
REMARK    1  A    between atoms: C_1  and  O_2
REMARK    2  A    between atoms: O_2  and  C_3
REMARK    3  A    between atoms: C_3  and  C_5
REMARK    4  A    between atoms: C_5  and  C_6
REMARK    5  A    between atoms: C_6  and  C_7
REMARK    6  A    between atoms: C_7  and  C_8
REMARK    7  A    between atoms: C_8  and  C_9
REMARK    8  A    between atoms: C_9  and  C_10
REMARK    9  A    between atoms: C_10  and  C_11
REMARK   10  A    between atoms: C_11  and  C_12
REMARK   11  A    between atoms: C_18  and  S_19
REMARK   12  A    between atoms: S_19  and  N_20
REMARK                            x       y       z     vdW  Elec       q    Type
REMARK                         _______ _______ _______ _____ _____    ______ ____
ROOT
ATOM      1  C   UNL     1       1.901   8.244  19.309  0.00  0.00    +0.000 C 
ATOM      2  O   UNL     1       1.674   7.736  20.404  0.00  0.00    +0.000 OA
ATOM      3  N   UNL     1       2.554   7.630  18.263  0.00  0.00    +0.000 N 
ATOM      4  C   UNL     1       3.011   6.331  18.279  0.00  0.00    +0.000 A 
ATOM      5  N   UNL     1       3.877   5.861  17.403  0.00  0.00    +0.000 NA
ATOM      6  N   UNL     1       4.193   4.532  17.646  0.00  0.00    +0.000 NA
ATOM      7  C   UNL     1       3.501   4.066  18.665  0.00  0.00    +0.000 A 
ATOM      8  S   UNL     1       2.437   5.168  19.393  0.00  0.00    +0.000 S 
ATOM      9  H   UNL     1       2.888   8.185  17.486  0.00  0.00    +0.000 HD
ENDROOT
BRANCH   7  10
ATOM     10  S   UNL     1       3.583   2.425  19.299  0.00  0.00    +0.000 S 
ATOM     11  O   UNL     1       2.618   2.362  20.372  0.00  0.00    +0.000 OA
ATOM     12  O   UNL     1       3.545   1.553  18.147  0.00  0.00    +0.000 OA
BRANCH  10  13
ATOM     13  N   UNL     1       5.104   2.221  20.004  0.00  0.00    +0.000 NA
ATOM     14  H   UNL     1       5.117   2.559  20.967  0.00  0.00    +0.000 HD
ATOM     15  H   UNL     1       5.839   2.613  19.417  0.00  0.00    +0.000 HD
ENDBRANCH  10  13
ENDBRANCH   7  10
BRANCH   1  16
ATOM     16  C   UNL     1       1.477   9.673  19.001  0.00  0.00    +0.000 C 
BRANCH  16  17
ATOM     17  C   UNL     1       0.312  10.073  19.909  0.00  0.00    +0.000 C 
BRANCH  17  18
ATOM     18  C   UNL     1      -0.885  10.657  19.164  0.00  0.00    +0.000 C 
BRANCH  18  19
ATOM     19  C   UNL     1      -0.929  10.089  17.741  0.00  0.00    +0.000 C 
BRANCH  19  20
ATOM     20  C   UNL     1      -2.357   9.884  17.235  0.00  0.00    +0.000 C 
BRANCH  20  21
ATOM     21  C   UNL     1      -2.642  10.810  16.050  0.00  0.00    +0.000 C 
BRANCH  21  22
ATOM     22  C   UNL     1      -3.870  10.370  15.255  0.00  0.00    +0.000 C 
BRANCH  22  23
ATOM     23  C   UNL     1      -3.507  10.034  13.826  0.00  0.00    +0.000 C 
ATOM     24  O   UNL     1      -2.392   9.724  13.433  0.00  0.00    +0.000 OA
BRANCH  23  26
ATOM     25  C   UNL     1      -4.408   9.661  11.702  0.00  0.00    +0.000 C 
ATOM     26  O   UNL     1      -4.614  10.127  13.037  0.00  0.00    +0.000 OA
ENDBRANCH  23  26
ENDBRANCH  22  23
ENDBRANCH  21  22
ENDBRANCH  20  21
ENDBRANCH  19  20
ENDBRANCH  18  19
ENDBRANCH  17  18
ENDBRANCH  16  17
ENDBRANCH   1  16
TORSDOF 11
ENDMDL
