MODEL 1
REMARK VINA RESULT:      -6.3      0.000      0.000
REMARK  Name = 
REMARK  3 active torsions:
REMARK  status: ('A' for Active; 'I' for Inactive)
REMARK    1  A    between atoms: C_1  and  C_2
REMARK    2  A    between atoms: C_2  and  O_3
REMARK    3  A    between atoms: O_3  and  C_4
REMARK                            x       y       z     vdW  Elec       q    Type
REMARK                         _______ _______ _______ _____ _____    ______ ____
ROOT
ATOM      1  C   UNL     1       2.518   6.428  18.978  0.00  0.00    +0.000 C 
ATOM      2  O   UNL     1       2.880   6.033  17.875  0.00  0.00    +0.000 OA
ATOM      3  N   UNL     1       2.072   7.707  19.225  0.00  0.00    +0.000 N 
ATOM      4  C   UNL     1       2.242   8.723  18.189  0.00  0.00    +0.000 C 
ATOM      5  C   UNL     1       1.059   9.694  18.156  0.00  0.00    +0.000 C 
ATOM      6  N   UNL     1       0.877  10.260  19.503  0.00  0.00    +0.000 N 
ATOM      7  C   UNL     1       0.425  11.543  19.645  0.00  0.00    +0.000 C 
ATOM      8  N   UNL     1      -0.657  11.998  20.235  0.00  0.00    +0.000 NA
ATOM      9  C   UNL     1      -0.585  13.371  20.030  0.00  0.00    +0.000 A 
ATOM     10  C   UNL     1      -1.483  14.370  20.393  0.00  0.00    +0.000 A 
ATOM     11  C   UNL     1      -1.143  15.696  20.042  0.00  0.00    +0.000 A 
ATOM     12  C   UNL     1       0.053  16.015  19.362  0.00  0.00    +0.000 A 
ATOM     13  C   UNL     1       0.948  14.991  19.006  0.00  0.00    +0.000 A 
ATOM     14  C   UNL     1       2.185  15.090  18.338  0.00  0.00    +0.000 A 
ATOM     15  C   UNL     1       2.948  13.929  18.088  0.00  0.00    +0.000 A 
ATOM     16  C   UNL     1       2.507  12.651  18.479  0.00  0.00    +0.000 A 
ATOM     17  C   UNL     1       1.264  12.584  19.102  0.00  0.00    +0.000 A 
ATOM     18  C   UNL     1       0.566  13.735  19.355  0.00  0.00    +0.000 A 
ATOM     19  C   UNL     1       0.514   9.227  20.481  0.00  0.00    +0.000 C 
ATOM     20  C   UNL     1       1.649   8.183  20.555  0.00  0.00    +0.000 C 
ENDROOT
BRANCH   1  21
ATOM     21  O   UNL     1       2.455   5.645  20.084  0.00  0.00    +0.000 OA
BRANCH  21  23
ATOM     22  C   UNL     1       1.100   3.745  20.510  0.00  0.00    +0.000 C 
ATOM     23  C   UNL     1       2.367   4.238  19.836  0.00  0.00    +0.000 C 
ENDBRANCH  21  23
ENDBRANCH   1  21
TORSDOF 2
ENDMDL
MODEL 2
REMARK VINA RESULT:      -6.3      2.994      8.111
REMARK  Name = 
REMARK  3 active torsions:
REMARK  status: ('A' for Active; 'I' for Inactive)
REMARK    1  A    between atoms: C_1  and  C_2
REMARK    2  A    between atoms: C_2  and  O_3
REMARK    3  A    between atoms: O_3  and  C_4
REMARK                            x       y       z     vdW  Elec       q    Type
REMARK                         _______ _______ _______ _____ _____    ______ ____
ROOT
ATOM      1  C   UNL     1      -0.663  13.023  19.549  0.00  0.00    +0.000 C 
ATOM      2  O   UNL     1      -1.868  12.908  19.740  0.00  0.00    +0.000 OA
ATOM      3  N   UNL     1       0.177  11.964  19.287  0.00  0.00    +0.000 N 
ATOM      4  C   UNL     1      -0.331  10.605  19.464  0.00  0.00    +0.000 C 
ATOM      5  C   UNL     1       0.235   9.653  18.408  0.00  0.00    +0.000 C 
ATOM      6  N   UNL     1       1.704   9.735  18.441  0.00  0.00    +0.000 N 
ATOM      7  C   UNL     1       2.453   8.624  18.162  0.00  0.00    +0.000 C 
ATOM      8  N   UNL     1       3.336   8.416  17.211  0.00  0.00    +0.000 NA
ATOM      9  C   UNL     1       3.736   7.101  17.423  0.00  0.00    +0.000 A 
ATOM     10  C   UNL     1       4.624   6.316  16.695  0.00  0.00    +0.000 A 
ATOM     11  C   UNL     1       4.834   4.995  17.150  0.00  0.00    +0.000 A 
ATOM     12  C   UNL     1       4.189   4.478  18.295  0.00  0.00    +0.000 A 
ATOM     13  C   UNL     1       3.295   5.288  19.018  0.00  0.00    +0.000 A 
ATOM     14  C   UNL     1       2.559   4.975  20.178  0.00  0.00    +0.000 A 
ATOM     15  C   UNL     1       1.722   5.947  20.767  0.00  0.00    +0.000 A 
ATOM     16  C   UNL     1       1.584   7.237  20.222  0.00  0.00    +0.000 A 
ATOM     17  C   UNL     1       2.294   7.501  19.055  0.00  0.00    +0.000 A 
ATOM     18  C   UNL     1       3.121   6.543  18.529  0.00  0.00    +0.000 A 
ATOM     19  C   UNL     1       2.182  11.071  18.065  0.00  0.00    +0.000 C 
ATOM     20  C   UNL     1       1.627  12.104  19.070  0.00  0.00    +0.000 C 
ENDROOT
BRANCH   1  21
ATOM     21  O   UNL     1      -0.008  14.211  19.514  0.00  0.00    +0.000 OA
BRANCH  21  23
ATOM     22  C   UNL     1      -0.376  16.415  18.716  0.00  0.00    +0.000 C 
ATOM     23  C   UNL     1      -0.825  15.369  19.719  0.00  0.00    +0.000 C 
ENDBRANCH  21  23
ENDBRANCH   1  21
TORSDOF 2
ENDMDL
MODEL 3
REMARK VINA RESULT:      -6.1      7.059     10.236
REMARK  Name = 
REMARK  3 active torsions:
REMARK  status: ('A' for Active; 'I' for Inactive)
REMARK    1  A    between atoms: C_1  and  C_2
REMARK    2  A    between atoms: C_2  and  O_3
REMARK    3  A    between atoms: O_3  and  C_4
REMARK                            x       y       z     vdW  Elec       q    Type
REMARK                         _______ _______ _______ _____ _____    ______ ____
ROOT
ATOM      1  C   UNL     1       3.067  17.074  18.938  0.00  0.00    +0.000 C 
ATOM      2  O   UNL     1       2.960  17.959  19.779  0.00  0.00    +0.000 OA
ATOM      3  N   UNL     1       4.257  16.458  18.620  0.00  0.00    +0.000 N 
ATOM      4  C   UNL     1       5.501  17.027  19.134  0.00  0.00    +0.000 C 
ATOM      5  C   UNL     1       6.511  15.934  19.493  0.00  0.00    +0.000 C 
ATOM      6  N   UNL     1       6.707  15.071  18.316  0.00  0.00    +0.000 N 
ATOM      7  C   UNL     1       7.930  14.501  18.088  0.00  0.00    +0.000 C 
ATOM      8  N   UNL     1       8.272  13.235  18.011  0.00  0.00    +0.000 NA
ATOM      9  C   UNL     1       9.644  13.283  17.791  0.00  0.00    +0.000 A 
ATOM     10  C   UNL     1      10.560  12.242  17.672  0.00  0.00    +0.000 A 
ATOM     11  C   UNL     1      11.909  12.598  17.453  0.00  0.00    +0.000 A 
ATOM     12  C   UNL     1      12.329  13.942  17.347  0.00  0.00    +0.000 A 
ATOM     13  C   UNL     1      11.388  14.979  17.468  0.00  0.00    +0.000 A 
ATOM     14  C   UNL     1      11.591  16.371  17.390  0.00  0.00    +0.000 A 
ATOM     15  C   UNL     1      10.497  17.254  17.523  0.00  0.00    +0.000 A 
ATOM     16  C   UNL     1       9.189  16.786  17.746  0.00  0.00    +0.000 A 
ATOM     17  C   UNL     1       9.029  15.408  17.856  0.00  0.00    +0.000 A 
ATOM     18  C   UNL     1      10.109  14.582  17.692  0.00  0.00    +0.000 A 
ATOM     19  C   UNL     1       5.474  14.364  17.949  0.00  0.00    +0.000 C 
ATOM     20  C   UNL     1       4.385  15.402  17.600  0.00  0.00    +0.000 C 
ENDROOT
BRANCH   1  21
ATOM     21  O   UNL     1       2.022  16.545  18.252  0.00  0.00    +0.000 OA
BRANCH  21  23
ATOM     22  C   UNL     1      -0.220  17.247  17.925  0.00  0.00    +0.000 C 
ATOM     23  C   UNL     1       0.753  16.625  18.909  0.00  0.00    +0.000 C 
ENDBRANCH  21  23
ENDBRANCH   1  21
TORSDOF 2
ENDMDL
MODEL 4
REMARK VINA RESULT:      -6.0      3.817      8.073
REMARK  Name = 
REMARK  3 active torsions:
REMARK  status: ('A' for Active; 'I' for Inactive)
REMARK    1  A    between atoms: C_1  and  C_2
REMARK    2  A    between atoms: C_2  and  O_3
REMARK    3  A    between atoms: O_3  and  C_4
REMARK                            x       y       z     vdW  Elec       q    Type
REMARK                         _______ _______ _______ _____ _____    ______ ____
ROOT
ATOM      1  C   UNL     1      -0.785  16.423  19.292  0.00  0.00    +0.000 C 
ATOM      2  O   UNL     1      -1.930  16.659  19.661  0.00  0.00    +0.000 OA
ATOM      3  N   UNL     1      -0.235  15.161  19.260  0.00  0.00    +0.000 N 
ATOM      4  C   UNL     1      -0.954  14.065  19.905  0.00  0.00    +0.000 C 
ATOM      5  C   UNL     1      -0.799  12.756  19.126  0.00  0.00    +0.000 C 
ATOM      6  N   UNL     1       0.637  12.485  18.945  0.00  0.00    +0.000 N 
ATOM      7  C   UNL     1       1.086  11.193  18.924  0.00  0.00    +0.000 C 
ATOM      8  N   UNL     1       1.712  10.530  17.977  0.00  0.00    +0.000 NA
ATOM      9  C   UNL     1       1.881   9.264  18.527  0.00  0.00    +0.000 A 
ATOM     10  C   UNL     1       2.442   8.121  17.965  0.00  0.00    +0.000 A 
ATOM     11  C   UNL     1       2.474   6.961  18.769  0.00  0.00    +0.000 A 
ATOM     12  C   UNL     1       1.973   6.942  20.089  0.00  0.00    +0.000 A 
ATOM     13  C   UNL     1       1.411   8.107  20.640  0.00  0.00    +0.000 A 
ATOM     14  C   UNL     1       0.866   8.305  21.924  0.00  0.00    +0.000 A 
ATOM     15  C   UNL     1       0.364   9.572  22.291  0.00  0.00    +0.000 A 
ATOM     16  C   UNL     1       0.377  10.663  21.401  0.00  0.00    +0.000 A 
ATOM     17  C   UNL     1       0.887  10.424  20.129  0.00  0.00    +0.000 A 
ATOM     18  C   UNL     1       1.394   9.189  19.819  0.00  0.00    +0.000 A 
ATOM     19  C   UNL     1       1.285  13.514  18.123  0.00  0.00    +0.000 C 
ATOM     20  C   UNL     1       1.146  14.881  18.828  0.00  0.00    +0.000 C 
ENDROOT
BRANCH   1  21
ATOM     21  O   UNL     1       0.070  17.362  18.814  0.00  0.00    +0.000 OA
BRANCH  21  23
ATOM     22  C   UNL     1       0.913  18.566  16.952  0.00  0.00    +0.000 C 
ATOM     23  C   UNL     1      -0.337  18.000  17.599  0.00  0.00    +0.000 C 
ENDBRANCH  21  23
ENDBRANCH   1  21
TORSDOF 2
ENDMDL
MODEL 5
REMARK VINA RESULT:      -6.0      8.431     10.087
REMARK  Name = 
REMARK  3 active torsions:
REMARK  status: ('A' for Active; 'I' for Inactive)
REMARK    1  A    between atoms: C_1  and  C_2
REMARK    2  A    between atoms: C_2  and  O_3
REMARK    3  A    between atoms: O_3  and  C_4
REMARK                            x       y       z     vdW  Elec       q    Type
REMARK                         _______ _______ _______ _____ _____    ______ ____
ROOT
ATOM      1  C   UNL     1       5.651  11.374  26.267  0.00  0.00    +0.000 C 
ATOM      2  O   UNL     1       4.601  10.837  25.935  0.00  0.00    +0.000 OA
ATOM      3  N   UNL     1       6.585  11.849  25.373  0.00  0.00    +0.000 N 
ATOM      4  C   UNL     1       6.445  11.502  23.961  0.00  0.00    +0.000 C 
ATOM      5  C   UNL     1       6.877  12.657  23.054  0.00  0.00    +0.000 C 
ATOM      6  N   UNL     1       8.245  13.058  23.423  0.00  0.00    +0.000 N 
ATOM      7  C   UNL     1       9.100  13.520  22.461  0.00  0.00    +0.000 C 
ATOM      8  N   UNL     1       9.703  14.683  22.352  0.00  0.00    +0.000 NA
ATOM      9  C   UNL     1      10.413  14.569  21.162  0.00  0.00    +0.000 A 
ATOM     10  C   UNL     1      11.203  15.509  20.508  0.00  0.00    +0.000 A 
ATOM     11  C   UNL     1      11.806  15.108  19.295  0.00  0.00    +0.000 A 
ATOM     12  C   UNL     1      11.633  13.814  18.757  0.00  0.00    +0.000 A 
ATOM     13  C   UNL     1      10.831  12.878  19.434  0.00  0.00    +0.000 A 
ATOM     14  C   UNL     1      10.535  11.546  19.079  0.00  0.00    +0.000 A 
ATOM     15  C   UNL     1       9.713  10.759  19.913  0.00  0.00    +0.000 A 
ATOM     16  C   UNL     1       9.159  11.267  21.103  0.00  0.00    +0.000 A 
ATOM     17  C   UNL     1       9.440  12.596  21.405  0.00  0.00    +0.000 A 
ATOM     18  C   UNL     1      10.266  13.320  20.586  0.00  0.00    +0.000 A 
ATOM     19  C   UNL     1       8.306  13.585  24.792  0.00  0.00    +0.000 C 
ATOM     20  C   UNL     1       7.853  12.484  25.775  0.00  0.00    +0.000 C 
ENDROOT
BRANCH   1  21
ATOM     21  O   UNL     1       6.005  11.625  27.553  0.00  0.00    +0.000 OA
BRANCH  21  23
ATOM     22  C   UNL     1       5.693  13.720  28.621  0.00  0.00    +0.000 C 
ATOM     23  C   UNL     1       5.055  12.378  28.315  0.00  0.00    +0.000 C 
ENDBRANCH  21  23
ENDBRANCH   1  21
TORSDOF 2
ENDMDL
MODEL 6
REMARK VINA RESULT:      -6.0      2.559      3.496
REMARK  Name = 
REMARK  3 active torsions:
REMARK  status: ('A' for Active; 'I' for Inactive)
REMARK    1  A    between atoms: C_1  and  C_2
REMARK    2  A    between atoms: C_2  and  O_3
REMARK    3  A    between atoms: O_3  and  C_4
REMARK                            x       y       z     vdW  Elec       q    Type
REMARK                         _______ _______ _______ _____ _____    ______ ____
ROOT
ATOM      1  C   UNL     1       1.967   8.512  18.568  0.00  0.00    +0.000 C 
ATOM      2  O   UNL     1       2.217   8.873  17.424  0.00  0.00    +0.000 OA
ATOM      3  N   UNL     1       1.320   9.297  19.496  0.00  0.00    +0.000 N 
ATOM      4  C   UNL     1       1.114  10.713  19.197  0.00  0.00    +0.000 C 
ATOM      5  C   UNL     1      -0.228  11.211  19.738  0.00  0.00    +0.000 C 
ATOM      6  N   UNL     1      -0.299  10.903  21.176  0.00  0.00    +0.000 N 
ATOM      7  C   UNL     1      -0.970  11.747  22.019  0.00  0.00    +0.000 C 
ATOM      8  N   UNL     1      -2.011  11.523  22.788  0.00  0.00    +0.000 NA
ATOM      9  C   UNL     1      -2.248  12.758  23.380  0.00  0.00    +0.000 A 
ATOM     10  C   UNL     1      -3.257  13.141  24.259  0.00  0.00    +0.000 A 
ATOM     11  C   UNL     1      -3.250  14.484  24.697  0.00  0.00    +0.000 A 
ATOM     12  C   UNL     1      -2.267  15.410  24.281  0.00  0.00    +0.000 A 
ATOM     13  C   UNL     1      -1.256  15.003  23.393  0.00  0.00    +0.000 A 
ATOM     14  C   UNL     1      -0.188  15.755  22.863  0.00  0.00    +0.000 A 
ATOM     15  C   UNL     1       0.741  15.147  21.992  0.00  0.00    +0.000 A 
ATOM     16  C   UNL     1       0.632  13.795  21.616  0.00  0.00    +0.000 A 
ATOM     17  C   UNL     1      -0.454  13.091  22.127  0.00  0.00    +0.000 A 
ATOM     18  C   UNL     1      -1.318  13.706  22.994  0.00  0.00    +0.000 A 
ATOM     19  C   UNL     1      -0.286   9.456  21.422  0.00  0.00    +0.000 C 
ATOM     20  C   UNL     1       1.032   8.865  20.876  0.00  0.00    +0.000 C 
ENDROOT
BRANCH   1  21
ATOM     21  O   UNL     1       2.241   7.275  19.053  0.00  0.00    +0.000 OA
BRANCH  21  23
ATOM     22  C   UNL     1       2.149   5.140  18.023  0.00  0.00    +0.000 C 
ATOM     23  C   UNL     1       2.961   6.414  18.165  0.00  0.00    +0.000 C 
ENDBRANCH  21  23
ENDBRANCH   1  21
TORSDOF 2
ENDMDL
MODEL 7
REMARK VINA RESULT:      -5.9      8.055      9.689
REMARK  Name = 
REMARK  3 active torsions:
REMARK  status: ('A' for Active; 'I' for Inactive)
REMARK    1  A    between atoms: C_1  and  C_2
REMARK    2  A    between atoms: C_2  and  O_3
REMARK    3  A    between atoms: O_3  and  C_4
REMARK                            x       y       z     vdW  Elec       q    Type
REMARK                         _______ _______ _______ _____ _____    ______ ____
ROOT
ATOM      1  C   UNL     1       5.733  13.320  25.503  0.00  0.00    +0.000 C 
ATOM      2  O   UNL     1       5.699  14.370  26.134  0.00  0.00    +0.000 OA
ATOM      3  N   UNL     1       6.479  13.136  24.360  0.00  0.00    +0.000 N 
ATOM      4  C   UNL     1       7.088  14.302  23.724  0.00  0.00    +0.000 C 
ATOM      5  C   UNL     1       8.459  13.965  23.131  0.00  0.00    +0.000 C 
ATOM      6  N   UNL     1       8.308  12.817  22.221  0.00  0.00    +0.000 N 
ATOM      7  C   UNL     1       9.100  12.722  21.110  0.00  0.00    +0.000 C 
ATOM      8  N   UNL     1       9.964  11.795  20.763  0.00  0.00    +0.000 NA
ATOM      9  C   UNL     1      10.472  12.261  19.556  0.00  0.00    +0.000 A 
ATOM     10  C   UNL     1      11.459  11.717  18.740  0.00  0.00    +0.000 A 
ATOM     11  C   UNL     1      11.776  12.423  17.559  0.00  0.00    +0.000 A 
ATOM     12  C   UNL     1      11.126  13.624  17.199  0.00  0.00    +0.000 A 
ATOM     13  C   UNL     1      10.129  14.157  18.036  0.00  0.00    +0.000 A 
ATOM     14  C   UNL     1       9.361  15.326  17.863  0.00  0.00    +0.000 A 
ATOM     15  C   UNL     1       8.388  15.680  18.822  0.00  0.00    +0.000 A 
ATOM     16  C   UNL     1       8.160  14.900  19.972  0.00  0.00    +0.000 A 
ATOM     17  C   UNL     1       8.961  13.773  20.131  0.00  0.00    +0.000 A 
ATOM     18  C   UNL     1       9.874  13.445  19.164  0.00  0.00    +0.000 A 
ATOM     19  C   UNL     1       7.879  11.609  22.938  0.00  0.00    +0.000 C 
ATOM     20  C   UNL     1       6.508  11.876  23.596  0.00  0.00    +0.000 C 
ENDROOT
BRANCH   1  21
ATOM     21  O   UNL     1       5.088  12.186  25.877  0.00  0.00    +0.000 OA
BRANCH  21  23
ATOM     22  C   UNL     1       4.636  10.411  27.384  0.00  0.00    +0.000 C 
ATOM     23  C   UNL     1       5.507  11.626  27.125  0.00  0.00    +0.000 C 
ENDBRANCH  21  23
ENDBRANCH   1  21
TORSDOF 2
ENDMDL
MODEL 8
REMARK VINA RESULT:      -5.9      2.783      4.386
REMARK  Name = 
REMARK  3 active torsions:
REMARK  status: ('A' for Active; 'I' for Inactive)
REMARK    1  A    between atoms: C_1  and  C_2
REMARK    2  A    between atoms: C_2  and  O_3
REMARK    3  A    between atoms: O_3  and  C_4
REMARK                            x       y       z     vdW  Elec       q    Type
REMARK                         _______ _______ _______ _____ _____    ______ ____
ROOT
ATOM      1  C   UNL     1       5.062   4.836  16.930  0.00  0.00    +0.000 C 
ATOM      2  O   UNL     1       4.856   4.745  15.725  0.00  0.00    +0.000 OA
ATOM      3  N   UNL     1       4.324   5.634  17.775  0.00  0.00    +0.000 N 
ATOM      4  C   UNL     1       3.393   6.600  17.195  0.00  0.00    +0.000 C 
ATOM      5  C   UNL     1       2.126   6.737  18.043  0.00  0.00    +0.000 C 
ATOM      6  N   UNL     1       2.519   7.064  19.424  0.00  0.00    +0.000 N 
ATOM      7  C   UNL     1       1.715   7.865  20.188  0.00  0.00    +0.000 C 
ATOM      8  N   UNL     1       1.106   7.616  21.325  0.00  0.00    +0.000 NA
ATOM      9  C   UNL     1       0.423   8.797  21.593  0.00  0.00    +0.000 A 
ATOM     10  C   UNL     1      -0.434   9.106  22.644  0.00  0.00    +0.000 A 
ATOM     11  C   UNL     1      -0.995  10.403  22.653  0.00  0.00    +0.000 A 
ATOM     12  C   UNL     1      -0.706  11.359  21.655  0.00  0.00    +0.000 A 
ATOM     13  C   UNL     1       0.164  11.026  20.601  0.00  0.00    +0.000 A 
ATOM     14  C   UNL     1       0.586  11.823  19.518  0.00  0.00    +0.000 A 
ATOM     15  C   UNL     1       1.487  11.301  18.565  0.00  0.00    +0.000 A 
ATOM     16  C   UNL     1       1.980   9.985  18.653  0.00  0.00    +0.000 A 
ATOM     17  C   UNL     1       1.514   9.213  19.712  0.00  0.00    +0.000 A 
ATOM     18  C   UNL     1       0.663   9.764  20.634  0.00  0.00    +0.000 A 
ATOM     19  C   UNL     1       3.292   5.978  20.040  0.00  0.00    +0.000 C 
ATOM     20  C   UNL     1       4.582   5.752  19.221  0.00  0.00    +0.000 C 
ENDROOT
BRANCH   1  21
ATOM     21  O   UNL     1       6.003   4.123  17.598  0.00  0.00    +0.000 OA
BRANCH  21  23
ATOM     22  C   UNL     1       7.833   5.322  18.515  0.00  0.00    +0.000 C 
ATOM     23  C   UNL     1       7.359   4.497  17.333  0.00  0.00    +0.000 C 
ENDBRANCH  21  23
ENDBRANCH   1  21
TORSDOF 2
ENDMDL
MODEL 9
REMARK VINA RESULT:      -5.8      5.488      8.505
REMARK  Name = 
REMARK  3 active torsions:
REMARK  status: ('A' for Active; 'I' for Inactive)
REMARK    1  A    between atoms: C_1  and  C_2
REMARK    2  A    between atoms: C_2  and  O_3
REMARK    3  A    between atoms: O_3  and  C_4
REMARK                            x       y       z     vdW  Elec       q    Type
REMARK                         _______ _______ _______ _____ _____    ______ ____
ROOT
ATOM      1  C   UNL     1      -3.257  15.469  24.730  0.00  0.00    +0.000 C 
ATOM      2  O   UNL     1      -2.909  14.941  25.780  0.00  0.00    +0.000 OA
ATOM      3  N   UNL     1      -3.237  14.834  23.509  0.00  0.00    +0.000 N 
ATOM      4  C   UNL     1      -2.558  13.545  23.399  0.00  0.00    +0.000 C 
ATOM      5  C   UNL     1      -3.286  12.608  22.432  0.00  0.00    +0.000 C 
ATOM      6  N   UNL     1      -3.443  13.296  21.140  0.00  0.00    +0.000 N 
ATOM      7  C   UNL     1      -3.411  12.574  19.978  0.00  0.00    +0.000 C 
ATOM      8  N   UNL     1      -4.326  12.431  19.045  0.00  0.00    +0.000 NA
ATOM      9  C   UNL     1      -3.728  11.566  18.135  0.00  0.00    +0.000 A 
ATOM     10  C   UNL     1      -4.241  11.018  16.964  0.00  0.00    +0.000 A 
ATOM     11  C   UNL     1      -3.393  10.155  16.235  0.00  0.00    +0.000 A 
ATOM     12  C   UNL     1      -2.078   9.856  16.653  0.00  0.00    +0.000 A 
ATOM     13  C   UNL     1      -1.577  10.421  17.839  0.00  0.00    +0.000 A 
ATOM     14  C   UNL     1      -0.306  10.262  18.428  0.00  0.00    +0.000 A 
ATOM     15  C   UNL     1       0.008  10.938  19.626  0.00  0.00    +0.000 A 
ATOM     16  C   UNL     1      -0.922  11.773  20.273  0.00  0.00    +0.000 A 
ATOM     17  C   UNL     1      -2.180  11.879  19.687  0.00  0.00    +0.000 A 
ATOM     18  C   UNL     1      -2.438  11.232  18.507  0.00  0.00    +0.000 A 
ATOM     19  C   UNL     1      -4.297  14.484  21.257  0.00  0.00    +0.000 C 
ATOM     20  C   UNL     1      -3.645  15.475  22.246  0.00  0.00    +0.000 C 
ENDROOT
BRANCH   1  21
ATOM     21  O   UNL     1      -3.762  16.725  24.641  0.00  0.00    +0.000 OA
BRANCH  21  23
ATOM     22  C   UNL     1      -1.975  18.243  24.283  0.00  0.00    +0.000 C 
ATOM     23  C   UNL     1      -2.993  17.743  25.290  0.00  0.00    +0.000 C 
ENDBRANCH  21  23
ENDBRANCH   1  21
TORSDOF 2
ENDMDL
