MODEL 1
REMARK VINA RESULT:      -7.4      0.000      0.000
REMARK  Name = 
REMARK  6 active torsions:
REMARK  status: ('A' for Active; 'I' for Inactive)
REMARK    1  A    between atoms: C_1  and  O_2
REMARK    2  A    between atoms: O_2  and  C_3
REMARK    3  A    between atoms: C_8  and  N_9
REMARK    4  A    between atoms: N_15  and  C_16
REMARK    5  A    between atoms: C_19  and  N_20
REMARK    6  A    between atoms: C_27  and  C_28
REMARK                            x       y       z     vdW  Elec       q    Type
REMARK                         _______ _______ _______ _____ _____    ______ ____
ROOT
ATOM      1  N   UNL     1      -3.439  13.283  21.365  0.00  0.00    +0.000 N 
ATOM      2  C   UNL     1      -3.895  12.360  20.317  0.00  0.00    +0.000 C 
ATOM      3  C   UNL     1      -2.785  12.215  19.270  0.00  0.00    +0.000 C 
ATOM      4  N   UNL     1      -1.527  11.777  19.889  0.00  0.00    +0.000 N 
ATOM      5  C   UNL     1      -0.885  10.699  19.316  0.00  0.00    +0.000 C 
ATOM      6  O   UNL     1      -1.394  10.127  18.351  0.00  0.00    +0.000 OA
ATOM      7  N   UNL     1       0.302  10.312  19.893  0.00  0.00    +0.000 N 
ATOM      8  C   UNL     1      -1.072  12.657  20.983  0.00  0.00    +0.000 C 
ATOM      9  C   UNL     1      -2.191  12.873  22.034  0.00  0.00    +0.000 C 
ATOM     10  H   UNL     1       0.432  10.563  20.856  0.00  0.00    +0.000 HD
ENDROOT
BRANCH   7  11
ATOM     11  C   UNL     1       1.161   9.303  19.381  0.00  0.00    +0.000 A 
ATOM     12  C   UNL     1       1.696   9.402  18.097  0.00  0.00    +0.000 A 
ATOM     13  C   UNL     1       2.502   8.394  17.568  0.00  0.00    +0.000 A 
ATOM     14  C   UNL     1       2.839   7.259  18.304  0.00  0.00    +0.000 A 
ATOM     15  C   UNL     1       2.328   7.178  19.606  0.00  0.00    +0.000 A 
ATOM     16  C   UNL     1       1.499   8.183  20.162  0.00  0.00    +0.000 A 
ATOM     17  C   UNL     1       1.028   8.012  21.581  0.00  0.00    +0.000 C 
BRANCH  14  18
ATOM     18  N   UNL     1       3.630   6.285  17.734  0.00  0.00    +0.000 N 
ATOM     19  C   UNL     1       3.308   4.856  17.754  0.00  0.00    +0.000 C 
ATOM     20  C   UNL     1       4.344   4.082  18.581  0.00  0.00    +0.000 C 
ATOM     21  O   UNL     1       5.687   4.349  18.140  0.00  0.00    +0.000 OA
ATOM     22  C   UNL     1       5.975   5.753  18.245  0.00  0.00    +0.000 C 
ATOM     23  C   UNL     1       5.025   6.592  17.376  0.00  0.00    +0.000 C 
ENDBRANCH  14  18
ENDBRANCH   7  11
BRANCH   1  29
ATOM     24  C   UNL     1      -5.193  13.935  22.974  0.00  0.00    +0.000 A 
ATOM     25  C   UNL     1      -5.984  14.952  23.536  0.00  0.00    +0.000 A 
ATOM     26  C   UNL     1      -5.889  16.266  23.084  0.00  0.00    +0.000 A 
ATOM     27  C   UNL     1      -5.022  16.574  22.048  0.00  0.00    +0.000 A 
ATOM     28  C   UNL     1      -4.252  15.565  21.467  0.00  0.00    +0.000 A 
ATOM     29  C   UNL     1      -4.302  14.227  21.909  0.00  0.00    +0.000 A 
BRANCH  24  31
ATOM     30  C   UNL     1      -4.748  12.412  24.759  0.00  0.00    +0.000 C 
ATOM     31  O   UNL     1      -5.218  12.637  23.438  0.00  0.00    +0.000 OA
ENDBRANCH  24  31
ENDBRANCH   1  29
TORSDOF 4
ENDMDL
MODEL 2
REMARK VINA RESULT:      -7.2      1.259      1.729
REMARK  Name = 
REMARK  6 active torsions:
REMARK  status: ('A' for Active; 'I' for Inactive)
REMARK    1  A    between atoms: C_1  and  O_2
REMARK    2  A    between atoms: O_2  and  C_3
REMARK    3  A    between atoms: C_8  and  N_9
REMARK    4  A    between atoms: N_15  and  C_16
REMARK    5  A    between atoms: C_19  and  N_20
REMARK    6  A    between atoms: C_27  and  C_28
REMARK                            x       y       z     vdW  Elec       q    Type
REMARK                         _______ _______ _______ _____ _____    ______ ____
ROOT
ATOM      1  N   UNL     1      -2.483  13.593  22.069  0.00  0.00    +0.000 N 
ATOM      2  C   UNL     1      -3.185  12.646  21.191  0.00  0.00    +0.000 C 
ATOM      3  C   UNL     1      -2.251  12.255  20.040  0.00  0.00    +0.000 C 
ATOM      4  N   UNL     1      -0.984  11.712  20.548  0.00  0.00    +0.000 N 
ATOM      5  C   UNL     1      -0.562  10.508  20.023  0.00  0.00    +0.000 C 
ATOM      6  O   UNL     1      -1.260   9.922  19.196  0.00  0.00    +0.000 OA
ATOM      7  N   UNL     1       0.636  10.021  20.492  0.00  0.00    +0.000 N 
ATOM      8  C   UNL     1      -0.283  12.621  21.475  0.00  0.00    +0.000 C 
ATOM      9  C   UNL     1      -1.216  13.083  22.623  0.00  0.00    +0.000 C 
ATOM     10  H   UNL     1       0.924  10.340  21.399  0.00  0.00    +0.000 HD
ENDROOT
BRANCH   7  11
ATOM     11  C   UNL     1       1.289   8.861  19.994  0.00  0.00    +0.000 A 
ATOM     12  C   UNL     1       1.325   7.684  20.739  0.00  0.00    +0.000 A 
ATOM     13  C   UNL     1       2.005   6.555  20.279  0.00  0.00    +0.000 A 
ATOM     14  C   UNL     1       2.649   6.537  19.043  0.00  0.00    +0.000 A 
ATOM     15  C   UNL     1       2.582   7.710  18.280  0.00  0.00    +0.000 A 
ATOM     16  C   UNL     1       1.908   8.872  18.730  0.00  0.00    +0.000 A 
ATOM     17  C   UNL     1       1.870  10.070  17.819  0.00  0.00    +0.000 C 
BRANCH  14  18
ATOM     18  N   UNL     1       3.316   5.402  18.637  0.00  0.00    +0.000 N 
ATOM     19  C   UNL     1       2.897   4.041  18.982  0.00  0.00    +0.000 C 
ATOM     20  C   UNL     1       3.944   3.366  19.877  0.00  0.00    +0.000 C 
ATOM     21  O   UNL     1       5.258   3.417  19.294  0.00  0.00    +0.000 OA
ATOM     22  C   UNL     1       5.654   4.783  19.078  0.00  0.00    +0.000 C 
ATOM     23  C   UNL     1       4.692   5.505  18.122  0.00  0.00    +0.000 C 
ENDBRANCH  14  18
ENDBRANCH   7  11
BRANCH   1  29
ATOM     24  C   UNL     1      -3.697  14.697  23.913  0.00  0.00    +0.000 A 
ATOM     25  C   UNL     1      -4.283  15.865  24.431  0.00  0.00    +0.000 A 
ATOM     26  C   UNL     1      -4.306  17.044  23.689  0.00  0.00    +0.000 A 
ATOM     27  C   UNL     1      -3.769  17.062  22.412  0.00  0.00    +0.000 A 
ATOM     28  C   UNL     1      -3.209  15.900  21.881  0.00  0.00    +0.000 A 
ATOM     29  C   UNL     1      -3.144  14.691  22.606  0.00  0.00    +0.000 A 
BRANCH  24  31
ATOM     30  C   UNL     1      -4.712  12.646  24.597  0.00  0.00    +0.000 C 
ATOM     31  O   UNL     1      -3.602  13.532  24.643  0.00  0.00    +0.000 OA
ENDBRANCH  24  31
ENDBRANCH   1  29
TORSDOF 4
ENDMDL
MODEL 3
REMARK VINA RESULT:      -7.1      1.147      1.826
REMARK  Name = 
REMARK  6 active torsions:
REMARK  status: ('A' for Active; 'I' for Inactive)
REMARK    1  A    between atoms: C_1  and  O_2
REMARK    2  A    between atoms: O_2  and  C_3
REMARK    3  A    between atoms: C_8  and  N_9
REMARK    4  A    between atoms: N_15  and  C_16
REMARK    5  A    between atoms: C_19  and  N_20
REMARK    6  A    between atoms: C_27  and  C_28
REMARK                            x       y       z     vdW  Elec       q    Type
REMARK                         _______ _______ _______ _____ _____    ______ ____
ROOT
ATOM      1  N   UNL     1      -3.125  13.683  21.594  0.00  0.00    +0.000 N 
ATOM      2  C   UNL     1      -3.724  12.610  20.788  0.00  0.00    +0.000 C 
ATOM      3  C   UNL     1      -2.806  12.315  19.597  0.00  0.00    +0.000 C 
ATOM      4  N   UNL     1      -1.447  11.983  20.046  0.00  0.00    +0.000 N 
ATOM      5  C   UNL     1      -0.879  10.834  19.535  0.00  0.00    +0.000 C 
ATOM      6  O   UNL     1      -1.527  10.121  18.767  0.00  0.00    +0.000 OA
ATOM      7  N   UNL     1       0.400  10.546  19.947  0.00  0.00    +0.000 N 
ATOM      8  C   UNL     1      -0.840  13.021  20.903  0.00  0.00    +0.000 C 
ATOM      9  C   UNL     1      -1.769  13.385  22.088  0.00  0.00    +0.000 C 
ATOM     10  H   UNL     1       0.685  10.940  20.826  0.00  0.00    +0.000 HD
ENDROOT
BRANCH   7  11
ATOM     11  C   UNL     1       1.191   9.477  19.447  0.00  0.00    +0.000 A 
ATOM     12  C   UNL     1       1.708   9.512  18.153  0.00  0.00    +0.000 A 
ATOM     13  C   UNL     1       2.446   8.446  17.638  0.00  0.00    +0.000 A 
ATOM     14  C   UNL     1       2.730   7.312  18.397  0.00  0.00    +0.000 A 
ATOM     15  C   UNL     1       2.239   7.293  19.709  0.00  0.00    +0.000 A 
ATOM     16  C   UNL     1       1.479   8.359  20.251  0.00  0.00    +0.000 A 
ATOM     17  C   UNL     1       1.023   8.251  21.683  0.00  0.00    +0.000 C 
BRANCH  14  18
ATOM     18  N   UNL     1       3.453   6.280  17.840  0.00  0.00    +0.000 N 
ATOM     19  C   UNL     1       3.404   4.896  18.319  0.00  0.00    +0.000 C 
ATOM     20  C   UNL     1       4.765   4.476  18.890  0.00  0.00    +0.000 C 
ATOM     21  O   UNL     1       5.832   4.708  17.953  0.00  0.00    +0.000 OA
ATOM     22  C   UNL     1       5.894   6.101  17.605  0.00  0.00    +0.000 C 
ATOM     23  C   UNL     1       4.588   6.579  16.950  0.00  0.00    +0.000 C 
ENDBRANCH  14  18
ENDBRANCH   7  11
BRANCH   1  29
ATOM     24  C   UNL     1      -3.980  15.998  21.583  0.00  0.00    +0.000 A 
ATOM     25  C   UNL     1      -4.856  16.954  22.126  0.00  0.00    +0.000 A 
ATOM     26  C   UNL     1      -5.695  16.633  23.191  0.00  0.00    +0.000 A 
ATOM     27  C   UNL     1      -5.648  15.363  23.742  0.00  0.00    +0.000 A 
ATOM     28  C   UNL     1      -4.762  14.416  23.225  0.00  0.00    +0.000 A 
ATOM     29  C   UNL     1      -3.912  14.692  22.134  0.00  0.00    +0.000 A 
BRANCH  24  31
ATOM     30  C   UNL     1      -2.008  17.033  20.718  0.00  0.00    +0.000 C 
ATOM     31  O   UNL     1      -3.181  16.265  20.491  0.00  0.00    +0.000 OA
ENDBRANCH  24  31
ENDBRANCH   1  29
TORSDOF 4
ENDMDL
MODEL 4
REMARK VINA RESULT:      -7.0      2.336      3.240
REMARK  Name = 
REMARK  6 active torsions:
REMARK  status: ('A' for Active; 'I' for Inactive)
REMARK    1  A    between atoms: C_1  and  O_2
REMARK    2  A    between atoms: O_2  and  C_3
REMARK    3  A    between atoms: C_8  and  N_9
REMARK    4  A    between atoms: N_15  and  C_16
REMARK    5  A    between atoms: C_19  and  N_20
REMARK    6  A    between atoms: C_27  and  C_28
REMARK                            x       y       z     vdW  Elec       q    Type
REMARK                         _______ _______ _______ _____ _____    ______ ____
ROOT
ATOM      1  N   UNL     1      -1.262  13.703  20.264  0.00  0.00    +0.000 N 
ATOM      2  C   UNL     1      -1.995  12.742  19.427  0.00  0.00    +0.000 C 
ATOM      3  C   UNL     1      -1.020  12.119  18.421  0.00  0.00    +0.000 C 
ATOM      4  N   UNL     1       0.124  11.502  19.106  0.00  0.00    +0.000 N 
ATOM      5  C   UNL     1       0.441  10.206  18.756  0.00  0.00    +0.000 C 
ATOM      6  O   UNL     1      -0.250   9.609  17.931  0.00  0.00    +0.000 OA
ATOM      7  N   UNL     1       1.527   9.648  19.389  0.00  0.00    +0.000 N 
ATOM      8  C   UNL     1       0.848  12.431  19.996  0.00  0.00    +0.000 C 
ATOM      9  C   UNL     1      -0.118  13.123  20.991  0.00  0.00    +0.000 C 
ATOM     10  H   UNL     1       1.773  10.038  20.281  0.00  0.00    +0.000 HD
ENDROOT
BRANCH   7  11
ATOM     11  C   UNL     1       2.076   8.374  19.084  0.00  0.00    +0.000 A 
ATOM     12  C   UNL     1       2.821   8.175  17.923  0.00  0.00    +0.000 A 
ATOM     13  C   UNL     1       3.325   6.916  17.591  0.00  0.00    +0.000 A 
ATOM     14  C   UNL     1       3.137   5.808  18.415  0.00  0.00    +0.000 A 
ATOM     15  C   UNL     1       2.417   6.017  19.598  0.00  0.00    +0.000 A 
ATOM     16  C   UNL     1       1.888   7.283  19.952  0.00  0.00    +0.000 A 
ATOM     17  C   UNL     1       1.154   7.407  21.261  0.00  0.00    +0.000 C 
BRANCH  14  18
ATOM     18  N   UNL     1       3.644   4.583  18.039  0.00  0.00    +0.000 N 
ATOM     19  C   UNL     1       2.973   3.672  17.109  0.00  0.00    +0.000 C 
ATOM     20  C   UNL     1       2.558   2.380  17.826  0.00  0.00    +0.000 C 
ATOM     21  O   UNL     1       3.666   1.769  18.509  0.00  0.00    +0.000 OA
ATOM     22  C   UNL     1       4.213   2.676  19.482  0.00  0.00    +0.000 C 
ATOM     23  C   UNL     1       4.726   3.966  18.825  0.00  0.00    +0.000 C 
ENDBRANCH  14  18
ENDBRANCH   7  11
BRANCH   1  29
ATOM     24  C   UNL     1      -1.510  16.139  19.957  0.00  0.00    +0.000 A 
ATOM     25  C   UNL     1      -2.177  17.327  20.301  0.00  0.00    +0.000 A 
ATOM     26  C   UNL     1      -3.181  17.331  21.266  0.00  0.00    +0.000 A 
ATOM     27  C   UNL     1      -3.511  16.154  21.917  0.00  0.00    +0.000 A 
ATOM     28  C   UNL     1      -2.836  14.975  21.599  0.00  0.00    +0.000 A 
ATOM     29  C   UNL     1      -1.829  14.922  20.613  0.00  0.00    +0.000 A 
BRANCH  24  31
ATOM     30  C   UNL     1      -0.513  17.174  18.048  0.00  0.00    +0.000 C 
ATOM     31  O   UNL     1      -0.555  16.089  18.964  0.00  0.00    +0.000 OA
ENDBRANCH  24  31
ENDBRANCH   1  29
TORSDOF 4
ENDMDL
MODEL 5
REMARK VINA RESULT:      -7.0      1.841      2.715
REMARK  Name = 
REMARK  6 active torsions:
REMARK  status: ('A' for Active; 'I' for Inactive)
REMARK    1  A    between atoms: C_1  and  O_2
REMARK    2  A    between atoms: O_2  and  C_3
REMARK    3  A    between atoms: C_8  and  N_9
REMARK    4  A    between atoms: N_15  and  C_16
REMARK    5  A    between atoms: C_19  and  N_20
REMARK    6  A    between atoms: C_27  and  C_28
REMARK                            x       y       z     vdW  Elec       q    Type
REMARK                         _______ _______ _______ _____ _____    ______ ____
ROOT
ATOM      1  N   UNL     1      -2.132  12.262  20.379  0.00  0.00    +0.000 N 
ATOM      2  C   UNL     1      -2.329  11.640  19.062  0.00  0.00    +0.000 C 
ATOM      3  C   UNL     1      -0.964  11.474  18.386  0.00  0.00    +0.000 C 
ATOM      4  N   UNL     1      -0.043  10.704  19.233  0.00  0.00    +0.000 N 
ATOM      5  C   UNL     1       0.612   9.642  18.646  0.00  0.00    +0.000 C 
ATOM      6  O   UNL     1       0.383   9.356  17.471  0.00  0.00    +0.000 OA
ATOM      7  N   UNL     1       1.487   8.943  19.445  0.00  0.00    +0.000 N 
ATOM      8  C   UNL     1       0.132  11.277  20.583  0.00  0.00    +0.000 C 
ATOM      9  C   UNL     1      -1.234  11.512  21.275  0.00  0.00    +0.000 C 
ATOM     10  H   UNL     1       1.323   8.991  20.435  0.00  0.00    +0.000 HD
ENDROOT
BRANCH   7  11
ATOM     11  C   UNL     1       2.335   7.896  18.995  0.00  0.00    +0.000 A 
ATOM     12  C   UNL     1       3.179   8.079  17.901  0.00  0.00    +0.000 A 
ATOM     13  C   UNL     1       3.981   7.041  17.422  0.00  0.00    +0.000 A 
ATOM     14  C   UNL     1       4.002   5.787  18.032  0.00  0.00    +0.000 A 
ATOM     15  C   UNL     1       3.179   5.617  19.151  0.00  0.00    +0.000 A 
ATOM     16  C   UNL     1       2.349   6.651  19.650  0.00  0.00    +0.000 A 
ATOM     17  C   UNL     1       1.525   6.372  20.879  0.00  0.00    +0.000 C 
BRANCH  14  18
ATOM     18  N   UNL     1       4.803   4.791  17.516  0.00  0.00    +0.000 N 
ATOM     19  C   UNL     1       6.129   4.455  18.041  0.00  0.00    +0.000 C 
ATOM     20  C   UNL     1       7.214   4.761  16.999  0.00  0.00    +0.000 C 
ATOM     21  O   UNL     1       6.934   4.131  15.736  0.00  0.00    +0.000 OA
ATOM     22  C   UNL     1       5.669   4.584  15.224  0.00  0.00    +0.000 C 
ATOM     23  C   UNL     1       4.517   4.239  16.181  0.00  0.00    +0.000 C 
ENDBRANCH  14  18
ENDBRANCH   7  11
BRANCH   1  29
ATOM     24  C   UNL     1      -2.676  14.622  20.853  0.00  0.00    +0.000 A 
ATOM     25  C   UNL     1      -3.628  15.573  21.258  0.00  0.00    +0.000 A 
ATOM     26  C   UNL     1      -4.915  15.187  21.626  0.00  0.00    +0.000 A 
ATOM     27  C   UNL     1      -5.257  13.844  21.619  0.00  0.00    +0.000 A 
ATOM     28  C   UNL     1      -4.309  12.891  21.243  0.00  0.00    +0.000 A 
ATOM     29  C   UNL     1      -3.002  13.241  20.842  0.00  0.00    +0.000 A 
BRANCH  24  31
ATOM     30  C   UNL     1      -0.459  15.303  21.424  0.00  0.00    +0.000 C 
ATOM     31  O   UNL     1      -1.414  14.976  20.425  0.00  0.00    +0.000 OA
ENDBRANCH  24  31
ENDBRANCH   1  29
TORSDOF 4
ENDMDL
MODEL 6
REMARK VINA RESULT:      -6.9      3.552      4.747
REMARK  Name = 
REMARK  6 active torsions:
REMARK  status: ('A' for Active; 'I' for Inactive)
REMARK    1  A    between atoms: C_1  and  O_2
REMARK    2  A    between atoms: O_2  and  C_3
REMARK    3  A    between atoms: C_8  and  N_9
REMARK    4  A    between atoms: N_15  and  C_16
REMARK    5  A    between atoms: C_19  and  N_20
REMARK    6  A    between atoms: C_27  and  C_28
REMARK                            x       y       z     vdW  Elec       q    Type
REMARK                         _______ _______ _______ _____ _____    ______ ____
ROOT
ATOM      1  N   UNL     1       0.309  14.458  19.248  0.00  0.00    +0.000 N 
ATOM      2  C   UNL     1      -0.861  13.571  19.316  0.00  0.00    +0.000 C 
ATOM      3  C   UNL     1      -0.630  12.377  18.384  0.00  0.00    +0.000 C 
ATOM      4  N   UNL     1       0.618  11.678  18.719  0.00  0.00    +0.000 N 
ATOM      5  C   UNL     1       0.549  10.310  18.881  0.00  0.00    +0.000 C 
ATOM      6  O   UNL     1      -0.536   9.736  18.780  0.00  0.00    +0.000 OA
ATOM      7  N   UNL     1       1.728   9.666  19.174  0.00  0.00    +0.000 N 
ATOM      8  C   UNL     1       1.804  12.557  18.712  0.00  0.00    +0.000 C 
ATOM      9  C   UNL     1       1.584  13.807  19.600  0.00  0.00    +0.000 C 
ATOM     10  H   UNL     1       2.444  10.221  19.606  0.00  0.00    +0.000 HD
ENDROOT
BRANCH   7  11
ATOM     11  C   UNL     1       1.881   8.256  19.264  0.00  0.00    +0.000 A 
ATOM     12  C   UNL     1       2.302   7.510  18.164  0.00  0.00    +0.000 A 
ATOM     13  C   UNL     1       2.410   6.120  18.229  0.00  0.00    +0.000 A 
ATOM     14  C   UNL     1       2.135   5.415  19.400  0.00  0.00    +0.000 A 
ATOM     15  C   UNL     1       1.744   6.170  20.513  0.00  0.00    +0.000 A 
ATOM     16  C   UNL     1       1.618   7.580  20.469  0.00  0.00    +0.000 A 
ATOM     17  C   UNL     1       1.220   8.299  21.731  0.00  0.00    +0.000 C 
BRANCH  14  18
ATOM     18  N   UNL     1       2.245   4.041  19.412  0.00  0.00    +0.000 N 
ATOM     19  C   UNL     1       3.008   3.292  20.413  0.00  0.00    +0.000 C 
ATOM     20  C   UNL     1       4.200   2.581  19.759  0.00  0.00    +0.000 C 
ATOM     21  O   UNL     1       3.792   1.770  18.642  0.00  0.00    +0.000 OA
ATOM     22  C   UNL     1       3.144   2.583  17.649  0.00  0.00    +0.000 C 
ATOM     23  C   UNL     1       1.889   3.268  18.210  0.00  0.00    +0.000 C 
ENDBRANCH  14  18
ENDBRANCH   7  11
BRANCH   1  29
ATOM     24  C   UNL     1       1.028  16.700  18.509  0.00  0.00    +0.000 A 
ATOM     25  C   UNL     1       0.776  18.082  18.457  0.00  0.00    +0.000 A 
ATOM     26  C   UNL     1      -0.345  18.629  19.077  0.00  0.00    +0.000 A 
ATOM     27  C   UNL     1      -1.211  17.806  19.779  0.00  0.00    +0.000 A 
ATOM     28  C   UNL     1      -0.954  16.437  19.857  0.00  0.00    +0.000 A 
ATOM     29  C   UNL     1       0.157  15.839  19.225  0.00  0.00    +0.000 A 
BRANCH  24  31
ATOM     30  C   UNL     1       3.065  16.991  17.294  0.00  0.00    +0.000 C 
ATOM     31  O   UNL     1       2.094  16.119  17.856  0.00  0.00    +0.000 OA
ENDBRANCH  24  31
ENDBRANCH   1  29
TORSDOF 4
ENDMDL
MODEL 7
REMARK VINA RESULT:      -6.9      1.540     10.970
REMARK  Name = 
REMARK  6 active torsions:
REMARK  status: ('A' for Active; 'I' for Inactive)
REMARK    1  A    between atoms: C_1  and  O_2
REMARK    2  A    between atoms: O_2  and  C_3
REMARK    3  A    between atoms: C_8  and  N_9
REMARK    4  A    between atoms: N_15  and  C_16
REMARK    5  A    between atoms: C_19  and  N_20
REMARK    6  A    between atoms: C_27  and  C_28
REMARK                            x       y       z     vdW  Elec       q    Type
REMARK                         _______ _______ _______ _____ _____    ______ ____
ROOT
ATOM      1  N   UNL     1       3.101   7.095  18.237  0.00  0.00    +0.000 N 
ATOM      2  C   UNL     1       2.285   6.766  19.415  0.00  0.00    +0.000 C 
ATOM      3  C   UNL     1       1.968   8.060  20.172  0.00  0.00    +0.000 C 
ATOM      4  N   UNL     1       1.312   9.039  19.296  0.00  0.00    +0.000 N 
ATOM      5  C   UNL     1       0.148   9.618  19.759  0.00  0.00    +0.000 C 
ATOM      6  O   UNL     1      -0.313   9.276  20.848  0.00  0.00    +0.000 OA
ATOM      7  N   UNL     1      -0.444  10.548  18.937  0.00  0.00    +0.000 N 
ATOM      8  C   UNL     1       2.085   9.348  18.076  0.00  0.00    +0.000 C 
ATOM      9  C   UNL     1       2.472   8.057  17.314  0.00  0.00    +0.000 C 
ATOM     10  H   UNL     1      -0.234  10.477  17.958  0.00  0.00    +0.000 HD
ENDROOT
BRANCH   7  11
ATOM     11  C   UNL     1      -1.577  11.331  19.285  0.00  0.00    +0.000 A 
ATOM     12  C   UNL     1      -1.504  12.286  20.298  0.00  0.00    +0.000 A 
ATOM     13  C   UNL     1      -2.624  13.027  20.678  0.00  0.00    +0.000 A 
ATOM     14  C   UNL     1      -3.857  12.873  20.046  0.00  0.00    +0.000 A 
ATOM     15  C   UNL     1      -3.920  11.937  19.006  0.00  0.00    +0.000 A 
ATOM     16  C   UNL     1      -2.800  11.166  18.608  0.00  0.00    +0.000 A 
ATOM     17  C   UNL     1      -2.967  10.209  17.458  0.00  0.00    +0.000 C 
BRANCH  14  18
ATOM     18  N   UNL     1      -4.937  13.620  20.465  0.00  0.00    +0.000 N 
ATOM     19  C   UNL     1      -4.888  15.065  20.701  0.00  0.00    +0.000 C 
ATOM     20  C   UNL     1      -5.117  15.376  22.186  0.00  0.00    +0.000 C 
ATOM     21  O   UNL     1      -6.324  14.768  22.679  0.00  0.00    +0.000 OA
ATOM     22  C   UNL     1      -6.264  13.340  22.516  0.00  0.00    +0.000 C 
ATOM     23  C   UNL     1      -6.115  12.947  21.038  0.00  0.00    +0.000 C 
ENDBRANCH  14  18
ENDBRANCH   7  11
BRANCH   1  29
ATOM     24  C   UNL     1       4.042   4.895  17.629  0.00  0.00    +0.000 A 
ATOM     25  C   UNL     1       5.142   4.148  17.174  0.00  0.00    +0.000 A 
ATOM     26  C   UNL     1       6.366   4.761  16.916  0.00  0.00    +0.000 A 
ATOM     27  C   UNL     1       6.512   6.121  17.134  0.00  0.00    +0.000 A 
ATOM     28  C   UNL     1       5.432   6.866  17.610  0.00  0.00    +0.000 A 
ATOM     29  C   UNL     1       4.170   6.289  17.864  0.00  0.00    +0.000 A 
BRANCH  24  31
ATOM     30  C   UNL     1       2.606   3.004  17.371  0.00  0.00    +0.000 C 
ATOM     31  O   UNL     1       2.801   4.332  17.837  0.00  0.00    +0.000 OA
ENDBRANCH  24  31
ENDBRANCH   1  29
TORSDOF 4
ENDMDL
MODEL 8
REMARK VINA RESULT:      -6.9      1.788     10.997
REMARK  Name = 
REMARK  6 active torsions:
REMARK  status: ('A' for Active; 'I' for Inactive)
REMARK    1  A    between atoms: C_1  and  O_2
REMARK    2  A    between atoms: O_2  and  C_3
REMARK    3  A    between atoms: C_8  and  N_9
REMARK    4  A    between atoms: N_15  and  C_16
REMARK    5  A    between atoms: C_19  and  N_20
REMARK    6  A    between atoms: C_27  and  C_28
REMARK                            x       y       z     vdW  Elec       q    Type
REMARK                         _______ _______ _______ _____ _____    ______ ____
ROOT
ATOM      1  N   UNL     1       3.191   6.902  18.197  0.00  0.00    +0.000 N 
ATOM      2  C   UNL     1       2.374   6.513  19.356  0.00  0.00    +0.000 C 
ATOM      3  C   UNL     1       2.116   7.755  20.216  0.00  0.00    +0.000 C 
ATOM      4  N   UNL     1       1.490   8.825  19.426  0.00  0.00    +0.000 N 
ATOM      5  C   UNL     1       0.355   9.410  19.948  0.00  0.00    +0.000 C 
ATOM      6  O   UNL     1      -0.109   9.002  21.013  0.00  0.00    +0.000 OA
ATOM      7  N   UNL     1      -0.209  10.423  19.209  0.00  0.00    +0.000 N 
ATOM      8  C   UNL     1       2.263   9.199  18.225  0.00  0.00    +0.000 C 
ATOM      9  C   UNL     1       2.592   7.956  17.360  0.00  0.00    +0.000 C 
ATOM     10  H   UNL     1      -0.011  10.421  18.225  0.00  0.00    +0.000 HD
ENDROOT
BRANCH   7  11
ATOM     11  C   UNL     1      -1.307  11.219  19.631  0.00  0.00    +0.000 A 
ATOM     12  C   UNL     1      -1.246  11.953  20.815  0.00  0.00    +0.000 A 
ATOM     13  C   UNL     1      -2.337  12.700  21.262  0.00  0.00    +0.000 A 
ATOM     14  C   UNL     1      -3.524  12.777  20.534  0.00  0.00    +0.000 A 
ATOM     15  C   UNL     1      -3.570  12.068  19.328  0.00  0.00    +0.000 A 
ATOM     16  C   UNL     1      -2.480  11.294  18.858  0.00  0.00    +0.000 A 
ATOM     17  C   UNL     1      -2.623  10.593  17.533  0.00  0.00    +0.000 C 
BRANCH  14  18
ATOM     18  N   UNL     1      -4.577  13.520  21.022  0.00  0.00    +0.000 N 
ATOM     19  C   UNL     1      -5.724  12.945  21.728  0.00  0.00    +0.000 C 
ATOM     20  C   UNL     1      -7.010  13.140  20.913  0.00  0.00    +0.000 C 
ATOM     21  O   UNL     1      -7.208  14.517  20.549  0.00  0.00    +0.000 OA
ATOM     22  C   UNL     1      -6.097  14.990  19.769  0.00  0.00    +0.000 C 
ATOM     23  C   UNL     1      -4.778  14.901  20.552  0.00  0.00    +0.000 C 
ENDBRANCH  14  18
ENDBRANCH   7  11
BRANCH   1  29
ATOM     24  C   UNL     1       4.021   4.752  17.312  0.00  0.00    +0.000 A 
ATOM     25  C   UNL     1       5.092   4.005  16.792  0.00  0.00    +0.000 A 
ATOM     26  C   UNL     1       6.361   4.565  16.666  0.00  0.00    +0.000 A 
ATOM     27  C   UNL     1       6.581   5.868  17.082  0.00  0.00    +0.000 A 
ATOM     28  C   UNL     1       5.528   6.608  17.623  0.00  0.00    +0.000 A 
ATOM     29  C   UNL     1       4.224   6.088  17.748  0.00  0.00    +0.000 A 
BRANCH  24  31
ATOM     30  C   UNL     1       2.603   2.882  17.755  0.00  0.00    +0.000 C 
ATOM     31  O   UNL     1       2.741   4.249  17.394  0.00  0.00    +0.000 OA
ENDBRANCH  24  31
ENDBRANCH   1  29
TORSDOF 4
ENDMDL
MODEL 9
REMARK VINA RESULT:      -6.9      1.583      2.315
REMARK  Name = 
REMARK  6 active torsions:
REMARK  status: ('A' for Active; 'I' for Inactive)
REMARK    1  A    between atoms: C_1  and  O_2
REMARK    2  A    between atoms: O_2  and  C_3
REMARK    3  A    between atoms: C_8  and  N_9
REMARK    4  A    between atoms: N_15  and  C_16
REMARK    5  A    between atoms: C_19  and  N_20
REMARK    6  A    between atoms: C_27  and  C_28
REMARK                            x       y       z     vdW  Elec       q    Type
REMARK                         _______ _______ _______ _____ _____    ______ ____
ROOT
ATOM      1  N   UNL     1      -2.294  13.658  22.437  0.00  0.00    +0.000 N 
ATOM      2  C   UNL     1      -3.063  12.688  21.643  0.00  0.00    +0.000 C 
ATOM      3  C   UNL     1      -2.240  12.296  20.411  0.00  0.00    +0.000 C 
ATOM      4  N   UNL     1      -0.921  11.778  20.799  0.00  0.00    +0.000 N 
ATOM      5  C   UNL     1      -0.533  10.573  20.250  0.00  0.00    +0.000 C 
ATOM      6  O   UNL     1      -1.300   9.967  19.502  0.00  0.00    +0.000 OA
ATOM      7  N   UNL     1       0.712  10.110  20.605  0.00  0.00    +0.000 N 
ATOM      8  C   UNL     1      -0.147  12.710  21.643  0.00  0.00    +0.000 C 
ATOM      9  C   UNL     1      -0.971  13.173  22.870  0.00  0.00    +0.000 C 
ATOM     10  H   UNL     1       1.082  10.446  21.476  0.00  0.00    +0.000 HD
ENDROOT
BRANCH   7  11
ATOM     11  C   UNL     1       1.332   8.954  20.059  0.00  0.00    +0.000 A 
ATOM     12  C   UNL     1       1.369   7.757  20.773  0.00  0.00    +0.000 A 
ATOM     13  C   UNL     1       2.016   6.630  20.265  0.00  0.00    +0.000 A 
ATOM     14  C   UNL     1       2.627   6.634  19.012  0.00  0.00    +0.000 A 
ATOM     15  C   UNL     1       2.559   7.827  18.282  0.00  0.00    +0.000 A 
ATOM     16  C   UNL     1       1.916   8.988  18.780  0.00  0.00    +0.000 A 
ATOM     17  C   UNL     1       1.875  10.210  17.901  0.00  0.00    +0.000 C 
BRANCH  14  18
ATOM     18  N   UNL     1       3.263   5.499  18.558  0.00  0.00    +0.000 N 
ATOM     19  C   UNL     1       2.782   4.138  18.809  0.00  0.00    +0.000 C 
ATOM     20  C   UNL     1       3.776   3.371  19.693  0.00  0.00    +0.000 C 
ATOM     21  O   UNL     1       5.108   3.405  19.152  0.00  0.00    +0.000 OA
ATOM     22  C   UNL     1       5.561   4.764  19.029  0.00  0.00    +0.000 C 
ATOM     23  C   UNL     1       4.657   5.578  18.090  0.00  0.00    +0.000 C 
ENDBRANCH  14  18
ENDBRANCH   7  11
BRANCH   1  29
ATOM     24  C   UNL     1      -3.687  15.690  22.285  0.00  0.00    +0.000 A 
ATOM     25  C   UNL     1      -4.360  16.732  22.945  0.00  0.00    +0.000 A 
ATOM     26  C   UNL     1      -4.312  16.850  24.332  0.00  0.00    +0.000 A 
ATOM     27  C   UNL     1      -3.570  15.945  25.072  0.00  0.00    +0.000 A 
ATOM     28  C   UNL     1      -2.878  14.922  24.422  0.00  0.00    +0.000 A 
ATOM     29  C   UNL     1      -2.917  14.753  23.022  0.00  0.00    +0.000 A 
BRANCH  24  31
ATOM     30  C   UNL     1      -5.054  15.564  20.330  0.00  0.00    +0.000 C 
ATOM     31  O   UNL     1      -3.763  15.509  20.920  0.00  0.00    +0.000 OA
ENDBRANCH  24  31
ENDBRANCH   1  29
TORSDOF 4
ENDMDL
