MODEL 1
REMARK VINA RESULT:      -7.4      0.000      0.000
REMARK  Name = 
REMARK  14 active torsions:
REMARK  status: ('A' for Active; 'I' for Inactive)
REMARK    1  A    between atoms: C_1  and  C_2
REMARK    2  A    between atoms: C_2  and  CA_3
REMARK    3  A    between atoms: CA_3  and  C_4
REMARK    4  A    between atoms: CA_3  and  N_6
REMARK    5  A    between atoms: C_4  and  O_5
REMARK    6  A    between atoms: N_6  and  C_7
REMARK    7  A    between atoms: C_7  and  C_8
REMARK    8  A    between atoms: C_11  and  O_12
REMARK    9  A    between atoms: O_12  and  C_13
REMARK   10  A    between atoms: C_13  and  C_14
REMARK   11  A    between atoms: N_16  and  C_17
REMARK   12  A    between atoms: C_21  and  C_22
REMARK   13  A    between atoms: C_27  and  O_28
REMARK   14  A    between atoms: O_28  and  C_29
REMARK                            x       y       z     vdW  Elec       q    Type
REMARK                         _______ _______ _______ _____ _____    ______ ____
ROOT
ATOM      1  C   UNL     1       3.143   4.964  17.773  0.00  0.00    +0.000 A 
ATOM      2  C   UNL     1       3.655   5.813  18.758  0.00  0.00    +0.000 A 
ATOM      3  C   UNL     1       4.999   6.176  18.736  0.00  0.00    +0.000 A 
ATOM      4  C   UNL     1       5.842   5.738  17.704  0.00  0.00    +0.000 A 
ATOM      5  C   UNL     1       5.350   4.857  16.726  0.00  0.00    +0.000 A 
ATOM      6  C   UNL     1       4.000   4.481  16.773  0.00  0.00    +0.000 A 
ENDROOT
BRANCH   5   7
ATOM      7  O   UNL     1       6.230   4.430  15.763  0.00  0.00    +0.000 OA
ATOM      8  C   UNL     1       5.790   4.523  14.412  0.00  0.00    +0.000 C 
ENDBRANCH   5   7
BRANCH   1   9
ATOM      9  C   UNL     1       1.697   4.545  17.781  0.00  0.00    +0.000 C 
BRANCH   9  10
ATOM     10  N   UNL     1       1.509   3.095  17.640  0.00  0.00    +0.000 NA
ATOM     11  H   UNL     1       0.752   2.942  16.974  0.00  0.00    +0.000 HD
BRANCH  10  12
ATOM     12  CA  UNL     1       1.173   2.399  18.912  0.00  0.00    +0.000 C 
BRANCH  12  14
ATOM     13  C   UNL     1       3.502   1.432  18.447  0.00  0.00    +0.000 C 
ATOM     14  C   UNL     1       2.330   1.516  19.413  0.00  0.00    +0.000 C 
ENDBRANCH  12  14
BRANCH  12  15
ATOM     15  C   UNL     1       0.785   3.477  19.953  0.00  0.00    +0.000 C 
BRANCH  15  16
ATOM     16  O   UNL     1       0.868   2.949  21.277  0.00  0.00    +0.000 OA
ATOM     17  H   UNL     1       1.792   3.105  21.554  0.00  0.00    +0.000 HD
ENDBRANCH  15  16
ENDBRANCH  12  15
ENDBRANCH  10  12
ENDBRANCH   9  10
ENDBRANCH   1   9
BRANCH   4  18
ATOM     18  O   UNL     1       7.159   6.133  17.613  0.00  0.00    +0.000 OA
BRANCH  18  19
ATOM     19  C   UNL     1       7.320   7.492  17.221  0.00  0.00    +0.000 C 
BRANCH  19  20
ATOM     20  C   UNL     1       8.216   8.262  18.176  0.00  0.00    +0.000 C 
ATOM     21  O   UNL     1       8.809   7.670  19.074  0.00  0.00    +0.000 OA
ATOM     22  N   UNL     1       8.313   9.611  17.873  0.00  0.00    +0.000 N 
ATOM     23  H   UNL     1       7.628   9.969  17.217  0.00  0.00    +0.000 HD
BRANCH  22  24
ATOM     24  C   UNL     1       9.138  10.544  18.535  0.00  0.00    +0.000 A 
ATOM     25  C   UNL     1       9.379  10.507  19.911  0.00  0.00    +0.000 A 
ATOM     26  C   UNL     1      10.163  11.480  20.529  0.00  0.00    +0.000 A 
ATOM     27  C   UNL     1      10.725  12.501  19.770  0.00  0.00    +0.000 A 
ATOM     28  C   UNL     1      10.522  12.549  18.386  0.00  0.00    +0.000 A 
ATOM     29  C   UNL     1       9.738  11.553  17.773  0.00  0.00    +0.000 A 
BRANCH  28  30
ATOM     30  C   UNL     1      11.116  13.661  17.560  0.00  0.00    +0.000 C 
ATOM     31  F   UNL     1      12.329  14.088  18.011  0.00  0.00    +0.000 F 
ATOM     32  F   UNL     1      11.307  13.301  16.261  0.00  0.00    +0.000 F 
ATOM     33  F   UNL     1      10.322  14.767  17.529  0.00  0.00    +0.000 F 
ENDBRANCH  28  30
ENDBRANCH  22  24
ENDBRANCH  19  20
ENDBRANCH  18  19
ENDBRANCH   4  18
TORSDOF 12
ENDMDL
MODEL 2
REMARK VINA RESULT:      -7.4      6.575      9.386
REMARK  Name = 
REMARK  14 active torsions:
REMARK  status: ('A' for Active; 'I' for Inactive)
REMARK    1  A    between atoms: C_1  and  C_2
REMARK    2  A    between atoms: C_2  and  CA_3
REMARK    3  A    between atoms: CA_3  and  C_4
REMARK    4  A    between atoms: CA_3  and  N_6
REMARK    5  A    between atoms: C_4  and  O_5
REMARK    6  A    between atoms: N_6  and  C_7
REMARK    7  A    between atoms: C_7  and  C_8
REMARK    8  A    between atoms: C_11  and  O_12
REMARK    9  A    between atoms: O_12  and  C_13
REMARK   10  A    between atoms: C_13  and  C_14
REMARK   11  A    between atoms: N_16  and  C_17
REMARK   12  A    between atoms: C_21  and  C_22
REMARK   13  A    between atoms: C_27  and  O_28
REMARK   14  A    between atoms: O_28  and  C_29
REMARK                            x       y       z     vdW  Elec       q    Type
REMARK                         _______ _______ _______ _____ _____    ______ ____
ROOT
ATOM      1  C   UNL     1       3.445   4.779  17.935  0.00  0.00    +0.000 A 
ATOM      2  C   UNL     1       3.050   6.113  17.794  0.00  0.00    +0.000 A 
ATOM      3  C   UNL     1       2.388   6.757  18.835  0.00  0.00    +0.000 A 
ATOM      4  C   UNL     1       2.153   6.099  20.052  0.00  0.00    +0.000 A 
ATOM      5  C   UNL     1       2.514   4.748  20.196  0.00  0.00    +0.000 A 
ATOM      6  C   UNL     1       3.160   4.104  19.131  0.00  0.00    +0.000 A 
ENDROOT
BRANCH   5   7
ATOM      7  O   UNL     1       2.225   4.144  21.394  0.00  0.00    +0.000 OA
ATOM      8  C   UNL     1       1.493   2.924  21.332  0.00  0.00    +0.000 C 
ENDBRANCH   5   7
BRANCH   1   9
ATOM      9  C   UNL     1       4.151   4.054  16.820  0.00  0.00    +0.000 C 
BRANCH   9  10
ATOM     10  N   UNL     1       5.077   4.907  16.064  0.00  0.00    +0.000 NA
ATOM     11  H   UNL     1       4.588   5.238  15.233  0.00  0.00    +0.000 HD
BRANCH  10  12
ATOM     12  CA  UNL     1       6.328   4.220  15.641  0.00  0.00    +0.000 C 
BRANCH  12  14
ATOM     13  C   UNL     1       5.841   3.603  13.201  0.00  0.00    +0.000 C 
ATOM     14  C   UNL     1       6.650   4.466  14.157  0.00  0.00    +0.000 C 
ENDBRANCH  12  14
BRANCH  12  15
ATOM     15  C   UNL     1       7.470   4.710  16.563  0.00  0.00    +0.000 C 
BRANCH  15  16
ATOM     16  O   UNL     1       7.595   6.131  16.495  0.00  0.00    +0.000 OA
ATOM     17  H   UNL     1       7.157   6.462  17.304  0.00  0.00    +0.000 HD
ENDBRANCH  15  16
ENDBRANCH  12  15
ENDBRANCH  10  12
ENDBRANCH   9  10
ENDBRANCH   1   9
BRANCH   4  18
ATOM     18  O   UNL     1       1.563   6.727  21.127  0.00  0.00    +0.000 OA
BRANCH  18  19
ATOM     19  C   UNL     1       1.640   8.147  21.068  0.00  0.00    +0.000 C 
BRANCH  19  20
ATOM     20  C   UNL     1       0.272   8.790  20.909  0.00  0.00    +0.000 C 
ATOM     21  O   UNL     1      -0.650   8.464  21.652  0.00  0.00    +0.000 OA
ATOM     22  N   UNL     1       0.234   9.767  19.927  0.00  0.00    +0.000 N 
ATOM     23  H   UNL     1       1.024   9.789  19.292  0.00  0.00    +0.000 HD
BRANCH  22  24
ATOM     24  C   UNL     1      -0.876  10.583  19.623  0.00  0.00    +0.000 A 
ATOM     25  C   UNL     1      -1.270  11.661  20.420  0.00  0.00    +0.000 A 
ATOM     26  C   UNL     1      -2.403  12.410  20.106  0.00  0.00    +0.000 A 
ATOM     27  C   UNL     1      -3.153  12.090  18.979  0.00  0.00    +0.000 A 
ATOM     28  C   UNL     1      -2.769  11.031  18.149  0.00  0.00    +0.000 A 
ATOM     29  C   UNL     1      -1.615  10.291  18.471  0.00  0.00    +0.000 A 
BRANCH  28  30
ATOM     30  C   UNL     1      -3.586  10.670  16.934  0.00  0.00    +0.000 C 
ATOM     31  F   UNL     1      -4.930  10.710  17.150  0.00  0.00    +0.000 F 
ATOM     32  F   UNL     1      -3.352  11.503  15.883  0.00  0.00    +0.000 F 
ATOM     33  F   UNL     1      -3.320   9.413  16.483  0.00  0.00    +0.000 F 
ENDBRANCH  28  30
ENDBRANCH  22  24
ENDBRANCH  19  20
ENDBRANCH  18  19
ENDBRANCH   4  18
TORSDOF 12
ENDMDL
MODEL 3
REMARK VINA RESULT:      -7.2      5.155      8.104
REMARK  Name = 
REMARK  14 active torsions:
REMARK  status: ('A' for Active; 'I' for Inactive)
REMARK    1  A    between atoms: C_1  and  C_2
REMARK    2  A    between atoms: C_2  and  CA_3
REMARK    3  A    between atoms: CA_3  and  C_4
REMARK    4  A    between atoms: CA_3  and  N_6
REMARK    5  A    between atoms: C_4  and  O_5
REMARK    6  A    between atoms: N_6  and  C_7
REMARK    7  A    between atoms: C_7  and  C_8
REMARK    8  A    between atoms: C_11  and  O_12
REMARK    9  A    between atoms: O_12  and  C_13
REMARK   10  A    between atoms: C_13  and  C_14
REMARK   11  A    between atoms: N_16  and  C_17
REMARK   12  A    between atoms: C_21  and  C_22
REMARK   13  A    between atoms: C_27  and  O_28
REMARK   14  A    between atoms: O_28  and  C_29
REMARK                            x       y       z     vdW  Elec       q    Type
REMARK                         _______ _______ _______ _____ _____    ______ ____
ROOT
ATOM      1  C   UNL     1       5.625   4.792  15.084  0.00  0.00    +0.000 A 
ATOM      2  C   UNL     1       4.841   3.888  15.807  0.00  0.00    +0.000 A 
ATOM      3  C   UNL     1       4.524   4.147  17.137  0.00  0.00    +0.000 A 
ATOM      4  C   UNL     1       4.941   5.336  17.755  0.00  0.00    +0.000 A 
ATOM      5  C   UNL     1       5.758   6.239  17.051  0.00  0.00    +0.000 A 
ATOM      6  C   UNL     1       6.088   5.954  15.719  0.00  0.00    +0.000 A 
ENDROOT
BRANCH   5   7
ATOM      7  O   UNL     1       6.168   7.367  17.718  0.00  0.00    +0.000 OA
ATOM      8  C   UNL     1       7.541   7.720  17.586  0.00  0.00    +0.000 C 
ENDBRANCH   5   7
BRANCH   1   9
ATOM      9  C   UNL     1       5.994   4.529  13.649  0.00  0.00    +0.000 C 
BRANCH   9  10
ATOM     10  N   UNL     1       6.284   3.117  13.371  0.00  0.00    +0.000 NA
ATOM     11  H   UNL     1       7.280   3.037  13.166  0.00  0.00    +0.000 HD
BRANCH  10  12
ATOM     12  CA  UNL     1       5.515   2.552  12.228  0.00  0.00    +0.000 C 
BRANCH  12  14
ATOM     13  C   UNL     1       3.464   3.121  10.799  0.00  0.00    +0.000 C 
ATOM     14  C   UNL     1       4.732   3.634  11.464  0.00  0.00    +0.000 C 
ENDBRANCH  12  14
BRANCH  12  15
ATOM     15  C   UNL     1       6.514   1.811  11.307  0.00  0.00    +0.000 C 
BRANCH  15  16
ATOM     16  O   UNL     1       6.178   0.427  11.213  0.00  0.00    +0.000 OA
ATOM     17  H   UNL     1       5.225   0.382  11.429  0.00  0.00    +0.000 HD
ENDBRANCH  15  16
ENDBRANCH  12  15
ENDBRANCH  10  12
ENDBRANCH   9  10
ENDBRANCH   1   9
BRANCH   4  18
ATOM     18  O   UNL     1       4.587   5.658  19.047  0.00  0.00    +0.000 OA
BRANCH  18  19
ATOM     19  C   UNL     1       3.526   4.861  19.562  0.00  0.00    +0.000 C 
BRANCH  19  20
ATOM     20  C   UNL     1       2.366   5.704  20.062  0.00  0.00    +0.000 C 
ATOM     21  O   UNL     1       1.400   5.165  20.597  0.00  0.00    +0.000 OA
ATOM     22  N   UNL     1       2.565   7.066  19.901  0.00  0.00    +0.000 N 
ATOM     23  H   UNL     1       3.327   7.333  19.287  0.00  0.00    +0.000 HD
BRANCH  22  24
ATOM     24  C   UNL     1       1.696   8.082  20.351  0.00  0.00    +0.000 A 
ATOM     25  C   UNL     1       1.421   8.307  21.703  0.00  0.00    +0.000 A 
ATOM     26  C   UNL     1       0.518   9.292  22.097  0.00  0.00    +0.000 A 
ATOM     27  C   UNL     1      -0.117  10.073  21.137  0.00  0.00    +0.000 A 
ATOM     28  C   UNL     1       0.158   9.889  19.777  0.00  0.00    +0.000 A 
ATOM     29  C   UNL     1       1.082   8.898  19.393  0.00  0.00    +0.000 A 
BRANCH  28  30
ATOM     30  C   UNL     1      -0.537  10.723  18.732  0.00  0.00    +0.000 C 
ATOM     31  F   UNL     1       0.149  11.848  18.387  0.00  0.00    +0.000 F 
ATOM     32  F   UNL     1      -0.740  10.040  17.572  0.00  0.00    +0.000 F 
ATOM     33  F   UNL     1      -1.766  11.147  19.138  0.00  0.00    +0.000 F 
ENDBRANCH  28  30
ENDBRANCH  22  24
ENDBRANCH  19  20
ENDBRANCH  18  19
ENDBRANCH   4  18
TORSDOF 12
ENDMDL
MODEL 4
REMARK VINA RESULT:      -7.2      6.267      8.979
REMARK  Name = 
REMARK  14 active torsions:
REMARK  status: ('A' for Active; 'I' for Inactive)
REMARK    1  A    between atoms: C_1  and  C_2
REMARK    2  A    between atoms: C_2  and  CA_3
REMARK    3  A    between atoms: CA_3  and  C_4
REMARK    4  A    between atoms: CA_3  and  N_6
REMARK    5  A    between atoms: C_4  and  O_5
REMARK    6  A    between atoms: N_6  and  C_7
REMARK    7  A    between atoms: C_7  and  C_8
REMARK    8  A    between atoms: C_11  and  O_12
REMARK    9  A    between atoms: O_12  and  C_13
REMARK   10  A    between atoms: C_13  and  C_14
REMARK   11  A    between atoms: N_16  and  C_17
REMARK   12  A    between atoms: C_21  and  C_22
REMARK   13  A    between atoms: C_27  and  O_28
REMARK   14  A    between atoms: O_28  and  C_29
REMARK                            x       y       z     vdW  Elec       q    Type
REMARK                         _______ _______ _______ _____ _____    ______ ____
ROOT
ATOM      1  C   UNL     1       3.536   4.601  17.862  0.00  0.00    +0.000 A 
ATOM      2  C   UNL     1       3.558   5.996  17.943  0.00  0.00    +0.000 A 
ATOM      3  C   UNL     1       2.823   6.649  18.928  0.00  0.00    +0.000 A 
ATOM      4  C   UNL     1       2.093   5.921  19.879  0.00  0.00    +0.000 A 
ATOM      5  C   UNL     1       2.034   4.519  19.791  0.00  0.00    +0.000 A 
ATOM      6  C   UNL     1       2.761   3.875  18.780  0.00  0.00    +0.000 A 
ENDROOT
BRANCH   5   7
ATOM      7  O   UNL     1       1.274   3.861  20.725  0.00  0.00    +0.000 OA
ATOM      8  C   UNL     1       1.938   2.868  21.502  0.00  0.00    +0.000 C 
ENDBRANCH   5   7
BRANCH   1   9
ATOM      9  C   UNL     1       4.310   3.870  16.799  0.00  0.00    +0.000 C 
BRANCH   9  10
ATOM     10  N   UNL     1       5.749   3.787  17.078  0.00  0.00    +0.000 NA
ATOM     11  H   UNL     1       5.874   3.202  17.904  0.00  0.00    +0.000 HD
BRANCH  10  12
ATOM     12  CA  UNL     1       6.397   5.104  17.324  0.00  0.00    +0.000 C 
BRANCH  12  14
ATOM     13  C   UNL     1       7.955   6.298  18.974  0.00  0.00    +0.000 C 
ATOM     14  C   UNL     1       7.594   4.991  18.285  0.00  0.00    +0.000 C 
ENDBRANCH  12  14
BRANCH  12  15
ATOM     15  C   UNL     1       6.817   5.688  15.954  0.00  0.00    +0.000 C 
BRANCH  15  16
ATOM     16  O   UNL     1       7.565   4.728  15.207  0.00  0.00    +0.000 OA
ATOM     17  H   UNL     1       8.314   4.485  15.786  0.00  0.00    +0.000 HD
ENDBRANCH  15  16
ENDBRANCH  12  15
ENDBRANCH  10  12
ENDBRANCH   9  10
ENDBRANCH   1   9
BRANCH   4  18
ATOM     18  O   UNL     1       1.411   6.532  20.909  0.00  0.00    +0.000 OA
BRANCH  18  19
ATOM     19  C   UNL     1       1.787   7.889  21.114  0.00  0.00    +0.000 C 
BRANCH  19  20
ATOM     20  C   UNL     1       0.651   8.850  20.809  0.00  0.00    +0.000 C 
ATOM     21  O   UNL     1      -0.169   9.130  21.680  0.00  0.00    +0.000 OA
ATOM     22  N   UNL     1       0.705   9.377  19.529  0.00  0.00    +0.000 N 
ATOM     23  H   UNL     1       1.335   8.913  18.884  0.00  0.00    +0.000 HD
BRANCH  22  24
ATOM     24  C   UNL     1      -0.167  10.355  19.005  0.00  0.00    +0.000 A 
ATOM     25  C   UNL     1      -0.231  11.662  19.497  0.00  0.00    +0.000 A 
ATOM     26  C   UNL     1      -1.143  12.580  18.981  0.00  0.00    +0.000 A 
ATOM     27  C   UNL     1      -2.000  12.200  17.953  0.00  0.00    +0.000 A 
ATOM     28  C   UNL     1      -1.941  10.907  17.422  0.00  0.00    +0.000 A 
ATOM     29  C   UNL     1      -1.007   9.992  17.946  0.00  0.00    +0.000 A 
BRANCH  28  30
ATOM     30  C   UNL     1      -2.877  10.485  16.319  0.00  0.00    +0.000 C 
ATOM     31  F   UNL     1      -4.180  10.403  16.709  0.00  0.00    +0.000 F 
ATOM     32  F   UNL     1      -2.858  11.344  15.263  0.00  0.00    +0.000 F 
ATOM     33  F   UNL     1      -2.565   9.260  15.811  0.00  0.00    +0.000 F 
ENDBRANCH  28  30
ENDBRANCH  22  24
ENDBRANCH  19  20
ENDBRANCH  18  19
ENDBRANCH   4  18
TORSDOF 12
ENDMDL
MODEL 5
REMARK VINA RESULT:      -7.2      8.617     10.881
REMARK  Name = 
REMARK  14 active torsions:
REMARK  status: ('A' for Active; 'I' for Inactive)
REMARK    1  A    between atoms: C_1  and  C_2
REMARK    2  A    between atoms: C_2  and  CA_3
REMARK    3  A    between atoms: CA_3  and  C_4
REMARK    4  A    between atoms: CA_3  and  N_6
REMARK    5  A    between atoms: C_4  and  O_5
REMARK    6  A    between atoms: N_6  and  C_7
REMARK    7  A    between atoms: C_7  and  C_8
REMARK    8  A    between atoms: C_11  and  O_12
REMARK    9  A    between atoms: O_12  and  C_13
REMARK   10  A    between atoms: C_13  and  C_14
REMARK   11  A    between atoms: N_16  and  C_17
REMARK   12  A    between atoms: C_21  and  C_22
REMARK   13  A    between atoms: C_27  and  O_28
REMARK   14  A    between atoms: O_28  and  C_29
REMARK                            x       y       z     vdW  Elec       q    Type
REMARK                         _______ _______ _______ _____ _____    ______ ____
ROOT
ATOM      1  C   UNL     1      -3.158  10.876  17.785  0.00  0.00    +0.000 A 
ATOM      2  C   UNL     1      -2.378   9.940  17.099  0.00  0.00    +0.000 A 
ATOM      3  C   UNL     1      -1.035   9.777  17.426  0.00  0.00    +0.000 A 
ATOM      4  C   UNL     1      -0.460  10.508  18.476  0.00  0.00    +0.000 A 
ATOM      5  C   UNL     1      -1.222  11.476  19.154  0.00  0.00    +0.000 A 
ATOM      6  C   UNL     1      -2.567  11.646  18.798  0.00  0.00    +0.000 A 
ENDROOT
BRANCH   5   7
ATOM      7  O   UNL     1      -0.596  12.188  20.146  0.00  0.00    +0.000 OA
ATOM      8  C   UNL     1      -0.680  13.607  20.062  0.00  0.00    +0.000 C 
ENDBRANCH   5   7
BRANCH   1   9
ATOM      9  C   UNL     1      -4.609  11.082  17.443  0.00  0.00    +0.000 C 
BRANCH   9  10
ATOM     10  N   UNL     1      -5.090  12.438  17.734  0.00  0.00    +0.000 NA
ATOM     11  H   UNL     1      -4.329  12.950  18.181  0.00  0.00    +0.000 HD
BRANCH  10  12
ATOM     12  CA  UNL     1      -6.283  12.483  18.623  0.00  0.00    +0.000 C 
BRANCH  12  14
ATOM     13  C   UNL     1      -7.432  10.842  20.223  0.00  0.00    +0.000 C 
ATOM     14  C   UNL     1      -6.915  11.093  18.815  0.00  0.00    +0.000 C 
ENDBRANCH  12  14
BRANCH  12  15
ATOM     15  C   UNL     1      -5.844  13.102  19.971  0.00  0.00    +0.000 C 
BRANCH  15  16
ATOM     16  O   UNL     1      -4.869  14.124  19.760  0.00  0.00    +0.000 OA
ATOM     17  H   UNL     1      -4.930  14.339  18.809  0.00  0.00    +0.000 HD
ENDBRANCH  15  16
ENDBRANCH  12  15
ENDBRANCH  10  12
ENDBRANCH   9  10
ENDBRANCH   1   9
BRANCH   4  18
ATOM     18  O   UNL     1       0.847  10.322  18.873  0.00  0.00    +0.000 OA
BRANCH  18  19
ATOM     19  C   UNL     1       1.546   9.358  18.094  0.00  0.00    +0.000 C 
BRANCH  19  20
ATOM     20  C   UNL     1       2.003   8.172  18.925  0.00  0.00    +0.000 C 
ATOM     21  O   UNL     1       1.783   8.147  20.133  0.00  0.00    +0.000 OA
ATOM     22  N   UNL     1       2.598   7.170  18.175  0.00  0.00    +0.000 N 
ATOM     23  H   UNL     1       2.861   7.421  17.228  0.00  0.00    +0.000 HD
BRANCH  22  24
ATOM     24  C   UNL     1       3.037   5.924  18.670  0.00  0.00    +0.000 A 
ATOM     25  C   UNL     1       4.387   5.579  18.776  0.00  0.00    +0.000 A 
ATOM     26  C   UNL     1       4.772   4.317  19.225  0.00  0.00    +0.000 A 
ATOM     27  C   UNL     1       3.804   3.385  19.583  0.00  0.00    +0.000 A 
ATOM     28  C   UNL     1       2.445   3.710  19.511  0.00  0.00    +0.000 A 
ATOM     29  C   UNL     1       2.070   4.993  19.067  0.00  0.00    +0.000 A 
BRANCH  28  30
ATOM     30  C   UNL     1       1.391   2.700  19.883  0.00  0.00    +0.000 C 
ATOM     31  F   UNL     1       0.167   2.962  19.344  0.00  0.00    +0.000 F 
ATOM     32  F   UNL     1       1.712   1.439  19.481  0.00  0.00    +0.000 F 
ATOM     33  F   UNL     1       1.194   2.625  21.229  0.00  0.00    +0.000 F 
ENDBRANCH  28  30
ENDBRANCH  22  24
ENDBRANCH  19  20
ENDBRANCH  18  19
ENDBRANCH   4  18
TORSDOF 12
ENDMDL
MODEL 6
REMARK VINA RESULT:      -7.0      6.365      9.039
REMARK  Name = 
REMARK  14 active torsions:
REMARK  status: ('A' for Active; 'I' for Inactive)
REMARK    1  A    between atoms: C_1  and  C_2
REMARK    2  A    between atoms: C_2  and  CA_3
REMARK    3  A    between atoms: CA_3  and  C_4
REMARK    4  A    between atoms: CA_3  and  N_6
REMARK    5  A    between atoms: C_4  and  O_5
REMARK    6  A    between atoms: N_6  and  C_7
REMARK    7  A    between atoms: C_7  and  C_8
REMARK    8  A    between atoms: C_11  and  O_12
REMARK    9  A    between atoms: O_12  and  C_13
REMARK   10  A    between atoms: C_13  and  C_14
REMARK   11  A    between atoms: N_16  and  C_17
REMARK   12  A    between atoms: C_21  and  C_22
REMARK   13  A    between atoms: C_27  and  O_28
REMARK   14  A    between atoms: O_28  and  C_29
REMARK                            x       y       z     vdW  Elec       q    Type
REMARK                         _______ _______ _______ _____ _____    ______ ____
ROOT
ATOM      1  C   UNL     1      -0.598  11.148  18.798  0.00  0.00    +0.000 A 
ATOM      2  C   UNL     1       0.100  10.202  18.041  0.00  0.00    +0.000 A 
ATOM      3  C   UNL     1       0.962   9.306  18.667  0.00  0.00    +0.000 A 
ATOM      4  C   UNL     1       1.104   9.305  20.063  0.00  0.00    +0.000 A 
ATOM      5  C   UNL     1       0.435  10.271  20.834  0.00  0.00    +0.000 A 
ATOM      6  C   UNL     1      -0.412  11.182  20.188  0.00  0.00    +0.000 A 
ENDROOT
BRANCH   5   7
ATOM      7  O   UNL     1       0.643  10.247  22.191  0.00  0.00    +0.000 OA
ATOM      8  C   UNL     1      -0.518  10.148  23.011  0.00  0.00    +0.000 C 
ENDBRANCH   5   7
BRANCH   1   9
ATOM      9  C   UNL     1      -1.525  12.137  18.146  0.00  0.00    +0.000 C 
BRANCH   9  10
ATOM     10  N   UNL     1      -2.918  12.014  18.594  0.00  0.00    +0.000 NA
ATOM     11  H   UNL     1      -2.909  11.628  19.538  0.00  0.00    +0.000 HD
BRANCH  10  12
ATOM     12  CA  UNL     1      -3.760  11.143  17.729  0.00  0.00    +0.000 C 
BRANCH  12  14
ATOM     13  C   UNL     1      -6.220  10.740  18.331  0.00  0.00    +0.000 C 
ATOM     14  C   UNL     1      -5.212  11.645  17.639  0.00  0.00    +0.000 C 
ENDBRANCH  12  14
BRANCH  12  15
ATOM     15  C   UNL     1      -3.092  11.073  16.336  0.00  0.00    +0.000 C 
BRANCH  15  16
ATOM     16  O   UNL     1      -2.878   9.715  15.950  0.00  0.00    +0.000 OA
ATOM     17  H   UNL     1      -2.252   9.360  16.610  0.00  0.00    +0.000 HD
ENDBRANCH  15  16
ENDBRANCH  12  15
ENDBRANCH  10  12
ENDBRANCH   9  10
ENDBRANCH   1   9
BRANCH   4  18
ATOM     18  O   UNL     1       1.894   8.387  20.721  0.00  0.00    +0.000 OA
BRANCH  18  19
ATOM     19  C   UNL     1       1.249   7.140  20.949  0.00  0.00    +0.000 C 
BRANCH  19  20
ATOM     20  C   UNL     1       1.947   5.994  20.237  0.00  0.00    +0.000 C 
ATOM     21  O   UNL     1       1.674   4.832  20.528  0.00  0.00    +0.000 OA
ATOM     22  N   UNL     1       2.818   6.412  19.244  0.00  0.00    +0.000 N 
ATOM     23  H   UNL     1       3.060   7.397  19.251  0.00  0.00    +0.000 HD
BRANCH  22  24
ATOM     24  C   UNL     1       3.533   5.567  18.369  0.00  0.00    +0.000 A 
ATOM     25  C   UNL     1       2.948   4.481  17.711  0.00  0.00    +0.000 A 
ATOM     26  C   UNL     1       3.706   3.645  16.893  0.00  0.00    +0.000 A 
ATOM     27  C   UNL     1       5.063   3.893  16.718  0.00  0.00    +0.000 A 
ATOM     28  C   UNL     1       5.671   4.987  17.344  0.00  0.00    +0.000 A 
ATOM     29  C   UNL     1       4.891   5.831  18.158  0.00  0.00    +0.000 A 
BRANCH  28  30
ATOM     30  C   UNL     1       7.144   5.253  17.170  0.00  0.00    +0.000 C 
ATOM     31  F   UNL     1       7.936   4.218  17.567  0.00  0.00    +0.000 F 
ATOM     32  F   UNL     1       7.479   5.502  15.873  0.00  0.00    +0.000 F 
ATOM     33  F   UNL     1       7.565   6.336  17.880  0.00  0.00    +0.000 F 
ENDBRANCH  28  30
ENDBRANCH  22  24
ENDBRANCH  19  20
ENDBRANCH  18  19
ENDBRANCH   4  18
TORSDOF 12
ENDMDL
MODEL 7
REMARK VINA RESULT:      -7.0      8.728     11.270
REMARK  Name = 
REMARK  14 active torsions:
REMARK  status: ('A' for Active; 'I' for Inactive)
REMARK    1  A    between atoms: C_1  and  C_2
REMARK    2  A    between atoms: C_2  and  CA_3
REMARK    3  A    between atoms: CA_3  and  C_4
REMARK    4  A    between atoms: CA_3  and  N_6
REMARK    5  A    between atoms: C_4  and  O_5
REMARK    6  A    between atoms: N_6  and  C_7
REMARK    7  A    between atoms: C_7  and  C_8
REMARK    8  A    between atoms: C_11  and  O_12
REMARK    9  A    between atoms: O_12  and  C_13
REMARK   10  A    between atoms: C_13  and  C_14
REMARK   11  A    between atoms: N_16  and  C_17
REMARK   12  A    between atoms: C_21  and  C_22
REMARK   13  A    between atoms: C_27  and  O_28
REMARK   14  A    between atoms: O_28  and  C_29
REMARK                            x       y       z     vdW  Elec       q    Type
REMARK                         _______ _______ _______ _____ _____    ______ ____
ROOT
ATOM      1  C   UNL     1       2.405   7.422  18.722  0.00  0.00    +0.000 A 
ATOM      2  C   UNL     1       2.166   8.370  17.723  0.00  0.00    +0.000 A 
ATOM      3  C   UNL     1       1.455   9.530  18.018  0.00  0.00    +0.000 A 
ATOM      4  C   UNL     1       1.015   9.788  19.325  0.00  0.00    +0.000 A 
ATOM      5  C   UNL     1       1.220   8.829  20.332  0.00  0.00    +0.000 A 
ATOM      6  C   UNL     1       1.916   7.655  20.016  0.00  0.00    +0.000 A 
ENDROOT
BRANCH   5   7
ATOM      7  O   UNL     1       0.734   9.118  21.584  0.00  0.00    +0.000 OA
ATOM      8  C   UNL     1      -0.508   8.518  21.939  0.00  0.00    +0.000 C 
ENDBRANCH   5   7
BRANCH   1   9
ATOM      9  C   UNL     1       3.159   6.153  18.427  0.00  0.00    +0.000 C 
BRANCH   9  10
ATOM     10  N   UNL     1       2.303   5.070  17.924  0.00  0.00    +0.000 NA
ATOM     11  H   UNL     1       1.345   5.419  17.891  0.00  0.00    +0.000 HD
BRANCH  10  12
ATOM     12  CA  UNL     1       2.334   3.835  18.753  0.00  0.00    +0.000 C 
BRANCH  12  14
ATOM     13  C   UNL     1       1.442   3.308  21.099  0.00  0.00    +0.000 C 
ATOM     14  C   UNL     1       1.106   3.726  19.675  0.00  0.00    +0.000 C 
ENDBRANCH  12  14
BRANCH  12  15
ATOM     15  C   UNL     1       2.438   2.625  17.795  0.00  0.00    +0.000 C 
BRANCH  15  16
ATOM     16  O   UNL     1       2.789   1.443  18.516  0.00  0.00    +0.000 OA
ATOM     17  H   UNL     1       2.403   1.565  19.405  0.00  0.00    +0.000 HD
ENDBRANCH  15  16
ENDBRANCH  12  15
ENDBRANCH  10  12
ENDBRANCH   9  10
ENDBRANCH   1   9
BRANCH   4  18
ATOM     18  O   UNL     1       0.371  10.957  19.667  0.00  0.00    +0.000 OA
BRANCH  18  19
ATOM     19  C   UNL     1      -0.339  11.553  18.587  0.00  0.00    +0.000 C 
BRANCH  19  20
ATOM     20  C   UNL     1      -1.785  11.093  18.528  0.00  0.00    +0.000 C 
ATOM     21  O   UNL     1      -2.046   9.906  18.347  0.00  0.00    +0.000 OA
ATOM     22  N   UNL     1      -2.697  12.111  18.756  0.00  0.00    +0.000 N 
ATOM     23  H   UNL     1      -2.328  13.054  18.712  0.00  0.00    +0.000 HD
BRANCH  22  24
ATOM     24  C   UNL     1      -4.096  11.956  18.845  0.00  0.00    +0.000 A 
ATOM     25  C   UNL     1      -4.873  11.435  17.806  0.00  0.00    +0.000 A 
ATOM     26  C   UNL     1      -6.259  11.347  17.922  0.00  0.00    +0.000 A 
ATOM     27  C   UNL     1      -6.885  11.773  19.089  0.00  0.00    +0.000 A 
ATOM     28  C   UNL     1      -6.131  12.275  20.155  0.00  0.00    +0.000 A 
ATOM     29  C   UNL     1      -4.730  12.348  20.030  0.00  0.00    +0.000 A 
BRANCH  28  30
ATOM     30  C   UNL     1      -6.804  12.751  21.417  0.00  0.00    +0.000 C 
ATOM     31  F   UNL     1      -5.988  12.742  22.508  0.00  0.00    +0.000 F 
ATOM     32  F   UNL     1      -7.268  14.027  21.309  0.00  0.00    +0.000 F 
ATOM     33  F   UNL     1      -7.881  11.987  21.752  0.00  0.00    +0.000 F 
ENDBRANCH  28  30
ENDBRANCH  22  24
ENDBRANCH  19  20
ENDBRANCH  18  19
ENDBRANCH   4  18
TORSDOF 12
ENDMDL
MODEL 8
REMARK VINA RESULT:      -7.0      5.534      7.936
REMARK  Name = 
REMARK  14 active torsions:
REMARK  status: ('A' for Active; 'I' for Inactive)
REMARK    1  A    between atoms: C_1  and  C_2
REMARK    2  A    between atoms: C_2  and  CA_3
REMARK    3  A    between atoms: CA_3  and  C_4
REMARK    4  A    between atoms: CA_3  and  N_6
REMARK    5  A    between atoms: C_4  and  O_5
REMARK    6  A    between atoms: N_6  and  C_7
REMARK    7  A    between atoms: C_7  and  C_8
REMARK    8  A    between atoms: C_11  and  O_12
REMARK    9  A    between atoms: O_12  and  C_13
REMARK   10  A    between atoms: C_13  and  C_14
REMARK   11  A    between atoms: N_16  and  C_17
REMARK   12  A    between atoms: C_21  and  C_22
REMARK   13  A    between atoms: C_27  and  O_28
REMARK   14  A    between atoms: O_28  and  C_29
REMARK                            x       y       z     vdW  Elec       q    Type
REMARK                         _______ _______ _______ _____ _____    ______ ____
ROOT
ATOM      1  C   UNL     1       5.463   4.715  16.572  0.00  0.00    +0.000 A 
ATOM      2  C   UNL     1       5.376   6.100  16.734  0.00  0.00    +0.000 A 
ATOM      3  C   UNL     1       4.246   6.664  17.320  0.00  0.00    +0.000 A 
ATOM      4  C   UNL     1       3.206   5.852  17.799  0.00  0.00    +0.000 A 
ATOM      5  C   UNL     1       3.265   4.460  17.612  0.00  0.00    +0.000 A 
ATOM      6  C   UNL     1       4.398   3.908  17.000  0.00  0.00    +0.000 A 
ENDROOT
BRANCH   5   7
ATOM      7  O   UNL     1       2.202   3.719  18.066  0.00  0.00    +0.000 OA
ATOM      8  C   UNL     1       2.328   2.304  17.977  0.00  0.00    +0.000 C 
ENDBRANCH   5   7
BRANCH   1   9
ATOM      9  C   UNL     1       6.667   4.080  15.929  0.00  0.00    +0.000 C 
BRANCH   9  10
ATOM     10  N   UNL     1       7.312   4.937  14.925  0.00  0.00    +0.000 NA
ATOM     11  H   UNL     1       6.824   5.833  14.921  0.00  0.00    +0.000 HD
BRANCH  10  12
ATOM     12  CA  UNL     1       7.294   4.377  13.546  0.00  0.00    +0.000 C 
BRANCH  12  14
ATOM     13  C   UNL     1       5.903   2.943  11.939  0.00  0.00    +0.000 C 
ATOM     14  C   UNL     1       5.897   3.872  13.143  0.00  0.00    +0.000 C 
ENDBRANCH  12  14
BRANCH  12  15
ATOM     15  C   UNL     1       7.804   5.476  12.584  0.00  0.00    +0.000 C 
BRANCH  15  16
ATOM     16  O   UNL     1       9.007   6.061  13.083  0.00  0.00    +0.000 OA
ATOM     17  H   UNL     1       9.649   5.983  12.350  0.00  0.00    +0.000 HD
ENDBRANCH  15  16
ENDBRANCH  12  15
ENDBRANCH  10  12
ENDBRANCH   9  10
ENDBRANCH   1   9
BRANCH   4  18
ATOM     18  O   UNL     1       2.106   6.371  18.446  0.00  0.00    +0.000 OA
BRANCH  18  19
ATOM     19  C   UNL     1       2.393   7.537  19.211  0.00  0.00    +0.000 C 
BRANCH  19  20
ATOM     20  C   UNL     1       1.812   8.792  18.581  0.00  0.00    +0.000 C 
ATOM     21  O   UNL     1       2.053   9.057  17.406  0.00  0.00    +0.000 OA
ATOM     22  N   UNL     1       0.985   9.504  19.434  0.00  0.00    +0.000 N 
ATOM     23  H   UNL     1       1.033   9.249  20.414  0.00  0.00    +0.000 HD
BRANCH  22  24
ATOM     24  C   UNL     1       0.247  10.656  19.091  0.00  0.00    +0.000 A 
ATOM     25  C   UNL     1      -1.066  10.607  18.614  0.00  0.00    +0.000 A 
ATOM     26  C   UNL     1      -1.738  11.769  18.241  0.00  0.00    +0.000 A 
ATOM     27  C   UNL     1      -1.104  13.001  18.352  0.00  0.00    +0.000 A 
ATOM     28  C   UNL     1       0.201  13.085  18.850  0.00  0.00    +0.000 A 
ATOM     29  C   UNL     1       0.865  11.904  19.234  0.00  0.00    +0.000 A 
BRANCH  28  30
ATOM     30  C   UNL     1       0.900  14.416  18.959  0.00  0.00    +0.000 C 
ATOM     31  F   UNL     1       2.077  14.472  18.275  0.00  0.00    +0.000 F 
ATOM     32  F   UNL     1       0.143  15.442  18.481  0.00  0.00    +0.000 F 
ATOM     33  F   UNL     1       1.203  14.741  20.246  0.00  0.00    +0.000 F 
ENDBRANCH  28  30
ENDBRANCH  22  24
ENDBRANCH  19  20
ENDBRANCH  18  19
ENDBRANCH   4  18
TORSDOF 12
ENDMDL
MODEL 9
REMARK VINA RESULT:      -6.9      7.320      9.363
REMARK  Name = 
REMARK  14 active torsions:
REMARK  status: ('A' for Active; 'I' for Inactive)
REMARK    1  A    between atoms: C_1  and  C_2
REMARK    2  A    between atoms: C_2  and  CA_3
REMARK    3  A    between atoms: CA_3  and  C_4
REMARK    4  A    between atoms: CA_3  and  N_6
REMARK    5  A    between atoms: C_4  and  O_5
REMARK    6  A    between atoms: N_6  and  C_7
REMARK    7  A    between atoms: C_7  and  C_8
REMARK    8  A    between atoms: C_11  and  O_12
REMARK    9  A    between atoms: O_12  and  C_13
REMARK   10  A    between atoms: C_13  and  C_14
REMARK   11  A    between atoms: N_16  and  C_17
REMARK   12  A    between atoms: C_21  and  C_22
REMARK   13  A    between atoms: C_27  and  O_28
REMARK   14  A    between atoms: O_28  and  C_29
REMARK                            x       y       z     vdW  Elec       q    Type
REMARK                         _______ _______ _______ _____ _____    ______ ____
ROOT
ATOM      1  C   UNL     1       3.552   5.067  17.724  0.00  0.00    +0.000 A 
ATOM      2  C   UNL     1       3.596   6.450  17.529  0.00  0.00    +0.000 A 
ATOM      3  C   UNL     1       2.956   7.301  18.425  0.00  0.00    +0.000 A 
ATOM      4  C   UNL     1       2.303   6.791  19.557  0.00  0.00    +0.000 A 
ATOM      5  C   UNL     1       2.221   5.401  19.748  0.00  0.00    +0.000 A 
ATOM      6  C   UNL     1       2.851   4.554  18.825  0.00  0.00    +0.000 A 
ENDROOT
BRANCH   5   7
ATOM      7  O   UNL     1       1.537   4.956  20.852  0.00  0.00    +0.000 OA
ATOM      8  C   UNL     1       2.098   3.846  21.545  0.00  0.00    +0.000 C 
ENDBRANCH   5   7
BRANCH   1   9
ATOM      9  C   UNL     1       4.224   4.123  16.763  0.00  0.00    +0.000 C 
BRANCH   9  10
ATOM     10  N   UNL     1       5.630   3.856  17.095  0.00  0.00    +0.000 NA
ATOM     11  H   UNL     1       5.673   3.594  18.080  0.00  0.00    +0.000 HD
BRANCH  10  12
ATOM     12  CA  UNL     1       6.539   5.012  16.867  0.00  0.00    +0.000 C 
BRANCH  12  14
ATOM     13  C   UNL     1       7.745   6.751  18.314  0.00  0.00    +0.000 C 
ATOM     14  C   UNL     1       7.453   5.278  18.076  0.00  0.00    +0.000 C 
ENDBRANCH  12  14
BRANCH  12  15
ATOM     15  C   UNL     1       7.356   4.724  15.585  0.00  0.00    +0.000 C 
BRANCH  15  16
ATOM     16  O   UNL     1       6.857   5.491  14.489  0.00  0.00    +0.000 OA
ATOM     17  H   UNL     1       7.305   6.356  14.560  0.00  0.00    +0.000 HD
ENDBRANCH  15  16
ENDBRANCH  12  15
ENDBRANCH  10  12
ENDBRANCH   9  10
ENDBRANCH   1   9
BRANCH   4  18
ATOM     18  O   UNL     1       1.718   7.607  20.500  0.00  0.00    +0.000 OA
BRANCH  18  19
ATOM     19  C   UNL     1       1.233   8.835  19.968  0.00  0.00    +0.000 C 
BRANCH  19  20
ATOM     20  C   UNL     1       0.884   9.834  21.058  0.00  0.00    +0.000 C 
ATOM     21  O   UNL     1       1.374   9.717  22.179  0.00  0.00    +0.000 OA
ATOM     22  N   UNL     1       0.052  10.854  20.625  0.00  0.00    +0.000 N 
ATOM     23  H   UNL     1      -0.400  10.707  19.729  0.00  0.00    +0.000 HD
BRANCH  22  24
ATOM     24  C   UNL     1      -0.362  11.960  21.396  0.00  0.00    +0.000 A 
ATOM     25  C   UNL     1       0.395  13.129  21.519  0.00  0.00    +0.000 A 
ATOM     26  C   UNL     1      -0.032  14.178  22.332  0.00  0.00    +0.000 A 
ATOM     27  C   UNL     1      -1.232  14.070  23.027  0.00  0.00    +0.000 A 
ATOM     28  C   UNL     1      -2.023  12.923  22.903  0.00  0.00    +0.000 A 
ATOM     29  C   UNL     1      -1.586  11.875  22.069  0.00  0.00    +0.000 A 
BRANCH  28  30
ATOM     30  C   UNL     1      -3.317  12.794  23.665  0.00  0.00    +0.000 C 
ATOM     31  F   UNL     1      -3.484  11.578  24.256  0.00  0.00    +0.000 F 
ATOM     32  F   UNL     1      -3.426  13.712  24.665  0.00  0.00    +0.000 F 
ATOM     33  F   UNL     1      -4.408  12.974  22.871  0.00  0.00    +0.000 F 
ENDBRANCH  28  30
ENDBRANCH  22  24
ENDBRANCH  19  20
ENDBRANCH  18  19
ENDBRANCH   4  18
TORSDOF 12
ENDMDL
