MODEL 1
REMARK VINA RESULT:      -7.2      0.000      0.000
REMARK  Name = 
REMARK  9 active torsions:
REMARK  status: ('A' for Active; 'I' for Inactive)
REMARK    1  A    between atoms: O_1  and  C_2
REMARK    2  A    between atoms: C_5  and  C_6
REMARK    3  A    between atoms: C_6  and  N_7
REMARK    4  A    between atoms: N_7  and  C_8
REMARK    5  A    between atoms: N_7  and  C_17
REMARK    6  A    between atoms: C_8  and  C_9
REMARK    7  A    between atoms: C_15  and  O_16
REMARK    8  A    between atoms: C_17  and  N_19
REMARK    9  A    between atoms: N_19  and  C_20
REMARK                            x       y       z     vdW  Elec       q    Type
REMARK                         _______ _______ _______ _____ _____    ______ ____
ROOT
ATOM      1  N   UNL     1       2.686   6.762  18.061  0.00  0.00    +0.000 N 
ENDROOT
BRANCH   1   2
ATOM      2  C   UNL     1       2.198   7.828  18.865  0.00  0.00    +0.000 C 
ATOM      3  S   UNL     1       1.787   9.358  18.255  0.00  0.00    +0.000 S 
BRANCH   2   4
ATOM      4  N   UNL     1       2.102   7.518  20.213  0.00  0.00    +0.000 N 
ATOM      5  H   UNL     1       2.860   6.965  20.586  0.00  0.00    +0.000 HD
BRANCH   4   6
ATOM      6  C   UNL     1       1.276   8.170  21.165  0.00  0.00    +0.000 A 
ATOM      7  C   UNL     1       1.785   9.078  22.103  0.00  0.00    +0.000 A 
ATOM      8  C   UNL     1       0.942   9.718  23.004  0.00  0.00    +0.000 A 
ATOM      9  C   UNL     1      -0.430   9.479  22.970  0.00  0.00    +0.000 A 
ATOM     10  C   UNL     1      -0.951   8.598  22.025  0.00  0.00    +0.000 A 
ATOM     11  C   UNL     1      -0.101   7.950  21.118  0.00  0.00    +0.000 A 
ENDBRANCH   4   6
ENDBRANCH   2   4
ENDBRANCH   1   2
BRANCH   1  12
ATOM     12  C   UNL     1       3.771   7.021  17.089  0.00  0.00    +0.000 C 
BRANCH  12  16
ATOM     13  C   UNL     1       7.387   4.668  17.645  0.00  0.00    +0.000 A 
ATOM     14  C   UNL     1       6.601   4.968  18.747  0.00  0.00    +0.000 A 
ATOM     15  C   UNL     1       5.441   5.750  18.579  0.00  0.00    +0.000 A 
ATOM     16  C   UNL     1       5.049   6.207  17.305  0.00  0.00    +0.000 A 
ATOM     17  C   UNL     1       5.892   5.922  16.222  0.00  0.00    +0.000 A 
ATOM     18  C   UNL     1       7.046   5.138  16.388  0.00  0.00    +0.000 A 
BRANCH  13  19
ATOM     19  O   UNL     1       8.522   3.917  17.754  0.00  0.00    +0.000 OA
ATOM     20  H   UNL     1       9.091   4.105  16.992  0.00  0.00    +0.000 HD
ENDBRANCH  13  19
ENDBRANCH  12  16
ENDBRANCH   1  12
BRANCH   1  21
ATOM     21  C   UNL     1       1.759   5.653  17.802  0.00  0.00    +0.000 C 
BRANCH  21  22
ATOM     22  C   UNL     1       2.061   4.199  18.133  0.00  0.00    +0.000 A 
ATOM     23  C   UNL     1       2.829   3.371  17.300  0.00  0.00    +0.000 A 
ATOM     24  C   UNL     1       3.505   2.252  17.833  0.00  0.00    +0.000 A 
ATOM     25  C   UNL     1       3.445   1.968  19.201  0.00  0.00    +0.000 A 
ATOM     26  C   UNL     1       2.644   2.749  20.021  0.00  0.00    +0.000 A 
ATOM     27 CL   UNL     1       2.629   2.465  21.727  0.00  0.00    +0.000 Cl
ATOM     28  C   UNL     1       1.930   3.826  19.485  0.00  0.00    +0.000 A 
BRANCH  28  29
ATOM     29  O   UNL     1       1.141   4.605  20.297  0.00  0.00    +0.000 OA
ATOM     30  H   UNL     1       0.214   4.466  20.027  0.00  0.00    +0.000 HD
ENDBRANCH  28  29
ENDBRANCH  21  22
ENDBRANCH   1  21
TORSDOF 9
ENDMDL
MODEL 2
REMARK VINA RESULT:      -7.1      1.977      2.283
REMARK  Name = 
REMARK  9 active torsions:
REMARK  status: ('A' for Active; 'I' for Inactive)
REMARK    1  A    between atoms: O_1  and  C_2
REMARK    2  A    between atoms: C_5  and  C_6
REMARK    3  A    between atoms: C_6  and  N_7
REMARK    4  A    between atoms: N_7  and  C_8
REMARK    5  A    between atoms: N_7  and  C_17
REMARK    6  A    between atoms: C_8  and  C_9
REMARK    7  A    between atoms: C_15  and  O_16
REMARK    8  A    between atoms: C_17  and  N_19
REMARK    9  A    between atoms: N_19  and  C_20
REMARK                            x       y       z     vdW  Elec       q    Type
REMARK                         _______ _______ _______ _____ _____    ______ ____
ROOT
ATOM      1  N   UNL     1       2.611   6.916  18.205  0.00  0.00    +0.000 N 
ENDROOT
BRANCH   1   2
ATOM      2  C   UNL     1       2.057   7.959  18.996  0.00  0.00    +0.000 C 
ATOM      3  S   UNL     1       1.659   7.790  20.637  0.00  0.00    +0.000 S 
BRANCH   2   4
ATOM      4  N   UNL     1       1.848   9.141  18.300  0.00  0.00    +0.000 N 
ATOM      5  H   UNL     1       2.419   9.268  17.477  0.00  0.00    +0.000 HD
BRANCH   4   6
ATOM      6  C   UNL     1       0.714   9.986  18.410  0.00  0.00    +0.000 A 
ATOM      7  C   UNL     1      -0.516   9.674  17.815  0.00  0.00    +0.000 A 
ATOM      8  C   UNL     1      -1.613  10.513  17.965  0.00  0.00    +0.000 A 
ATOM      9  C   UNL     1      -1.509  11.672  18.731  0.00  0.00    +0.000 A 
ATOM     10  C   UNL     1      -0.299  11.980  19.349  0.00  0.00    +0.000 A 
ATOM     11  C   UNL     1       0.809  11.135  19.196  0.00  0.00    +0.000 A 
ENDBRANCH   4   6
ENDBRANCH   2   4
ENDBRANCH   1   2
BRANCH   1  12
ATOM     12  C   UNL     1       3.708   7.223  17.260  0.00  0.00    +0.000 C 
BRANCH  12  16
ATOM     13  C   UNL     1       7.260   4.743  17.655  0.00  0.00    +0.000 A 
ATOM     14  C   UNL     1       6.556   5.099  18.794  0.00  0.00    +0.000 A 
ATOM     15  C   UNL     1       5.418   5.923  18.677  0.00  0.00    +0.000 A 
ATOM     16  C   UNL     1       4.966   6.365  17.419  0.00  0.00    +0.000 A 
ATOM     17  C   UNL     1       5.729   6.022  16.294  0.00  0.00    +0.000 A 
ATOM     18  C   UNL     1       6.860   5.197  16.409  0.00  0.00    +0.000 A 
BRANCH  13  19
ATOM     19  O   UNL     1       8.370   3.951  17.714  0.00  0.00    +0.000 OA
ATOM     20  H   UNL     1       8.952   4.179  16.973  0.00  0.00    +0.000 HD
ENDBRANCH  13  19
ENDBRANCH  12  16
ENDBRANCH   1  12
BRANCH   1  21
ATOM     21  C   UNL     1       1.740   5.768  17.921  0.00  0.00    +0.000 C 
BRANCH  21  22
ATOM     22  C   UNL     1       2.132   4.321  18.178  0.00  0.00    +0.000 A 
ATOM     23  C   UNL     1       2.975   3.596  17.323  0.00  0.00    +0.000 A 
ATOM     24  C   UNL     1       3.712   2.495  17.812  0.00  0.00    +0.000 A 
ATOM     25  C   UNL     1       3.639   2.130  19.159  0.00  0.00    +0.000 A 
ATOM     26  C   UNL     1       2.766   2.807  19.998  0.00  0.00    +0.000 A 
ATOM     27 CL   UNL     1       2.729   2.425  21.685  0.00  0.00    +0.000 Cl
ATOM     28  C   UNL     1       1.994   3.863  19.504  0.00  0.00    +0.000 A 
BRANCH  28  29
ATOM     29  O   UNL     1       1.135   4.540  20.335  0.00  0.00    +0.000 OA
ATOM     30  H   UNL     1       0.954   5.407  19.928  0.00  0.00    +0.000 HD
ENDBRANCH  28  29
ENDBRANCH  21  22
ENDBRANCH   1  21
TORSDOF 9
ENDMDL
MODEL 3
REMARK VINA RESULT:      -7.1      2.530      2.882
REMARK  Name = 
REMARK  9 active torsions:
REMARK  status: ('A' for Active; 'I' for Inactive)
REMARK    1  A    between atoms: O_1  and  C_2
REMARK    2  A    between atoms: C_5  and  C_6
REMARK    3  A    between atoms: C_6  and  N_7
REMARK    4  A    between atoms: N_7  and  C_8
REMARK    5  A    between atoms: N_7  and  C_17
REMARK    6  A    between atoms: C_8  and  C_9
REMARK    7  A    between atoms: C_15  and  O_16
REMARK    8  A    between atoms: C_17  and  N_19
REMARK    9  A    between atoms: N_19  and  C_20
REMARK                            x       y       z     vdW  Elec       q    Type
REMARK                         _______ _______ _______ _____ _____    ______ ____
ROOT
ATOM      1  N   UNL     1       2.741   6.873  19.177  0.00  0.00    +0.000 N 
ENDROOT
BRANCH   1   2
ATOM      2  C   UNL     1       1.962   8.001  19.552  0.00  0.00    +0.000 C 
ATOM      3  S   UNL     1       1.258   8.195  21.084  0.00  0.00    +0.000 S 
BRANCH   2   4
ATOM      4  N   UNL     1       1.805   8.937  18.541  0.00  0.00    +0.000 N 
ATOM      5  H   UNL     1       2.219   8.691  17.653  0.00  0.00    +0.000 HD
BRANCH   4   6
ATOM      6  C   UNL     1       0.858   9.993  18.518  0.00  0.00    +0.000 A 
ATOM      7  C   UNL     1       1.177  11.297  18.917  0.00  0.00    +0.000 A 
ATOM      8  C   UNL     1       0.230  12.312  18.856  0.00  0.00    +0.000 A 
ATOM      9  C   UNL     1      -1.051  12.048  18.374  0.00  0.00    +0.000 A 
ATOM     10  C   UNL     1      -1.372  10.761  17.950  0.00  0.00    +0.000 A 
ATOM     11  C   UNL     1      -0.418   9.735  18.014  0.00  0.00    +0.000 A 
ENDBRANCH   4   6
ENDBRANCH   2   4
ENDBRANCH   1   2
BRANCH   1  12
ATOM     12  C   UNL     1       2.786   6.460  17.756  0.00  0.00    +0.000 C 
BRANCH  12  16
ATOM     13  C   UNL     1       6.661   5.053  16.368  0.00  0.00    +0.000 A 
ATOM     14  C   UNL     1       6.562   6.320  16.922  0.00  0.00    +0.000 A 
ATOM     15  C   UNL     1       5.306   6.793  17.352  0.00  0.00    +0.000 A 
ATOM     16  C   UNL     1       4.153   5.988  17.256  0.00  0.00    +0.000 A 
ATOM     17  C   UNL     1       4.284   4.730  16.650  0.00  0.00    +0.000 A 
ATOM     18  C   UNL     1       5.537   4.256  16.227  0.00  0.00    +0.000 A 
BRANCH  13  19
ATOM     19  O   UNL     1       7.853   4.548  15.934  0.00  0.00    +0.000 OA
ATOM     20  H   UNL     1       7.695   3.676  15.543  0.00  0.00    +0.000 HD
ENDBRANCH  13  19
ENDBRANCH  12  16
ENDBRANCH   1  12
BRANCH   1  21
ATOM     21  C   UNL     1       2.975   5.857  20.211  0.00  0.00    +0.000 C 
BRANCH  21  22
ATOM     22  C   UNL     1       2.394   4.452  20.168  0.00  0.00    +0.000 A 
ATOM     23  C   UNL     1       1.015   4.198  20.137  0.00  0.00    +0.000 A 
ATOM     24  C   UNL     1       0.524   2.988  19.599  0.00  0.00    +0.000 A 
ATOM     25  C   UNL     1       1.399   2.041  19.060  0.00  0.00    +0.000 A 
ATOM     26  C   UNL     1       2.767   2.260  19.137  0.00  0.00    +0.000 A 
ATOM     27 CL   UNL     1       3.857   1.140  18.397  0.00  0.00    +0.000 Cl
ATOM     28  C   UNL     1       3.257   3.433  19.720  0.00  0.00    +0.000 A 
BRANCH  28  29
ATOM     29  O   UNL     1       4.611   3.656  19.790  0.00  0.00    +0.000 OA
ATOM     30  H   UNL     1       4.852   4.241  19.048  0.00  0.00    +0.000 HD
ENDBRANCH  28  29
ENDBRANCH  21  22
ENDBRANCH   1  21
TORSDOF 9
ENDMDL
MODEL 4
REMARK VINA RESULT:      -7.0      3.204      7.386
REMARK  Name = 
REMARK  9 active torsions:
REMARK  status: ('A' for Active; 'I' for Inactive)
REMARK    1  A    between atoms: O_1  and  C_2
REMARK    2  A    between atoms: C_5  and  C_6
REMARK    3  A    between atoms: C_6  and  N_7
REMARK    4  A    between atoms: N_7  and  C_8
REMARK    5  A    between atoms: N_7  and  C_17
REMARK    6  A    between atoms: C_8  and  C_9
REMARK    7  A    between atoms: C_15  and  O_16
REMARK    8  A    between atoms: C_17  and  N_19
REMARK    9  A    between atoms: N_19  and  C_20
REMARK                            x       y       z     vdW  Elec       q    Type
REMARK                         _______ _______ _______ _____ _____    ______ ____
ROOT
ATOM      1  N   UNL     1       4.119   5.808  17.581  0.00  0.00    +0.000 N 
ENDROOT
BRANCH   1   2
ATOM      2  C   UNL     1       5.448   5.656  17.100  0.00  0.00    +0.000 C 
ATOM      3  S   UNL     1       6.691   6.773  17.394  0.00  0.00    +0.000 S 
BRANCH   2   4
ATOM      4  N   UNL     1       5.645   4.511  16.343  0.00  0.00    +0.000 N 
ATOM      5  H   UNL     1       5.191   3.678  16.690  0.00  0.00    +0.000 HD
BRANCH   4   6
ATOM      6  C   UNL     1       6.095   4.464  14.998  0.00  0.00    +0.000 A 
ATOM      7  C   UNL     1       7.270   5.099  14.577  0.00  0.00    +0.000 A 
ATOM      8  C   UNL     1       7.694   5.010  13.257  0.00  0.00    +0.000 A 
ATOM      9  C   UNL     1       6.961   4.266  12.335  0.00  0.00    +0.000 A 
ATOM     10  C   UNL     1       5.804   3.609  12.747  0.00  0.00    +0.000 A 
ATOM     11  C   UNL     1       5.374   3.700  14.079  0.00  0.00    +0.000 A 
ENDBRANCH   4   6
ENDBRANCH   2   4
ENDBRANCH   1   2
BRANCH   1  12
ATOM     12  C   UNL     1       3.147   4.707  17.392  0.00  0.00    +0.000 C 
BRANCH  12  16
ATOM     13  C   UNL     1       1.805   2.765  21.045  0.00  0.00    +0.000 A 
ATOM     14  C   UNL     1       0.863   3.177  20.115  0.00  0.00    +0.000 A 
ATOM     15  C   UNL     1       1.288   3.828  18.940  0.00  0.00    +0.000 A 
ATOM     16  C   UNL     1       2.656   4.041  18.680  0.00  0.00    +0.000 A 
ATOM     17  C   UNL     1       3.576   3.651  19.664  0.00  0.00    +0.000 A 
ATOM     18  C   UNL     1       3.153   2.997  20.832  0.00  0.00    +0.000 A 
BRANCH  13  19
ATOM     19  O   UNL     1       1.446   2.132  22.200  0.00  0.00    +0.000 OA
ATOM     20  H   UNL     1       0.580   1.717  22.069  0.00  0.00    +0.000 HD
ENDBRANCH  13  19
ENDBRANCH  12  16
ENDBRANCH   1  12
BRANCH   1  21
ATOM     21  C   UNL     1       3.612   7.180  17.700  0.00  0.00    +0.000 C 
BRANCH  21  22
ATOM     22  C   UNL     1       2.454   7.582  18.601  0.00  0.00    +0.000 A 
ATOM     23  C   UNL     1       2.268   7.051  19.887  0.00  0.00    +0.000 A 
ATOM     24  C   UNL     1       1.540   7.772  20.858  0.00  0.00    +0.000 A 
ATOM     25  C   UNL     1       1.020   9.037  20.566  0.00  0.00    +0.000 A 
ATOM     26  C   UNL     1       1.152   9.544  19.281  0.00  0.00    +0.000 A 
ATOM     27 CL   UNL     1       0.592  11.142  18.930  0.00  0.00    +0.000 Cl
ATOM     28  C   UNL     1       1.825   8.807  18.302  0.00  0.00    +0.000 A 
BRANCH  28  29
ATOM     29  O   UNL     1       1.963   9.310  17.031  0.00  0.00    +0.000 OA
ATOM     30  H   UNL     1       2.649  10.003  17.062  0.00  0.00    +0.000 HD
ENDBRANCH  28  29
ENDBRANCH  21  22
ENDBRANCH   1  21
TORSDOF 9
ENDMDL
MODEL 5
REMARK VINA RESULT:      -6.9      3.259      7.389
REMARK  Name = 
REMARK  9 active torsions:
REMARK  status: ('A' for Active; 'I' for Inactive)
REMARK    1  A    between atoms: O_1  and  C_2
REMARK    2  A    between atoms: C_5  and  C_6
REMARK    3  A    between atoms: C_6  and  N_7
REMARK    4  A    between atoms: N_7  and  C_8
REMARK    5  A    between atoms: N_7  and  C_17
REMARK    6  A    between atoms: C_8  and  C_9
REMARK    7  A    between atoms: C_15  and  O_16
REMARK    8  A    between atoms: C_17  and  N_19
REMARK    9  A    between atoms: N_19  and  C_20
REMARK                            x       y       z     vdW  Elec       q    Type
REMARK                         _______ _______ _______ _____ _____    ______ ____
ROOT
ATOM      1  N   UNL     1       4.174   5.642  17.616  0.00  0.00    +0.000 N 
ENDROOT
BRANCH   1   2
ATOM      2  C   UNL     1       5.491   5.471  17.109  0.00  0.00    +0.000 C 
ATOM      3  S   UNL     1       6.745   4.718  17.971  0.00  0.00    +0.000 S 
BRANCH   2   4
ATOM      4  N   UNL     1       5.677   5.995  15.839  0.00  0.00    +0.000 N 
ATOM      5  H   UNL     1       5.824   6.994  15.798  0.00  0.00    +0.000 HD
BRANCH   4   6
ATOM      6  C   UNL     1       6.029   5.264  14.675  0.00  0.00    +0.000 A 
ATOM      7  C   UNL     1       7.269   5.415  14.040  0.00  0.00    +0.000 A 
ATOM      8  C   UNL     1       7.590   4.663  12.916  0.00  0.00    +0.000 A 
ATOM      9  C   UNL     1       6.685   3.728  12.417  0.00  0.00    +0.000 A 
ATOM     10  C   UNL     1       5.460   3.551  13.055  0.00  0.00    +0.000 A 
ATOM     11  C   UNL     1       5.134   4.311  14.187  0.00  0.00    +0.000 A 
ENDBRANCH   4   6
ENDBRANCH   2   4
ENDBRANCH   1   2
BRANCH   1  12
ATOM     12  C   UNL     1       3.184   4.555  17.448  0.00  0.00    +0.000 C 
BRANCH  12  16
ATOM     13  C   UNL     1       1.736   2.778  21.145  0.00  0.00    +0.000 A 
ATOM     14  C   UNL     1       3.099   2.973  20.978  0.00  0.00    +0.000 A 
ATOM     15  C   UNL     1       3.578   3.526  19.774  0.00  0.00    +0.000 A 
ATOM     16  C   UNL     1       2.693   3.912  18.748  0.00  0.00    +0.000 A 
ATOM     17  C   UNL     1       1.327   3.658  18.934  0.00  0.00    +0.000 A 
ATOM     18  C   UNL     1       0.848   3.113  20.137  0.00  0.00    +0.000 A 
BRANCH  13  19
ATOM     19  O   UNL     1       1.221   2.244  22.291  0.00  0.00    +0.000 OA
ATOM     20  H   UNL     1       0.628   2.895  22.696  0.00  0.00    +0.000 HD
ENDBRANCH  13  19
ENDBRANCH  12  16
ENDBRANCH   1  12
BRANCH   1  21
ATOM     21  C   UNL     1       3.689   7.021  17.745  0.00  0.00    +0.000 C 
BRANCH  21  22
ATOM     22  C   UNL     1       2.521   7.431  18.628  0.00  0.00    +0.000 A 
ATOM     23  C   UNL     1       2.311   6.902  19.910  0.00  0.00    +0.000 A 
ATOM     24  C   UNL     1       1.574   7.628  20.870  0.00  0.00    +0.000 A 
ATOM     25  C   UNL     1       1.068   8.897  20.571  0.00  0.00    +0.000 A 
ATOM     26  C   UNL     1       1.224   9.403  19.289  0.00  0.00    +0.000 A 
ATOM     27 CL   UNL     1       0.682  11.006  18.929  0.00  0.00    +0.000 Cl
ATOM     28  C   UNL     1       1.907   8.662  18.320  0.00  0.00    +0.000 A 
BRANCH  28  29
ATOM     29  O   UNL     1       2.068   9.165  17.051  0.00  0.00    +0.000 OA
ATOM     30  H   UNL     1       2.551  10.009  17.129  0.00  0.00    +0.000 HD
ENDBRANCH  28  29
ENDBRANCH  21  22
ENDBRANCH   1  21
TORSDOF 9
ENDMDL
MODEL 6
REMARK VINA RESULT:      -6.9      0.595      1.094
REMARK  Name = 
REMARK  9 active torsions:
REMARK  status: ('A' for Active; 'I' for Inactive)
REMARK    1  A    between atoms: O_1  and  C_2
REMARK    2  A    between atoms: C_5  and  C_6
REMARK    3  A    between atoms: C_6  and  N_7
REMARK    4  A    between atoms: N_7  and  C_8
REMARK    5  A    between atoms: N_7  and  C_17
REMARK    6  A    between atoms: C_8  and  C_9
REMARK    7  A    between atoms: C_15  and  O_16
REMARK    8  A    between atoms: C_17  and  N_19
REMARK    9  A    between atoms: N_19  and  C_20
REMARK                            x       y       z     vdW  Elec       q    Type
REMARK                         _______ _______ _______ _____ _____    ______ ____
ROOT
ATOM      1  N   UNL     1       2.686   6.975  17.966  0.00  0.00    +0.000 N 
ENDROOT
BRANCH   1   2
ATOM      2  C   UNL     1       2.199   8.092  18.698  0.00  0.00    +0.000 C 
ATOM      3  S   UNL     1       2.088   9.662  18.063  0.00  0.00    +0.000 S 
BRANCH   2   4
ATOM      4  N   UNL     1       1.833   7.794  20.002  0.00  0.00    +0.000 N 
ATOM      5  H   UNL     1       2.366   7.059  20.446  0.00  0.00    +0.000 HD
BRANCH   4   6
ATOM      6  C   UNL     1       1.066   8.618  20.866  0.00  0.00    +0.000 A 
ATOM      7  C   UNL     1       1.335   8.725  22.236  0.00  0.00    +0.000 A 
ATOM      8  C   UNL     1       0.579   9.563  23.047  0.00  0.00    +0.000 A 
ATOM      9  C   UNL     1      -0.449  10.327  22.499  0.00  0.00    +0.000 A 
ATOM     10  C   UNL     1      -0.710  10.249  21.133  0.00  0.00    +0.000 A 
ATOM     11  C   UNL     1       0.051   9.402  20.315  0.00  0.00    +0.000 A 
ENDBRANCH   4   6
ENDBRANCH   2   4
ENDBRANCH   1   2
BRANCH   1  12
ATOM     12  C   UNL     1       3.767   7.172  16.974  0.00  0.00    +0.000 C 
BRANCH  12  16
ATOM     13  C   UNL     1       7.298   4.705  17.579  0.00  0.00    +0.000 A 
ATOM     14  C   UNL     1       6.865   4.957  16.287  0.00  0.00    +0.000 A 
ATOM     15  C   UNL     1       5.708   5.736  16.083  0.00  0.00    +0.000 A 
ATOM     16  C   UNL     1       5.001   6.287  17.170  0.00  0.00    +0.000 A 
ATOM     17  C   UNL     1       5.443   5.973  18.463  0.00  0.00    +0.000 A 
ATOM     18  C   UNL     1       6.599   5.202  18.666  0.00  0.00    +0.000 A 
BRANCH  13  19
ATOM     19  O   UNL     1       8.411   3.955  17.832  0.00  0.00    +0.000 OA
ATOM     20  H   UNL     1       9.038   4.493  18.337  0.00  0.00    +0.000 HD
ENDBRANCH  13  19
ENDBRANCH  12  16
ENDBRANCH   1  12
BRANCH   1  21
ATOM     21  C   UNL     1       1.762   5.849  17.785  0.00  0.00    +0.000 C 
BRANCH  21  22
ATOM     22  C   UNL     1       2.105   4.407  18.125  0.00  0.00    +0.000 A 
ATOM     23  C   UNL     1       2.909   3.601  17.306  0.00  0.00    +0.000 A 
ATOM     24  C   UNL     1       3.612   2.504  17.852  0.00  0.00    +0.000 A 
ATOM     25  C   UNL     1       3.543   2.223  19.220  0.00  0.00    +0.000 A 
ATOM     26  C   UNL     1       2.706   2.982  20.026  0.00  0.00    +0.000 A 
ATOM     27 CL   UNL     1       2.678   2.703  21.733  0.00  0.00    +0.000 Cl
ATOM     28  C   UNL     1       1.967   4.034  19.477  0.00  0.00    +0.000 A 
BRANCH  28  29
ATOM     29  O   UNL     1       1.144   4.791  20.276  0.00  0.00    +0.000 OA
ATOM     30  H   UNL     1       0.513   5.253  19.693  0.00  0.00    +0.000 HD
ENDBRANCH  28  29
ENDBRANCH  21  22
ENDBRANCH   1  21
TORSDOF 9
ENDMDL
MODEL 7
REMARK VINA RESULT:      -6.9      1.668      2.095
REMARK  Name = 
REMARK  9 active torsions:
REMARK  status: ('A' for Active; 'I' for Inactive)
REMARK    1  A    between atoms: O_1  and  C_2
REMARK    2  A    between atoms: C_5  and  C_6
REMARK    3  A    between atoms: C_6  and  N_7
REMARK    4  A    between atoms: N_7  and  C_8
REMARK    5  A    between atoms: N_7  and  C_17
REMARK    6  A    between atoms: C_8  and  C_9
REMARK    7  A    between atoms: C_15  and  O_16
REMARK    8  A    between atoms: C_17  and  N_19
REMARK    9  A    between atoms: N_19  and  C_20
REMARK                            x       y       z     vdW  Elec       q    Type
REMARK                         _______ _______ _______ _____ _____    ______ ____
ROOT
ATOM      1  N   UNL     1       2.665   6.705  19.232  0.00  0.00    +0.000 N 
ENDROOT
BRANCH   1   2
ATOM      2  C   UNL     1       2.055   7.961  19.500  0.00  0.00    +0.000 C 
ATOM      3  S   UNL     1       1.600   9.066  18.295  0.00  0.00    +0.000 S 
BRANCH   2   4
ATOM      4  N   UNL     1       1.876   8.222  20.850  0.00  0.00    +0.000 N 
ATOM      5  H   UNL     1       2.596   7.864  21.461  0.00  0.00    +0.000 HD
BRANCH   4   6
ATOM      6  C   UNL     1       1.017   9.206  21.405  0.00  0.00    +0.000 A 
ATOM      7  C   UNL     1       0.984  10.525  20.935  0.00  0.00    +0.000 A 
ATOM      8  C   UNL     1       0.112  11.455  21.487  0.00  0.00    +0.000 A 
ATOM      9  C   UNL     1      -0.761  11.080  22.506  0.00  0.00    +0.000 A 
ATOM     10  C   UNL     1      -0.756   9.764  22.964  0.00  0.00    +0.000 A 
ATOM     11  C   UNL     1       0.127   8.826  22.410  0.00  0.00    +0.000 A 
ENDBRANCH   4   6
ENDBRANCH   2   4
ENDBRANCH   1   2
BRANCH   1  12
ATOM     12  C   UNL     1       2.682   6.186  17.846  0.00  0.00    +0.000 C 
BRANCH  12  16
ATOM     13  C   UNL     1       6.605   5.062  16.341  0.00  0.00    +0.000 A 
ATOM     14  C   UNL     1       6.436   6.312  16.915  0.00  0.00    +0.000 A 
ATOM     15  C   UNL     1       5.162   6.693  17.383  0.00  0.00    +0.000 A 
ATOM     16  C   UNL     1       4.065   5.814  17.305  0.00  0.00    +0.000 A 
ATOM     17  C   UNL     1       4.264   4.575  16.678  0.00  0.00    +0.000 A 
ATOM     18  C   UNL     1       5.534   4.193  16.216  0.00  0.00    +0.000 A 
BRANCH  13  19
ATOM     19  O   UNL     1       7.817   4.645  15.869  0.00  0.00    +0.000 OA
ATOM     20  H   UNL     1       8.295   4.208  16.590  0.00  0.00    +0.000 HD
ENDBRANCH  13  19
ENDBRANCH  12  16
ENDBRANCH   1  12
BRANCH   1  21
ATOM     21  C   UNL     1       2.720   5.746  20.342  0.00  0.00    +0.000 C 
BRANCH  21  22
ATOM     22  C   UNL     1       2.226   4.311  20.249  0.00  0.00    +0.000 A 
ATOM     23  C   UNL     1       0.866   3.975  20.173  0.00  0.00    +0.000 A 
ATOM     24  C   UNL     1       0.464   2.752  19.592  0.00  0.00    +0.000 A 
ATOM     25  C   UNL     1       1.409   1.873  19.055  0.00  0.00    +0.000 A 
ATOM     26  C   UNL     1       2.759   2.172  19.176  0.00  0.00    +0.000 A 
ATOM     27 CL   UNL     1       3.934   1.139  18.441  0.00  0.00    +0.000 Cl
ATOM     28  C   UNL     1       3.161   3.357  19.801  0.00  0.00    +0.000 A 
BRANCH  28  29
ATOM     29  O   UNL     1       4.497   3.658  19.915  0.00  0.00    +0.000 OA
ATOM     30  H   UNL     1       4.838   3.192  20.700  0.00  0.00    +0.000 HD
ENDBRANCH  28  29
ENDBRANCH  21  22
ENDBRANCH   1  21
TORSDOF 9
ENDMDL
MODEL 8
REMARK VINA RESULT:      -6.8      2.392      2.791
REMARK  Name = 
REMARK  9 active torsions:
REMARK  status: ('A' for Active; 'I' for Inactive)
REMARK    1  A    between atoms: O_1  and  C_2
REMARK    2  A    between atoms: C_5  and  C_6
REMARK    3  A    between atoms: C_6  and  N_7
REMARK    4  A    between atoms: N_7  and  C_8
REMARK    5  A    between atoms: N_7  and  C_17
REMARK    6  A    between atoms: C_8  and  C_9
REMARK    7  A    between atoms: C_15  and  O_16
REMARK    8  A    between atoms: C_17  and  N_19
REMARK    9  A    between atoms: N_19  and  C_20
REMARK                            x       y       z     vdW  Elec       q    Type
REMARK                         _______ _______ _______ _____ _____    ______ ____
ROOT
ATOM      1  N   UNL     1       3.024   7.463  18.694  0.00  0.00    +0.000 N 
ENDROOT
BRANCH   1   2
ATOM      2  C   UNL     1       1.960   8.328  19.068  0.00  0.00    +0.000 C 
ATOM      3  S   UNL     1       1.292   8.385  20.627  0.00  0.00    +0.000 S 
BRANCH   2   4
ATOM      4  N   UNL     1       1.490   9.121  18.032  0.00  0.00    +0.000 N 
ATOM      5  H   UNL     1       1.682   8.779  17.101  0.00  0.00    +0.000 HD
BRANCH   4   6
ATOM      6  C   UNL     1       0.496  10.129  18.133  0.00  0.00    +0.000 A 
ATOM      7  C   UNL     1      -0.845   9.897  17.805  0.00  0.00    +0.000 A 
ATOM      8  C   UNL     1      -1.796  10.901  17.942  0.00  0.00    +0.000 A 
ATOM      9  C   UNL     1      -1.428  12.153  18.431  0.00  0.00    +0.000 A 
ATOM     10  C   UNL     1      -0.101  12.388  18.785  0.00  0.00    +0.000 A 
ATOM     11  C   UNL     1       0.859  11.376  18.645  0.00  0.00    +0.000 A 
ENDBRANCH   4   6
ENDBRANCH   2   4
ENDBRANCH   1   2
BRANCH   1  12
ATOM     12  C   UNL     1       3.562   7.525  17.317  0.00  0.00    +0.000 C 
BRANCH  12  16
ATOM     13  C   UNL     1       7.049   5.021  16.616  0.00  0.00    +0.000 A 
ATOM     14  C   UNL     1       7.221   6.272  17.187  0.00  0.00    +0.000 A 
ATOM     15  C   UNL     1       6.099   7.099  17.396  0.00  0.00    +0.000 A 
ATOM     16  C   UNL     1       4.802   6.664  17.061  0.00  0.00    +0.000 A 
ATOM     17  C   UNL     1       4.673   5.411  16.444  0.00  0.00    +0.000 A 
ATOM     18  C   UNL     1       5.789   4.584  16.242  0.00  0.00    +0.000 A 
BRANCH  13  19
ATOM     19  O   UNL     1       8.103   4.182  16.391  0.00  0.00    +0.000 OA
ATOM     20  H   UNL     1       8.865   4.712  16.113  0.00  0.00    +0.000 HD
ENDBRANCH  13  19
ENDBRANCH  12  16
ENDBRANCH   1  12
BRANCH   1  21
ATOM     21  C   UNL     1       3.148   6.206  19.442  0.00  0.00    +0.000 C 
BRANCH  21  22
ATOM     22  C   UNL     1       2.122   5.084  19.390  0.00  0.00    +0.000 A 
ATOM     23  C   UNL     1       1.729   4.464  18.195  0.00  0.00    +0.000 A 
ATOM     24  C   UNL     1       1.205   3.153  18.209  0.00  0.00    +0.000 A 
ATOM     25  C   UNL     1       1.099   2.441  19.407  0.00  0.00    +0.000 A 
ATOM     26  C   UNL     1       1.434   3.066  20.599  0.00  0.00    +0.000 A 
ATOM     27 CL   UNL     1       1.393   2.169  22.078  0.00  0.00    +0.000 Cl
ATOM     28  C   UNL     1       1.901   4.384  20.593  0.00  0.00    +0.000 A 
BRANCH  28  29
ATOM     29  O   UNL     1       2.241   5.002  21.772  0.00  0.00    +0.000 OA
ATOM     30  H   UNL     1       1.637   5.759  21.891  0.00  0.00    +0.000 HD
ENDBRANCH  28  29
ENDBRANCH  21  22
ENDBRANCH   1  21
TORSDOF 9
ENDMDL
MODEL 9
REMARK VINA RESULT:      -6.7      2.097      2.349
REMARK  Name = 
REMARK  9 active torsions:
REMARK  status: ('A' for Active; 'I' for Inactive)
REMARK    1  A    between atoms: O_1  and  C_2
REMARK    2  A    between atoms: C_5  and  C_6
REMARK    3  A    between atoms: C_6  and  N_7
REMARK    4  A    between atoms: N_7  and  C_8
REMARK    5  A    between atoms: N_7  and  C_17
REMARK    6  A    between atoms: C_8  and  C_9
REMARK    7  A    between atoms: C_15  and  O_16
REMARK    8  A    between atoms: C_17  and  N_19
REMARK    9  A    between atoms: N_19  and  C_20
REMARK                            x       y       z     vdW  Elec       q    Type
REMARK                         _______ _______ _______ _____ _____    ______ ____
ROOT
ATOM      1  N   UNL     1       2.537   6.950  18.159  0.00  0.00    +0.000 N 
ENDROOT
BRANCH   1   2
ATOM      2  C   UNL     1       1.853   7.935  18.922  0.00  0.00    +0.000 C 
ATOM      3  S   UNL     1       1.769   7.927  20.617  0.00  0.00    +0.000 S 
BRANCH   2   4
ATOM      4  N   UNL     1       1.234   8.910  18.155  0.00  0.00    +0.000 N 
ATOM      5  H   UNL     1       0.515   8.578  17.527  0.00  0.00    +0.000 HD
BRANCH   4   6
ATOM      6  C   UNL     1       1.247  10.307  18.406  0.00  0.00    +0.000 A 
ATOM      7  C   UNL     1       2.343  11.118  18.083  0.00  0.00    +0.000 A 
ATOM      8  C   UNL     1       2.309  12.487  18.320  0.00  0.00    +0.000 A 
ATOM      9  C   UNL     1       1.171  13.076  18.866  0.00  0.00    +0.000 A 
ATOM     10  C   UNL     1       0.065  12.284  19.168  0.00  0.00    +0.000 A 
ATOM     11  C   UNL     1       0.099  10.902  18.931  0.00  0.00    +0.000 A 
ENDBRANCH   4   6
ENDBRANCH   2   4
ENDBRANCH   1   2
BRANCH   1  12
ATOM     12  C   UNL     1       3.696   7.348  17.328  0.00  0.00    +0.000 C 
BRANCH  12  16
ATOM     13  C   UNL     1       7.203   4.799  17.688  0.00  0.00    +0.000 A 
ATOM     14  C   UNL     1       6.505   5.153  18.833  0.00  0.00    +0.000 A 
ATOM     15  C   UNL     1       5.382   5.998  18.727  0.00  0.00    +0.000 A 
ATOM     16  C   UNL     1       4.938   6.465  17.475  0.00  0.00    +0.000 A 
ATOM     17  C   UNL     1       5.694   6.123  16.345  0.00  0.00    +0.000 A 
ATOM     18  C   UNL     1       6.810   5.277  16.449  0.00  0.00    +0.000 A 
BRANCH  13  19
ATOM     19  O   UNL     1       8.298   3.986  17.736  0.00  0.00    +0.000 OA
ATOM     20  H   UNL     1       8.177   3.346  18.453  0.00  0.00    +0.000 HD
ENDBRANCH  13  19
ENDBRANCH  12  16
ENDBRANCH   1  12
BRANCH   1  21
ATOM     21  C   UNL     1       1.765   5.764  17.767  0.00  0.00    +0.000 C 
BRANCH  21  22
ATOM     22  C   UNL     1       2.180   4.337  18.090  0.00  0.00    +0.000 A 
ATOM     23  C   UNL     1       3.080   3.606  17.299  0.00  0.00    +0.000 A 
ATOM     24  C   UNL     1       3.819   2.541  17.857  0.00  0.00    +0.000 A 
ATOM     25  C   UNL     1       3.690   2.216  19.211  0.00  0.00    +0.000 A 
ATOM     26  C   UNL     1       2.762   2.897  19.986  0.00  0.00    +0.000 A 
ATOM     27 CL   UNL     1       2.655   2.567  21.681  0.00  0.00    +0.000 Cl
ATOM     28  C   UNL     1       1.989   3.916  19.421  0.00  0.00    +0.000 A 
BRANCH  28  29
ATOM     29  O   UNL     1       1.075   4.597  20.189  0.00  0.00    +0.000 OA
ATOM     30  H   UNL     1       1.569   5.067  20.886  0.00  0.00    +0.000 HD
ENDBRANCH  28  29
ENDBRANCH  21  22
ENDBRANCH   1  21
TORSDOF 9
ENDMDL
