MODEL 1
REMARK VINA RESULT:      -7.7      0.000      0.000
REMARK  Name = 
REMARK  8 active torsions:
REMARK  status: ('A' for Active; 'I' for Inactive)
REMARK    1  A    between atoms: C_1  and  C_2
REMARK    2  A    between atoms: C_5  and  C_6
REMARK    3  A    between atoms: C_6  and  C_7
REMARK    4  A    between atoms: C_7  and  N_8
REMARK    5  A    between atoms: C_9  and  C_11
REMARK    6  A    between atoms: C_11  and  N_12
REMARK    7  A    between atoms: C_20  and  S_21
REMARK    8  A    between atoms: S_21  and  N_24
REMARK                            x       y       z     vdW  Elec       q    Type
REMARK                         _______ _______ _______ _____ _____    ______ ____
ROOT
ATOM      1  N   UNL     1       4.295   6.492  17.980  0.00  0.00    +0.000 N 
ATOM      2  C   UNL     1       3.845   7.521  17.159  0.00  0.00    +0.000 C 
ATOM      3  O   UNL     1       4.258   7.694  16.009  0.00  0.00    +0.000 OA
ATOM      4  C   UNL     1       2.782   8.442  17.746  0.00  0.00    +0.000 C 
ATOM      5  O   UNL     1       2.208   8.197  19.008  0.00  0.00    +0.000 OA
ATOM      6  C   UNL     1       2.437   6.950  19.510  0.00  0.00    +0.000 A 
ATOM      7  C   UNL     1       1.532   6.547  20.503  0.00  0.00    +0.000 A 
ATOM      8  C   UNL     1       1.616   5.274  21.067  0.00  0.00    +0.000 A 
ATOM      9  C   UNL     1       2.660   4.434  20.684  0.00  0.00    +0.000 A 
ATOM     10  C   UNL     1       3.599   4.859  19.724  0.00  0.00    +0.000 A 
ATOM     11  C   UNL     1       3.476   6.106  19.089  0.00  0.00    +0.000 A 
ENDROOT
BRANCH   9  12
ATOM     12  S   UNL     1       2.630   2.702  21.143  0.00  0.00    +0.000 S 
ATOM     13  O   UNL     1       3.979   2.350  21.533  0.00  0.00    +0.000 OA
ATOM     14  O   UNL     1       1.529   2.552  22.071  0.00  0.00    +0.000 OA
BRANCH  12  15
ATOM     15  N   UNL     1       2.240   1.853  19.756  0.00  0.00    +0.000 NA
ATOM     16  C   UNL     1       3.281   1.236  18.905  0.00  0.00    +0.000 C 
ATOM     17  C   UNL     1       3.494   2.039  17.621  0.00  0.00    +0.000 C 
ATOM     18  O   UNL     1       2.262   2.288  16.929  0.00  0.00    +0.000 OA
ATOM     19  C   UNL     1       1.308   2.960  17.765  0.00  0.00    +0.000 C 
ATOM     20  C   UNL     1       0.993   2.135  19.014  0.00  0.00    +0.000 C 
ENDBRANCH  12  15
ENDBRANCH   9  12
BRANCH   1  21
ATOM     21  C   UNL     1       5.294   5.590  17.408  0.00  0.00    +0.000 C 
BRANCH  21  23
ATOM     22  N   UNL     1       6.874   7.404  17.860  0.00  0.00    +0.000 N 
ATOM     23  C   UNL     1       6.745   6.053  17.630  0.00  0.00    +0.000 C 
ATOM     24  O   UNL     1       7.689   5.264  17.619  0.00  0.00    +0.000 OA
ATOM     25  H   UNL     1       6.094   7.796  18.394  0.00  0.00    +0.000 HD
BRANCH  22  26
ATOM     26  C   UNL     1       8.173   8.008  18.115  0.00  0.00    +0.000 C 
BRANCH  26  27
ATOM     27  C   UNL     1       8.322   9.362  17.418  0.00  0.00    +0.000 C 
BRANCH  27  32
ATOM     28  C   UNL     1      10.207  13.535  21.014  0.00  0.00    +0.000 C 
ATOM     29  C   UNL     1       9.746  12.461  20.073  0.00  0.00    +0.000 A 
ATOM     30  C   UNL     1       9.323  12.774  18.778  0.00  0.00    +0.000 A 
ATOM     31  C   UNL     1       8.875  11.769  17.918  0.00  0.00    +0.000 A 
ATOM     32  C   UNL     1       8.835  10.436  18.344  0.00  0.00    +0.000 A 
ATOM     33  C   UNL     1       9.274  10.120  19.635  0.00  0.00    +0.000 A 
ATOM     34  C   UNL     1       9.723  11.126  20.494  0.00  0.00    +0.000 A 
ENDBRANCH  27  32
ENDBRANCH  26  27
ENDBRANCH  22  26
ENDBRANCH  21  23
ENDBRANCH   1  21
TORSDOF 7
ENDMDL
MODEL 2
REMARK VINA RESULT:      -7.7      7.639     10.739
REMARK  Name = 
REMARK  8 active torsions:
REMARK  status: ('A' for Active; 'I' for Inactive)
REMARK    1  A    between atoms: C_1  and  C_2
REMARK    2  A    between atoms: C_5  and  C_6
REMARK    3  A    between atoms: C_6  and  C_7
REMARK    4  A    between atoms: C_7  and  N_8
REMARK    5  A    between atoms: C_9  and  C_11
REMARK    6  A    between atoms: C_11  and  N_12
REMARK    7  A    between atoms: C_20  and  S_21
REMARK    8  A    between atoms: S_21  and  N_24
REMARK                            x       y       z     vdW  Elec       q    Type
REMARK                         _______ _______ _______ _____ _____    ______ ____
ROOT
ATOM      1  N   UNL     1      -2.636  12.022  18.441  0.00  0.00    +0.000 N 
ATOM      2  C   UNL     1      -2.859  11.170  17.363  0.00  0.00    +0.000 C 
ATOM      3  O   UNL     1      -1.946  10.627  16.735  0.00  0.00    +0.000 OA
ATOM      4  C   UNL     1      -4.313  10.916  16.989  0.00  0.00    +0.000 C 
ATOM      5  O   UNL     1      -5.375  11.427  17.761  0.00  0.00    +0.000 OA
ATOM      6  C   UNL     1      -5.018  11.885  18.995  0.00  0.00    +0.000 A 
ATOM      7  C   UNL     1      -6.075  11.966  19.914  0.00  0.00    +0.000 A 
ATOM      8  C   UNL     1      -5.844  12.368  21.230  0.00  0.00    +0.000 A 
ATOM      9  C   UNL     1      -4.559  12.760  21.599  0.00  0.00    +0.000 A 
ATOM     10  C   UNL     1      -3.509  12.729  20.662  0.00  0.00    +0.000 A 
ATOM     11  C   UNL     1      -3.712  12.247  19.358  0.00  0.00    +0.000 A 
ENDROOT
BRANCH   9  12
ATOM     12  S   UNL     1      -4.154  12.984  23.330  0.00  0.00    +0.000 S 
ATOM     13  O   UNL     1      -5.408  13.135  24.037  0.00  0.00    +0.000 OA
ATOM     14  O   UNL     1      -3.238  11.916  23.669  0.00  0.00    +0.000 OA
BRANCH  12  15
ATOM     15  N   UNL     1      -3.310  14.424  23.435  0.00  0.00    +0.000 NA
ATOM     16  C   UNL     1      -2.052  14.533  24.204  0.00  0.00    +0.000 C 
ATOM     17  C   UNL     1      -2.272  15.270  25.526  0.00  0.00    +0.000 C 
ATOM     18  O   UNL     1      -2.938  16.528  25.338  0.00  0.00    +0.000 OA
ATOM     19  C   UNL     1      -4.193  16.369  24.659  0.00  0.00    +0.000 C 
ATOM     20  C   UNL     1      -3.999  15.724  23.286  0.00  0.00    +0.000 C 
ENDBRANCH  12  15
ENDBRANCH   9  12
BRANCH   1  21
ATOM     21  C   UNL     1      -1.240  12.245  18.819  0.00  0.00    +0.000 C 
BRANCH  21  23
ATOM     22  N   UNL     1       0.423  10.473  18.526  0.00  0.00    +0.000 N 
ATOM     23  C   UNL     1      -0.539  10.988  19.365  0.00  0.00    +0.000 C 
ATOM     24  O   UNL     1      -0.816  10.514  20.467  0.00  0.00    +0.000 OA
ATOM     25  H   UNL     1       0.933  11.195  18.010  0.00  0.00    +0.000 HD
BRANCH  22  26
ATOM     26  C   UNL     1       1.203   9.302  18.897  0.00  0.00    +0.000 C 
BRANCH  26  27
ATOM     27  C   UNL     1       2.072   8.802  17.741  0.00  0.00    +0.000 C 
BRANCH  27  32
ATOM     28  C   UNL     1       5.086   4.013  19.110  0.00  0.00    +0.000 C 
ATOM     29  C   UNL     1       4.322   5.261  18.779  0.00  0.00    +0.000 A 
ATOM     30  C   UNL     1       3.243   5.674  19.566  0.00  0.00    +0.000 A 
ATOM     31  C   UNL     1       2.525   6.825  19.235  0.00  0.00    +0.000 A 
ATOM     32  C   UNL     1       2.871   7.577  18.106  0.00  0.00    +0.000 A 
ATOM     33  C   UNL     1       3.961   7.174  17.327  0.00  0.00    +0.000 A 
ATOM     34  C   UNL     1       4.680   6.022  17.660  0.00  0.00    +0.000 A 
ENDBRANCH  27  32
ENDBRANCH  26  27
ENDBRANCH  22  26
ENDBRANCH  21  23
ENDBRANCH   1  21
TORSDOF 7
ENDMDL
MODEL 3
REMARK VINA RESULT:      -7.6      5.610      8.934
REMARK  Name = 
REMARK  8 active torsions:
REMARK  status: ('A' for Active; 'I' for Inactive)
REMARK    1  A    between atoms: C_1  and  C_2
REMARK    2  A    between atoms: C_5  and  C_6
REMARK    3  A    between atoms: C_6  and  C_7
REMARK    4  A    between atoms: C_7  and  N_8
REMARK    5  A    between atoms: C_9  and  C_11
REMARK    6  A    between atoms: C_11  and  N_12
REMARK    7  A    between atoms: C_20  and  S_21
REMARK    8  A    between atoms: S_21  and  N_24
REMARK                            x       y       z     vdW  Elec       q    Type
REMARK                         _______ _______ _______ _____ _____    ______ ____
ROOT
ATOM      1  N   UNL     1       1.030  10.383  20.872  0.00  0.00    +0.000 N 
ATOM      2  C   UNL     1       1.252  11.727  20.587  0.00  0.00    +0.000 C 
ATOM      3  O   UNL     1       1.340  12.595  21.460  0.00  0.00    +0.000 OA
ATOM      4  C   UNL     1       1.401  12.092  19.115  0.00  0.00    +0.000 C 
ATOM      5  O   UNL     1       1.423  11.108  18.108  0.00  0.00    +0.000 OA
ATOM      6  C   UNL     1       1.610   9.834  18.556  0.00  0.00    +0.000 A 
ATOM      7  C   UNL     1       2.077   8.938  17.583  0.00  0.00    +0.000 A 
ATOM      8  C   UNL     1       2.362   7.613  17.915  0.00  0.00    +0.000 A 
ATOM      9  C   UNL     1       2.104   7.173  19.212  0.00  0.00    +0.000 A 
ATOM     10  C   UNL     1       1.586   8.060  20.174  0.00  0.00    +0.000 A 
ATOM     11  C   UNL     1       1.373   9.415  19.874  0.00  0.00    +0.000 A 
ENDROOT
BRANCH   9  12
ATOM     12  S   UNL     1       2.735   5.588  19.761  0.00  0.00    +0.000 S 
ATOM     13  O   UNL     1       4.179   5.679  19.729  0.00  0.00    +0.000 OA
ATOM     14  O   UNL     1       2.040   5.285  20.995  0.00  0.00    +0.000 OA
BRANCH  12  15
ATOM     15  N   UNL     1       2.249   4.466  18.621  0.00  0.00    +0.000 NA
ATOM     16  C   UNL     1       1.213   3.453  18.920  0.00  0.00    +0.000 C 
ATOM     17  C   UNL     1       1.834   2.070  19.126  0.00  0.00    +0.000 C 
ATOM     18  O   UNL     1       2.700   1.700  18.043  0.00  0.00    +0.000 OA
ATOM     19  C   UNL     1       3.739   2.669  17.838  0.00  0.00    +0.000 C 
ATOM     20  C   UNL     1       3.153   4.048  17.528  0.00  0.00    +0.000 C 
ENDBRANCH  12  15
ENDBRANCH   9  12
BRANCH   1  21
ATOM     21  C   UNL     1       0.915  10.026  22.286  0.00  0.00    +0.000 C 
BRANCH  21  23
ATOM     22  N   UNL     1      -0.993  11.438  22.883  0.00  0.00    +0.000 N 
ATOM     23  C   UNL     1      -0.515  10.148  22.841  0.00  0.00    +0.000 C 
ATOM     24  O   UNL     1      -1.164   9.163  23.191  0.00  0.00    +0.000 OA
ATOM     25  H   UNL     1      -0.665  12.013  22.101  0.00  0.00    +0.000 HD
BRANCH  22  26
ATOM     26  C   UNL     1      -2.337  11.733  23.356  0.00  0.00    +0.000 C 
BRANCH  26  27
ATOM     27  C   UNL     1      -2.881  13.035  22.763  0.00  0.00    +0.000 C 
BRANCH  27  32
ATOM     28  C   UNL     1      -7.271  12.230  19.026  0.00  0.00    +0.000 C 
ATOM     29  C   UNL     1      -6.143  12.410  19.997  0.00  0.00    +0.000 A 
ATOM     30  C   UNL     1      -6.390  12.568  21.365  0.00  0.00    +0.000 A 
ATOM     31  C   UNL     1      -5.333  12.759  22.257  0.00  0.00    +0.000 A 
ATOM     32  C   UNL     1      -4.012  12.800  21.795  0.00  0.00    +0.000 A 
ATOM     33  C   UNL     1      -3.763  12.625  20.429  0.00  0.00    +0.000 A 
ATOM     34  C   UNL     1      -4.821  12.435  19.537  0.00  0.00    +0.000 A 
ENDBRANCH  27  32
ENDBRANCH  26  27
ENDBRANCH  22  26
ENDBRANCH  21  23
ENDBRANCH   1  21
TORSDOF 7
ENDMDL
MODEL 4
REMARK VINA RESULT:      -7.4      5.905     10.169
REMARK  Name = 
REMARK  8 active torsions:
REMARK  status: ('A' for Active; 'I' for Inactive)
REMARK    1  A    between atoms: C_1  and  C_2
REMARK    2  A    between atoms: C_5  and  C_6
REMARK    3  A    between atoms: C_6  and  C_7
REMARK    4  A    between atoms: C_7  and  N_8
REMARK    5  A    between atoms: C_9  and  C_11
REMARK    6  A    between atoms: C_11  and  N_12
REMARK    7  A    between atoms: C_20  and  S_21
REMARK    8  A    between atoms: S_21  and  N_24
REMARK                            x       y       z     vdW  Elec       q    Type
REMARK                         _______ _______ _______ _____ _____    ______ ____
ROOT
ATOM      1  N   UNL     1      -0.656  10.426  20.588  0.00  0.00    +0.000 N 
ATOM      2  C   UNL     1      -0.281   9.428  21.483  0.00  0.00    +0.000 C 
ATOM      3  O   UNL     1       0.196   8.347  21.125  0.00  0.00    +0.000 OA
ATOM      4  C   UNL     1      -0.474   9.737  22.962  0.00  0.00    +0.000 C 
ATOM      5  O   UNL     1      -0.904  11.004  23.403  0.00  0.00    +0.000 OA
ATOM      6  C   UNL     1      -0.835  11.991  22.464  0.00  0.00    +0.000 A 
ATOM      7  C   UNL     1      -0.820  13.292  22.988  0.00  0.00    +0.000 A 
ATOM      8  C   UNL     1      -0.699  14.396  22.144  0.00  0.00    +0.000 A 
ATOM      9  C   UNL     1      -0.670  14.192  20.766  0.00  0.00    +0.000 A 
ATOM     10  C   UNL     1      -0.738  12.888  20.239  0.00  0.00    +0.000 A 
ATOM     11  C   UNL     1      -0.776  11.765  21.080  0.00  0.00    +0.000 A 
ENDROOT
BRANCH   9  12
ATOM     12  S   UNL     1      -0.210  15.535  19.672  0.00  0.00    +0.000 S 
ATOM     13  O   UNL     1      -0.373  15.046  18.319  0.00  0.00    +0.000 OA
ATOM     14  O   UNL     1      -0.943  16.696  20.132  0.00  0.00    +0.000 OA
BRANCH  12  15
ATOM     15  N   UNL     1       1.415  15.825  19.938  0.00  0.00    +0.000 NA
ATOM     16  C   UNL     1       2.094  17.012  19.375  0.00  0.00    +0.000 C 
ATOM     17  C   UNL     1       2.981  16.632  18.189  0.00  0.00    +0.000 C 
ATOM     18  O   UNL     1       3.878  15.558  18.508  0.00  0.00    +0.000 OA
ATOM     19  C   UNL     1       3.173  14.397  18.973  0.00  0.00    +0.000 C 
ATOM     20  C   UNL     1       2.351  14.717  20.224  0.00  0.00    +0.000 C 
ENDBRANCH  12  15
ENDBRANCH   9  12
BRANCH   1  21
ATOM     21  C   UNL     1      -0.444  10.142  19.168  0.00  0.00    +0.000 C 
BRANCH  21  23
ATOM     22  N   UNL     1       1.443   8.752  18.462  0.00  0.00    +0.000 N 
ATOM     23  C   UNL     1       1.040  10.031  18.774  0.00  0.00    +0.000 C 
ATOM     24  O   UNL     1       1.777  11.015  18.727  0.00  0.00    +0.000 OA
ATOM     25  H   UNL     1       0.716   8.206  17.992  0.00  0.00    +0.000 HD
BRANCH  22  26
ATOM     26  C   UNL     1       2.808   8.470  18.042  0.00  0.00    +0.000 C 
BRANCH  26  27
ATOM     27  C   UNL     1       2.940   7.077  17.423  0.00  0.00    +0.000 C 
BRANCH  27  32
ATOM     28  C   UNL     1       1.186   2.905  21.085  0.00  0.00    +0.000 C 
ATOM     29  C   UNL     1       1.665   3.970  20.144  0.00  0.00    +0.000 A 
ATOM     30  C   UNL     1       2.342   5.098  20.619  0.00  0.00    +0.000 A 
ATOM     31  C   UNL     1       2.763   6.094  19.736  0.00  0.00    +0.000 A 
ATOM     32  C   UNL     1       2.507   5.982  18.364  0.00  0.00    +0.000 A 
ATOM     33  C   UNL     1       1.844   4.846  17.886  0.00  0.00    +0.000 A 
ATOM     34  C   UNL     1       1.424   3.849  18.770  0.00  0.00    +0.000 A 
ENDBRANCH  27  32
ENDBRANCH  26  27
ENDBRANCH  22  26
ENDBRANCH  21  23
ENDBRANCH   1  21
TORSDOF 7
ENDMDL
MODEL 5
REMARK VINA RESULT:      -7.3      7.444     11.058
REMARK  Name = 
REMARK  8 active torsions:
REMARK  status: ('A' for Active; 'I' for Inactive)
REMARK    1  A    between atoms: C_1  and  C_2
REMARK    2  A    between atoms: C_5  and  C_6
REMARK    3  A    between atoms: C_6  and  C_7
REMARK    4  A    between atoms: C_7  and  N_8
REMARK    5  A    between atoms: C_9  and  C_11
REMARK    6  A    between atoms: C_11  and  N_12
REMARK    7  A    between atoms: C_20  and  S_21
REMARK    8  A    between atoms: S_21  and  N_24
REMARK                            x       y       z     vdW  Elec       q    Type
REMARK                         _______ _______ _______ _____ _____    ______ ____
ROOT
ATOM      1  N   UNL     1      -1.981  11.568  18.680  0.00  0.00    +0.000 N 
ATOM      2  C   UNL     1      -2.073  10.640  17.647  0.00  0.00    +0.000 C 
ATOM      3  O   UNL     1      -1.115   9.961  17.264  0.00  0.00    +0.000 OA
ATOM      4  C   UNL     1      -3.443  10.478  17.000  0.00  0.00    +0.000 C 
ATOM      5  O   UNL     1      -4.578  11.151  17.494  0.00  0.00    +0.000 OA
ATOM      6  C   UNL     1      -4.427  11.691  18.738  0.00  0.00    +0.000 A 
ATOM      7  C   UNL     1      -5.631  11.950  19.409  0.00  0.00    +0.000 A 
ATOM      8  C   UNL     1      -5.626  12.454  20.710  0.00  0.00    +0.000 A 
ATOM      9  C   UNL     1      -4.406  12.767  21.306  0.00  0.00    +0.000 A 
ATOM     10  C   UNL     1      -3.200  12.555  20.612  0.00  0.00    +0.000 A 
ATOM     11  C   UNL     1      -3.189  11.971  19.335  0.00  0.00    +0.000 A 
ENDROOT
BRANCH   9  12
ATOM     12  S   UNL     1      -4.332  13.118  23.062  0.00  0.00    +0.000 S 
ATOM     13  O   UNL     1      -5.521  12.542  23.654  0.00  0.00    +0.000 OA
ATOM     14  O   UNL     1      -3.015  12.706  23.499  0.00  0.00    +0.000 OA
BRANCH  12  15
ATOM     15  N   UNL     1      -4.417  14.781  23.214  0.00  0.00    +0.000 NA
ATOM     16  C   UNL     1      -4.394  15.671  22.034  0.00  0.00    +0.000 C 
ATOM     17  C   UNL     1      -3.038  16.364  21.888  0.00  0.00    +0.000 C 
ATOM     18  O   UNL     1      -2.630  17.013  23.101  0.00  0.00    +0.000 OA
ATOM     19  C   UNL     1      -2.587  16.097  24.206  0.00  0.00    +0.000 C 
ATOM     20  C   UNL     1      -3.957  15.459  24.446  0.00  0.00    +0.000 C 
ENDBRANCH  12  15
ENDBRANCH   9  12
BRANCH   1  21
ATOM     21  C   UNL     1      -0.674  11.703  19.321  0.00  0.00    +0.000 C 
BRANCH  21  23
ATOM     22  N   UNL     1       0.762   9.731  19.533  0.00  0.00    +0.000 N 
ATOM     23  C   UNL     1      -0.246  10.460  20.123  0.00  0.00    +0.000 C 
ATOM     24  O   UNL     1      -0.758  10.175  21.205  0.00  0.00    +0.000 OA
ATOM     25  H   UNL     1       1.440  10.314  19.036  0.00  0.00    +0.000 HD
BRANCH  22  26
ATOM     26  C   UNL     1       1.306   8.540  20.167  0.00  0.00    +0.000 C 
BRANCH  26  27
ATOM     27  C   UNL     1       2.297   7.809  19.260  0.00  0.00    +0.000 C 
BRANCH  27  32
ATOM     28  C   UNL     1       1.406   2.056  19.280  0.00  0.00    +0.000 C 
ATOM     29  C   UNL     1       1.662   3.534  19.287  0.00  0.00    +0.000 A 
ATOM     30  C   UNL     1       1.582   4.272  20.471  0.00  0.00    +0.000 A 
ATOM     31  C   UNL     1       1.799   5.652  20.461  0.00  0.00    +0.000 A 
ATOM     32  C   UNL     1       2.093   6.315  19.264  0.00  0.00    +0.000 A 
ATOM     33  C   UNL     1       2.189   5.575  18.081  0.00  0.00    +0.000 A 
ATOM     34  C   UNL     1       1.972   4.195  18.092  0.00  0.00    +0.000 A 
ENDBRANCH  27  32
ENDBRANCH  26  27
ENDBRANCH  22  26
ENDBRANCH  21  23
ENDBRANCH   1  21
TORSDOF 7
ENDMDL
MODEL 6
REMARK VINA RESULT:      -7.3      6.203     10.141
REMARK  Name = 
REMARK  8 active torsions:
REMARK  status: ('A' for Active; 'I' for Inactive)
REMARK    1  A    between atoms: C_1  and  C_2
REMARK    2  A    between atoms: C_5  and  C_6
REMARK    3  A    between atoms: C_6  and  C_7
REMARK    4  A    between atoms: C_7  and  N_8
REMARK    5  A    between atoms: C_9  and  C_11
REMARK    6  A    between atoms: C_11  and  N_12
REMARK    7  A    between atoms: C_20  and  S_21
REMARK    8  A    between atoms: S_21  and  N_24
REMARK                            x       y       z     vdW  Elec       q    Type
REMARK                         _______ _______ _______ _____ _____    ______ ____
ROOT
ATOM      1  N   UNL     1      -0.611  10.174  20.615  0.00  0.00    +0.000 N 
ATOM      2  C   UNL     1      -0.151   9.198  21.494  0.00  0.00    +0.000 C 
ATOM      3  O   UNL     1       0.377   8.147  21.117  0.00  0.00    +0.000 OA
ATOM      4  C   UNL     1      -0.317   9.491  22.980  0.00  0.00    +0.000 C 
ATOM      5  O   UNL     1      -0.807  10.729  23.439  0.00  0.00    +0.000 OA
ATOM      6  C   UNL     1      -0.825  11.720  22.503  0.00  0.00    +0.000 A 
ATOM      7  C   UNL     1      -0.870  13.019  23.032  0.00  0.00    +0.000 A 
ATOM      8  C   UNL     1      -0.840  14.131  22.189  0.00  0.00    +0.000 A 
ATOM      9  C   UNL     1      -0.840  13.932  20.810  0.00  0.00    +0.000 A 
ATOM     10  C   UNL     1      -0.848  12.628  20.280  0.00  0.00    +0.000 A 
ATOM     11  C   UNL     1      -0.795  11.502  21.117  0.00  0.00    +0.000 A 
ENDROOT
BRANCH   9  12
ATOM     12  S   UNL     1      -0.493  15.302  19.709  0.00  0.00    +0.000 S 
ATOM     13  O   UNL     1      -0.291  14.738  18.391  0.00  0.00    +0.000 OA
ATOM     14  O   UNL     1      -1.537  16.279  19.942  0.00  0.00    +0.000 OA
BRANCH  12  15
ATOM     15  N   UNL     1       0.949  15.971  20.227  0.00  0.00    +0.000 NA
ATOM     16  C   UNL     1       0.992  17.264  20.943  0.00  0.00    +0.000 C 
ATOM     17  C   UNL     1       1.503  18.384  20.035  0.00  0.00    +0.000 C 
ATOM     18  O   UNL     1       2.743  18.041  19.400  0.00  0.00    +0.000 OA
ATOM     19  C   UNL     1       2.636  16.822  18.648  0.00  0.00    +0.000 C 
ATOM     20  C   UNL     1       2.223  15.655  19.548  0.00  0.00    +0.000 C 
ENDBRANCH  12  15
ENDBRANCH   9  12
BRANCH   1  21
ATOM     21  C   UNL     1      -0.426   9.907  19.189  0.00  0.00    +0.000 C 
BRANCH  21  23
ATOM     22  N   UNL     1       1.450   8.468  18.554  0.00  0.00    +0.000 N 
ATOM     23  C   UNL     1       1.049   9.767  18.771  0.00  0.00    +0.000 C 
ATOM     24  O   UNL     1       1.782  10.745  18.629  0.00  0.00    +0.000 OA
ATOM     25  H   UNL     1       0.714   7.884  18.147  0.00  0.00    +0.000 HD
BRANCH  22  26
ATOM     26  C   UNL     1       2.805   8.154  18.128  0.00  0.00    +0.000 C 
BRANCH  26  27
ATOM     27  C   UNL     1       3.223   6.741  18.539  0.00  0.00    +0.000 C 
BRANCH  27  32
ATOM     28  C   UNL     1       6.168   3.995  14.334  0.00  0.00    +0.000 C 
ATOM     29  C   UNL     1       5.431   4.696  15.436  0.00  0.00    +0.000 A 
ATOM     30  C   UNL     1       4.761   3.972  16.428  0.00  0.00    +0.000 A 
ATOM     31  C   UNL     1       4.059   4.636  17.435  0.00  0.00    +0.000 A 
ATOM     32  C   UNL     1       4.009   6.035  17.463  0.00  0.00    +0.000 A 
ATOM     33  C   UNL     1       4.692   6.760  16.481  0.00  0.00    +0.000 A 
ATOM     34  C   UNL     1       5.395   6.095  15.473  0.00  0.00    +0.000 A 
ENDBRANCH  27  32
ENDBRANCH  26  27
ENDBRANCH  22  26
ENDBRANCH  21  23
ENDBRANCH   1  21
TORSDOF 7
ENDMDL
MODEL 7
REMARK VINA RESULT:      -7.2      3.902      7.663
REMARK  Name = 
REMARK  8 active torsions:
REMARK  status: ('A' for Active; 'I' for Inactive)
REMARK    1  A    between atoms: C_1  and  C_2
REMARK    2  A    between atoms: C_5  and  C_6
REMARK    3  A    between atoms: C_6  and  C_7
REMARK    4  A    between atoms: C_7  and  N_8
REMARK    5  A    between atoms: C_9  and  C_11
REMARK    6  A    between atoms: C_11  and  N_12
REMARK    7  A    between atoms: C_20  and  S_21
REMARK    8  A    between atoms: S_21  and  N_24
REMARK                            x       y       z     vdW  Elec       q    Type
REMARK                         _______ _______ _______ _____ _____    ______ ____
ROOT
ATOM      1  N   UNL     1       2.506   5.876  19.867  0.00  0.00    +0.000 N 
ATOM      2  C   UNL     1       1.266   5.491  20.367  0.00  0.00    +0.000 C 
ATOM      3  O   UNL     1       0.474   6.283  20.886  0.00  0.00    +0.000 OA
ATOM      4  C   UNL     1       0.908   4.017  20.230  0.00  0.00    +0.000 C 
ATOM      5  O   UNL     1       1.739   3.115  19.538  0.00  0.00    +0.000 OA
ATOM      6  C   UNL     1       2.695   3.699  18.759  0.00  0.00    +0.000 A 
ATOM      7  C   UNL     1       3.209   2.872  17.750  0.00  0.00    +0.000 A 
ATOM      8  C   UNL     1       4.155   3.356  16.847  0.00  0.00    +0.000 A 
ATOM      9  C   UNL     1       4.639   4.653  17.008  0.00  0.00    +0.000 A 
ATOM     10  C   UNL     1       4.161   5.465  18.054  0.00  0.00    +0.000 A 
ATOM     11  C   UNL     1       3.148   5.017  18.918  0.00  0.00    +0.000 A 
ENDROOT
BRANCH   9  12
ATOM     12  S   UNL     1       5.609   5.414  15.708  0.00  0.00    +0.000 S 
ATOM     13  O   UNL     1       5.742   4.430  14.655  0.00  0.00    +0.000 OA
ATOM     14  O   UNL     1       4.992   6.698  15.447  0.00  0.00    +0.000 OA
BRANCH  12  15
ATOM     15  N   UNL     1       7.123   5.704  16.357  0.00  0.00    +0.000 NA
ATOM     16  C   UNL     1       7.741   4.778  17.330  0.00  0.00    +0.000 C 
ATOM     17  C   UNL     1       7.694   5.351  18.747  0.00  0.00    +0.000 C 
ATOM     18  O   UNL     1       8.224   6.683  18.810  0.00  0.00    +0.000 OA
ATOM     19  C   UNL     1       7.543   7.569  17.908  0.00  0.00    +0.000 C 
ATOM     20  C   UNL     1       7.656   7.079  16.463  0.00  0.00    +0.000 C 
ENDBRANCH  12  15
ENDBRANCH   9  12
BRANCH   1  21
ATOM     21  C   UNL     1       2.839   7.297  19.971  0.00  0.00    +0.000 C 
BRANCH  21  23
ATOM     22  N   UNL     1       1.135   9.052  19.898  0.00  0.00    +0.000 N 
ATOM     23  C   UNL     1       1.920   8.211  19.141  0.00  0.00    +0.000 C 
ATOM     24  O   UNL     1       1.917   8.189  17.912  0.00  0.00    +0.000 OA
ATOM     25  H   UNL     1       1.603   9.382  20.746  0.00  0.00    +0.000 HD
BRANCH  22  26
ATOM     26  C   UNL     1       0.225  10.002  19.276  0.00  0.00    +0.000 C 
BRANCH  26  27
ATOM     27  C   UNL     1       0.359  11.402  19.877  0.00  0.00    +0.000 C 
BRANCH  27  32
ATOM     28  C   UNL     1      -3.694  12.392  23.938  0.00  0.00    +0.000 C 
ATOM     29  C   UNL     1      -2.639  12.163  22.897  0.00  0.00    +0.000 A 
ATOM     30  C   UNL     1      -2.735  12.757  21.634  0.00  0.00    +0.000 A 
ATOM     31  C   UNL     1      -1.759  12.518  20.665  0.00  0.00    +0.000 A 
ATOM     32  C   UNL     1      -0.675  11.676  20.940  0.00  0.00    +0.000 A 
ATOM     33  C   UNL     1      -0.570  11.095  22.209  0.00  0.00    +0.000 A 
ATOM     34  C   UNL     1      -1.547  11.335  23.179  0.00  0.00    +0.000 A 
ENDBRANCH  27  32
ENDBRANCH  26  27
ENDBRANCH  22  26
ENDBRANCH  21  23
ENDBRANCH   1  21
TORSDOF 7
ENDMDL
MODEL 8
REMARK VINA RESULT:      -7.2      7.248     10.673
REMARK  Name = 
REMARK  8 active torsions:
REMARK  status: ('A' for Active; 'I' for Inactive)
REMARK    1  A    between atoms: C_1  and  C_2
REMARK    2  A    between atoms: C_5  and  C_6
REMARK    3  A    between atoms: C_6  and  C_7
REMARK    4  A    between atoms: C_7  and  N_8
REMARK    5  A    between atoms: C_9  and  C_11
REMARK    6  A    between atoms: C_11  and  N_12
REMARK    7  A    between atoms: C_20  and  S_21
REMARK    8  A    between atoms: S_21  and  N_24
REMARK                            x       y       z     vdW  Elec       q    Type
REMARK                         _______ _______ _______ _____ _____    ______ ____
ROOT
ATOM      1  N   UNL     1      -2.317  12.082  18.326  0.00  0.00    +0.000 N 
ATOM      2  C   UNL     1      -2.818  11.456  17.187  0.00  0.00    +0.000 C 
ATOM      3  O   UNL     1      -2.101  10.868  16.372  0.00  0.00    +0.000 OA
ATOM      4  C   UNL     1      -4.327  11.515  16.989  0.00  0.00    +0.000 C 
ATOM      5  O   UNL     1      -5.179  12.076  17.960  0.00  0.00    +0.000 OA
ATOM      6  C   UNL     1      -4.604  12.270  19.182  0.00  0.00    +0.000 A 
ATOM      7  C   UNL     1      -5.516  12.389  20.242  0.00  0.00    +0.000 A 
ATOM      8  C   UNL     1      -5.066  12.539  21.554  0.00  0.00    +0.000 A 
ATOM      9  C   UNL     1      -3.697  12.644  21.789  0.00  0.00    +0.000 A 
ATOM     10  C   UNL     1      -2.785  12.577  20.719  0.00  0.00    +0.000 A 
ATOM     11  C   UNL     1      -3.221  12.344  19.404  0.00  0.00    +0.000 A 
ENDROOT
BRANCH   9  12
ATOM     12  S   UNL     1      -3.065  12.527  23.462  0.00  0.00    +0.000 S 
ATOM     13  O   UNL     1      -4.115  11.939  24.265  0.00  0.00    +0.000 OA
ATOM     14  O   UNL     1      -1.769  11.888  23.356  0.00  0.00    +0.000 OA
BRANCH  12  15
ATOM     15  N   UNL     1      -2.813  14.095  23.982  0.00  0.00    +0.000 NA
ATOM     16  C   UNL     1      -3.936  15.039  24.174  0.00  0.00    +0.000 C 
ATOM     17  C   UNL     1      -3.992  16.070  23.046  0.00  0.00    +0.000 C 
ATOM     18  O   UNL     1      -2.728  16.718  22.842  0.00  0.00    +0.000 OA
ATOM     19  C   UNL     1      -1.682  15.772  22.579  0.00  0.00    +0.000 C 
ATOM     20  C   UNL     1      -1.528  14.784  23.737  0.00  0.00    +0.000 C 
ENDBRANCH  12  15
ENDBRANCH   9  12
BRANCH   1  21
ATOM     21  C   UNL     1      -0.871  12.001  18.532  0.00  0.00    +0.000 C 
BRANCH  21  23
ATOM     22  N   UNL     1       0.659  10.250  17.768  0.00  0.00    +0.000 N 
ATOM     23  C   UNL     1      -0.344  10.561  18.659  0.00  0.00    +0.000 C 
ATOM     24  O   UNL     1      -0.779   9.780  19.504  0.00  0.00    +0.000 OA
ATOM     25  H   UNL     1       1.281  11.039  17.574  0.00  0.00    +0.000 HD
BRANCH  22  26
ATOM     26  C   UNL     1       1.291   8.939  17.766  0.00  0.00    +0.000 C 
BRANCH  26  27
ATOM     27  C   UNL     1       1.905   8.597  19.125  0.00  0.00    +0.000 C 
BRANCH  27  32
ATOM     28  C   UNL     1       2.586   2.858  19.832  0.00  0.00    +0.000 C 
ATOM     29  C   UNL     1       2.435   4.341  19.666  0.00  0.00    +0.000 A 
ATOM     30  C   UNL     1       1.975   5.140  20.717  0.00  0.00    +0.000 A 
ATOM     31  C   UNL     1       1.816   6.516  20.543  0.00  0.00    +0.000 A 
ATOM     32  C   UNL     1       2.107   7.115  19.311  0.00  0.00    +0.000 A 
ATOM     33  C   UNL     1       2.583   6.319  18.263  0.00  0.00    +0.000 A 
ATOM     34  C   UNL     1       2.743   4.942  18.439  0.00  0.00    +0.000 A 
ENDBRANCH  27  32
ENDBRANCH  26  27
ENDBRANCH  22  26
ENDBRANCH  21  23
ENDBRANCH   1  21
TORSDOF 7
ENDMDL
MODEL 9
REMARK VINA RESULT:      -7.2      7.362     10.705
REMARK  Name = 
REMARK  8 active torsions:
REMARK  status: ('A' for Active; 'I' for Inactive)
REMARK    1  A    between atoms: C_1  and  C_2
REMARK    2  A    between atoms: C_5  and  C_6
REMARK    3  A    between atoms: C_6  and  C_7
REMARK    4  A    between atoms: C_7  and  N_8
REMARK    5  A    between atoms: C_9  and  C_11
REMARK    6  A    between atoms: C_11  and  N_12
REMARK    7  A    between atoms: C_20  and  S_21
REMARK    8  A    between atoms: S_21  and  N_24
REMARK                            x       y       z     vdW  Elec       q    Type
REMARK                         _______ _______ _______ _____ _____    ______ ____
ROOT
ATOM      1  N   UNL     1      -2.645  11.999  18.383  0.00  0.00    +0.000 N 
ATOM      2  C   UNL     1      -3.225  11.454  17.241  0.00  0.00    +0.000 C 
ATOM      3  O   UNL     1      -2.587  10.804  16.407  0.00  0.00    +0.000 OA
ATOM      4  C   UNL     1      -4.720  11.683  17.065  0.00  0.00    +0.000 C 
ATOM      5  O   UNL     1      -5.493  12.317  18.057  0.00  0.00    +0.000 OA
ATOM      6  C   UNL     1      -4.886  12.423  19.274  0.00  0.00    +0.000 A 
ATOM      7  C   UNL     1      -5.768  12.622  20.348  0.00  0.00    +0.000 A 
ATOM      8  C   UNL     1      -5.288  12.697  21.656  0.00  0.00    +0.000 A 
ATOM      9  C   UNL     1      -3.913  12.646  21.874  0.00  0.00    +0.000 A 
ATOM     10  C   UNL     1      -3.026  12.498  20.791  0.00  0.00    +0.000 A 
ATOM     11  C   UNL     1      -3.501  12.339  19.478  0.00  0.00    +0.000 A 
ENDROOT
BRANCH   9  12
ATOM     12  S   UNL     1      -3.278  12.428  23.536  0.00  0.00    +0.000 S 
ATOM     13  O   UNL     1      -4.399  12.035  24.364  0.00  0.00    +0.000 OA
ATOM     14  O   UNL     1      -2.116  11.574  23.412  0.00  0.00    +0.000 OA
BRANCH  12  15
ATOM     15  N   UNL     1      -2.748  13.932  24.039  0.00  0.00    +0.000 NA
ATOM     16  C   UNL     1      -3.667  15.087  24.136  0.00  0.00    +0.000 C 
ATOM     17  C   UNL     1      -3.446  16.069  22.985  0.00  0.00    +0.000 C 
ATOM     18  O   UNL     1      -2.067  16.445  22.853  0.00  0.00    +0.000 OA
ATOM     19  C   UNL     1      -1.219  15.300  22.679  0.00  0.00    +0.000 C 
ATOM     20  C   UNL     1      -1.338  14.341  23.865  0.00  0.00    +0.000 C 
ENDBRANCH  12  15
ENDBRANCH   9  12
BRANCH   1  21
ATOM     21  C   UNL     1      -1.215  11.754  18.568  0.00  0.00    +0.000 C 
BRANCH  21  23
ATOM     22  N   UNL     1      -0.468  10.373  20.446  0.00  0.00    +0.000 N 
ATOM     23  C   UNL     1      -0.893  10.360  19.137  0.00  0.00    +0.000 C 
ATOM     24  O   UNL     1      -1.031   9.337  18.468  0.00  0.00    +0.000 OA
ATOM     25  H   UNL     1      -0.926  11.095  21.009  0.00  0.00    +0.000 HD
BRANCH  22  26
ATOM     26  C   UNL     1      -0.145   9.141  21.149  0.00  0.00    +0.000 C 
BRANCH  26  27
ATOM     27  C   UNL     1       1.361   8.871  21.171  0.00  0.00    +0.000 C 
BRANCH  27  32
ATOM     28  C   UNL     1       2.789   4.437  17.678  0.00  0.00    +0.000 C 
ATOM     29  C   UNL     1       2.446   5.576  18.592  0.00  0.00    +0.000 A 
ATOM     30  C   UNL     1       2.011   5.342  19.901  0.00  0.00    +0.000 A 
ATOM     31  C   UNL     1       1.672   6.409  20.735  0.00  0.00    +0.000 A 
ATOM     32  C   UNL     1       1.756   7.727  20.271  0.00  0.00    +0.000 A 
ATOM     33  C   UNL     1       2.207   7.963  18.968  0.00  0.00    +0.000 A 
ATOM     34  C   UNL     1       2.547   6.895  18.134  0.00  0.00    +0.000 A 
ENDBRANCH  27  32
ENDBRANCH  26  27
ENDBRANCH  22  26
ENDBRANCH  21  23
ENDBRANCH   1  21
TORSDOF 7
ENDMDL
