MODEL 1
REMARK VINA RESULT:      -7.4      0.000      0.000
REMARK  Name = 
REMARK  4 active torsions:
REMARK  status: ('A' for Active; 'I' for Inactive)
REMARK    1  A    between atoms: S_2  and  N_4
REMARK    2  A    between atoms: S_2  and  C_15
REMARK    3  A    between atoms: N_4  and  C_5
REMARK    4  A    between atoms: C_8  and  C_9
REMARK                            x       y       z     vdW  Elec       q    Type
REMARK                         _______ _______ _______ _____ _____    ______ ____
ROOT
ATOM      1  N   UNL     1       4.301   2.834  18.114  0.00  0.00    +0.000 N 
ATOM      2  H   UNL     1       4.496   2.055  17.483  0.00  0.00    +0.000 HD
ENDROOT
BRANCH   1   3
ATOM      3  C   UNL     1       5.165   3.960  17.997  0.00  0.00    +0.000 A 
ATOM      4  C   UNL     1       5.695   4.531  19.152  0.00  0.00    +0.000 A 
ATOM      5  C   UNL     1       6.507   5.665  19.065  0.00  0.00    +0.000 A 
ATOM      6  C   UNL     1       6.776   6.254  17.820  0.00  0.00    +0.000 A 
ATOM      7  C   UNL     1       6.222   5.675  16.666  0.00  0.00    +0.000 A 
ATOM      8  C   UNL     1       5.423   4.531  16.753  0.00  0.00    +0.000 A 
BRANCH   6   9
ATOM      9  C   UNL     1       7.641   7.486  17.707  0.00  0.00    +0.000 C 
ATOM     10  F   UNL     1       6.944   8.654  17.787  0.00  0.00    +0.000 F 
ATOM     11  F   UNL     1       8.587   7.546  18.684  0.00  0.00    +0.000 F 
ATOM     12  F   UNL     1       8.319   7.534  16.526  0.00  0.00    +0.000 F 
ENDBRANCH   6   9
ENDBRANCH   1   3
BRANCH   1  14
ATOM     13  O   UNL     1       2.142   3.214  16.838  0.00  0.00    +0.000 OA
ATOM     14  S   UNL     1       2.639   3.150  18.194  0.00  0.00    +0.000 S 
ATOM     15  O   UNL     1       2.025   2.305  19.194  0.00  0.00    +0.000 OA
BRANCH  14  16
ATOM     16  C   UNL     1       2.402   4.759  18.779  0.00  0.00    +0.000 A 
ATOM     17  C   UNL     1       2.363   5.919  17.938  0.00  0.00    +0.000 A 
ATOM     18  C   UNL     1       2.174   7.058  18.680  0.00  0.00    +0.000 A 
ATOM     19 CL   UNL     1       2.072   8.664  18.085  0.00  0.00    +0.000 Cl
ATOM     20  S   UNL     1       2.034   6.767  20.341  0.00  0.00    +0.000 S 
ATOM     21  C   UNL     1       2.230   5.094  20.100  0.00  0.00    +0.000 A 
ATOM     22 CL   UNL     1       2.164   4.065  21.477  0.00  0.00    +0.000 Cl
ENDBRANCH  14  16
ENDBRANCH   1  14
TORSDOF 4
ENDMDL
MODEL 2
REMARK VINA RESULT:      -7.2      0.189      1.347
REMARK  Name = 
REMARK  4 active torsions:
REMARK  status: ('A' for Active; 'I' for Inactive)
REMARK    1  A    between atoms: S_2  and  N_4
REMARK    2  A    between atoms: S_2  and  C_15
REMARK    3  A    between atoms: N_4  and  C_5
REMARK    4  A    between atoms: C_8  and  C_9
REMARK                            x       y       z     vdW  Elec       q    Type
REMARK                         _______ _______ _______ _____ _____    ______ ____
ROOT
ATOM      1  N   UNL     1       4.389   2.874  17.969  0.00  0.00    +0.000 N 
ATOM      2  H   UNL     1       4.596   2.178  17.250  0.00  0.00    +0.000 HD
ENDROOT
BRANCH   1   3
ATOM      3  C   UNL     1       5.174   4.061  17.929  0.00  0.00    +0.000 A 
ATOM      4  C   UNL     1       5.388   4.692  16.705  0.00  0.00    +0.000 A 
ATOM      5  C   UNL     1       6.193   5.831  16.634  0.00  0.00    +0.000 A 
ATOM      6  C   UNL     1       6.814   6.336  17.786  0.00  0.00    +0.000 A 
ATOM      7  C   UNL     1       6.601   5.681  19.011  0.00  0.00    +0.000 A 
ATOM      8  C   UNL     1       5.782   4.550  19.083  0.00  0.00    +0.000 A 
BRANCH   6   9
ATOM      9  C   UNL     1       7.699   7.559  17.728  0.00  0.00    +0.000 C 
ATOM     10  F   UNL     1       8.399   7.673  16.565  0.00  0.00    +0.000 F 
ATOM     11  F   UNL     1       6.992   8.716  17.855  0.00  0.00    +0.000 F 
ATOM     12  F   UNL     1       8.625   7.575  18.727  0.00  0.00    +0.000 F 
ENDBRANCH   6   9
ENDBRANCH   1   3
BRANCH   1  14
ATOM     13  O   UNL     1       2.133   3.159  16.847  0.00  0.00    +0.000 OA
ATOM     14  S   UNL     1       2.718   3.069  18.165  0.00  0.00    +0.000 S 
ATOM     15  O   UNL     1       2.227   2.138  19.157  0.00  0.00    +0.000 OA
BRANCH  14  16
ATOM     16  C   UNL     1       2.412   4.628  18.843  0.00  0.00    +0.000 A 
ATOM     17  C   UNL     1       2.334   5.835  18.073  0.00  0.00    +0.000 A 
ATOM     18  C   UNL     1       2.092   6.918  18.879  0.00  0.00    +0.000 A 
ATOM     19 CL   UNL     1       1.932   8.553  18.380  0.00  0.00    +0.000 Cl
ATOM     20  S   UNL     1       1.949   6.522  20.518  0.00  0.00    +0.000 S 
ATOM     21  C   UNL     1       2.214   4.876  20.180  0.00  0.00    +0.000 A 
ATOM     22 CL   UNL     1       2.176   3.764  21.492  0.00  0.00    +0.000 Cl
ENDBRANCH  14  16
ENDBRANCH   1  14
TORSDOF 4
ENDMDL
MODEL 3
REMARK VINA RESULT:      -7.2      4.064      5.716
REMARK  Name = 
REMARK  4 active torsions:
REMARK  status: ('A' for Active; 'I' for Inactive)
REMARK    1  A    between atoms: S_2  and  N_4
REMARK    2  A    between atoms: S_2  and  C_15
REMARK    3  A    between atoms: N_4  and  C_5
REMARK    4  A    between atoms: C_8  and  C_9
REMARK                            x       y       z     vdW  Elec       q    Type
REMARK                         _______ _______ _______ _____ _____    ______ ____
ROOT
ATOM      1  N   UNL     1       3.018   4.641  18.867  0.00  0.00    +0.000 N 
ATOM      2  H   UNL     1       2.472   3.859  19.233  0.00  0.00    +0.000 HD
ENDROOT
BRANCH   1   3
ATOM      3  C   UNL     1       2.533   5.942  19.188  0.00  0.00    +0.000 A 
ATOM      4  C   UNL     1       1.936   6.156  20.429  0.00  0.00    +0.000 A 
ATOM      5  C   UNL     1       1.412   7.411  20.747  0.00  0.00    +0.000 A 
ATOM      6  C   UNL     1       1.456   8.458  19.814  0.00  0.00    +0.000 A 
ATOM      7  C   UNL     1       2.048   8.222  18.562  0.00  0.00    +0.000 A 
ATOM      8  C   UNL     1       2.588   6.971  18.251  0.00  0.00    +0.000 A 
BRANCH   6   9
ATOM      9  C   UNL     1       0.883   9.818  20.135  0.00  0.00    +0.000 C 
ATOM     10  F   UNL     1       1.246  10.788  19.250  0.00  0.00    +0.000 F 
ATOM     11  F   UNL     1      -0.478   9.816  20.151  0.00  0.00    +0.000 F 
ATOM     12  F   UNL     1       1.272  10.266  21.362  0.00  0.00    +0.000 F 
ENDBRANCH   6   9
ENDBRANCH   1   3
BRANCH   1  14
ATOM     13  O   UNL     1       5.224   5.523  19.756  0.00  0.00    +0.000 OA
ATOM     14  S   UNL     1       4.678   4.373  19.071  0.00  0.00    +0.000 S 
ATOM     15  O   UNL     1       4.904   3.025  19.541  0.00  0.00    +0.000 OA
BRANCH  14  16
ATOM     16  C   UNL     1       5.448   4.429  17.525  0.00  0.00    +0.000 A 
ATOM     17  C   UNL     1       4.785   4.136  16.289  0.00  0.00    +0.000 A 
ATOM     18  C   UNL     1       5.649   4.250  15.228  0.00  0.00    +0.000 A 
ATOM     19 CL   UNL     1       5.281   3.982  13.573  0.00  0.00    +0.000 Cl
ATOM     20  S   UNL     1       7.215   4.706  15.679  0.00  0.00    +0.000 S 
ATOM     21  C   UNL     1       6.767   4.757  17.319  0.00  0.00    +0.000 A 
ATOM     22 CL   UNL     1       7.959   5.218  18.470  0.00  0.00    +0.000 Cl
ENDBRANCH  14  16
ENDBRANCH   1  14
TORSDOF 4
ENDMDL
MODEL 4
REMARK VINA RESULT:      -7.1      5.164      6.712
REMARK  Name = 
REMARK  4 active torsions:
REMARK  status: ('A' for Active; 'I' for Inactive)
REMARK    1  A    between atoms: S_2  and  N_4
REMARK    2  A    between atoms: S_2  and  C_15
REMARK    3  A    between atoms: N_4  and  C_5
REMARK    4  A    between atoms: C_8  and  C_9
REMARK                            x       y       z     vdW  Elec       q    Type
REMARK                         _______ _______ _______ _____ _____    ______ ____
ROOT
ATOM      1  N   UNL     1       5.941   3.931  16.719  0.00  0.00    +0.000 N 
ATOM      2  H   UNL     1       6.783   3.509  17.115  0.00  0.00    +0.000 HD
ENDROOT
BRANCH   1   3
ATOM      3  C   UNL     1       4.880   4.181  17.636  0.00  0.00    +0.000 A 
ATOM      4  C   UNL     1       5.143   4.909  18.795  0.00  0.00    +0.000 A 
ATOM      5  C   UNL     1       4.129   5.127  19.731  0.00  0.00    +0.000 A 
ATOM      6  C   UNL     1       2.847   4.594  19.528  0.00  0.00    +0.000 A 
ATOM      7  C   UNL     1       2.602   3.850  18.362  0.00  0.00    +0.000 A 
ATOM      8  C   UNL     1       3.612   3.647  17.418  0.00  0.00    +0.000 A 
BRANCH   6   9
ATOM      9  C   UNL     1       1.742   4.808  20.535  0.00  0.00    +0.000 C 
ATOM     10  F   UNL     1       1.422   6.118  20.728  0.00  0.00    +0.000 F 
ATOM     11  F   UNL     1       0.584   4.189  20.173  0.00  0.00    +0.000 F 
ATOM     12  F   UNL     1       2.061   4.315  21.765  0.00  0.00    +0.000 F 
ENDBRANCH   6   9
ENDBRANCH   1   3
BRANCH   1  14
ATOM     13  O   UNL     1       5.194   6.068  15.574  0.00  0.00    +0.000 OA
ATOM     14  S   UNL     1       6.333   5.180  15.645  0.00  0.00    +0.000 S 
ATOM     15  O   UNL     1       7.665   5.669  15.925  0.00  0.00    +0.000 OA
BRANCH  14  16
ATOM     16  C   UNL     1       6.434   4.535  14.046  0.00  0.00    +0.000 A 
ATOM     17  C   UNL     1       5.503   3.588  13.505  0.00  0.00    +0.000 A 
ATOM     18  C   UNL     1       5.841   3.246  12.220  0.00  0.00    +0.000 A 
ATOM     19 CL   UNL     1       5.011   2.143  11.200  0.00  0.00    +0.000 Cl
ATOM     20  S   UNL     1       7.228   4.035  11.653  0.00  0.00    +0.000 S 
ATOM     21  C   UNL     1       7.408   4.855  13.132  0.00  0.00    +0.000 A 
ATOM     22 CL   UNL     1       8.717   5.961  13.290  0.00  0.00    +0.000 Cl
ENDBRANCH  14  16
ENDBRANCH   1  14
TORSDOF 4
ENDMDL
MODEL 5
REMARK VINA RESULT:      -7.1      3.957      5.778
REMARK  Name = 
REMARK  4 active torsions:
REMARK  status: ('A' for Active; 'I' for Inactive)
REMARK    1  A    between atoms: S_2  and  N_4
REMARK    2  A    between atoms: S_2  and  C_15
REMARK    3  A    between atoms: N_4  and  C_5
REMARK    4  A    between atoms: C_8  and  C_9
REMARK                            x       y       z     vdW  Elec       q    Type
REMARK                         _______ _______ _______ _____ _____    ______ ____
ROOT
ATOM      1  N   UNL     1       3.615   5.722  19.884  0.00  0.00    +0.000 N 
ATOM      2  H   UNL     1       4.588   5.962  20.080  0.00  0.00    +0.000 HD
ENDROOT
BRANCH   1   3
ATOM      3  C   UNL     1       2.758   6.812  19.558  0.00  0.00    +0.000 A 
ATOM      4  C   UNL     1       2.848   7.392  18.295  0.00  0.00    +0.000 A 
ATOM      5  C   UNL     1       2.050   8.492  17.970  0.00  0.00    +0.000 A 
ATOM      6  C   UNL     1       1.173   9.039  18.918  0.00  0.00    +0.000 A 
ATOM      7  C   UNL     1       1.104   8.453  20.192  0.00  0.00    +0.000 A 
ATOM      8  C   UNL     1       1.890   7.342  20.511  0.00  0.00    +0.000 A 
BRANCH   6   9
ATOM      9  C   UNL     1       0.312  10.236  18.589  0.00  0.00    +0.000 C 
ATOM     10  F   UNL     1       1.024  11.359  18.293  0.00  0.00    +0.000 F 
ATOM     11  F   UNL     1      -0.499  10.013  17.518  0.00  0.00    +0.000 F 
ATOM     12  F   UNL     1      -0.514  10.577  19.619  0.00  0.00    +0.000 F 
ENDBRANCH   6   9
ENDBRANCH   1   3
BRANCH   1  14
ATOM     13  O   UNL     1       3.859   3.204  19.706  0.00  0.00    +0.000 OA
ATOM     14  S   UNL     1       3.514   4.350  18.896  0.00  0.00    +0.000 S 
ATOM     15  O   UNL     1       2.299   4.395  18.114  0.00  0.00    +0.000 OA
BRANCH  14  16
ATOM     16  C   UNL     1       4.785   4.407  17.727  0.00  0.00    +0.000 A 
ATOM     17  C   UNL     1       4.628   4.023  16.354  0.00  0.00    +0.000 A 
ATOM     18  C   UNL     1       5.808   4.161  15.667  0.00  0.00    +0.000 A 
ATOM     19 CL   UNL     1       6.076   3.810  14.009  0.00  0.00    +0.000 Cl
ATOM     20  S   UNL     1       7.080   4.744  16.619  0.00  0.00    +0.000 S 
ATOM     21  C   UNL     1       6.070   4.820  17.985  0.00  0.00    +0.000 A 
ATOM     22 CL   UNL     1       6.741   5.406  19.458  0.00  0.00    +0.000 Cl
ENDBRANCH  14  16
ENDBRANCH   1  14
TORSDOF 4
ENDMDL
MODEL 6
REMARK VINA RESULT:      -7.1      5.145      6.724
REMARK  Name = 
REMARK  4 active torsions:
REMARK  status: ('A' for Active; 'I' for Inactive)
REMARK    1  A    between atoms: S_2  and  N_4
REMARK    2  A    between atoms: S_2  and  C_15
REMARK    3  A    between atoms: N_4  and  C_5
REMARK    4  A    between atoms: C_8  and  C_9
REMARK                            x       y       z     vdW  Elec       q    Type
REMARK                         _______ _______ _______ _____ _____    ______ ____
ROOT
ATOM      1  N   UNL     1       6.222   4.107  16.859  0.00  0.00    +0.000 N 
ATOM      2  H   UNL     1       7.130   3.857  17.256  0.00  0.00    +0.000 HD
ENDROOT
BRANCH   1   3
ATOM      3  C   UNL     1       5.148   4.220  17.787  0.00  0.00    +0.000 A 
ATOM      4  C   UNL     1       4.008   3.441  17.604  0.00  0.00    +0.000 A 
ATOM      5  C   UNL     1       2.923   3.570  18.475  0.00  0.00    +0.000 A 
ATOM      6  C   UNL     1       2.959   4.500  19.524  0.00  0.00    +0.000 A 
ATOM      7  C   UNL     1       4.111   5.289  19.688  0.00  0.00    +0.000 A 
ATOM      8  C   UNL     1       5.202   5.148  18.826  0.00  0.00    +0.000 A 
BRANCH   6   9
ATOM      9  C   UNL     1       1.792   4.662  20.469  0.00  0.00    +0.000 C 
ATOM     10  F   UNL     1       1.975   4.058  21.675  0.00  0.00    +0.000 F 
ATOM     11  F   UNL     1       1.523   5.969  20.741  0.00  0.00    +0.000 F 
ATOM     12  F   UNL     1       0.640   4.141  19.960  0.00  0.00    +0.000 F 
ENDBRANCH   6   9
ENDBRANCH   1   3
BRANCH   1  14
ATOM     13  O   UNL     1       5.130   6.075  15.691  0.00  0.00    +0.000 OA
ATOM     14  S   UNL     1       6.378   5.346  15.716  0.00  0.00    +0.000 S 
ATOM     15  O   UNL     1       7.650   6.013  15.884  0.00  0.00    +0.000 OA
BRANCH  14  16
ATOM     16  C   UNL     1       6.460   4.645  14.138  0.00  0.00    +0.000 A 
ATOM     17  C   UNL     1       5.498   3.714  13.624  0.00  0.00    +0.000 A 
ATOM     18  C   UNL     1       5.827   3.320  12.352  0.00  0.00    +0.000 A 
ATOM     19 CL   UNL     1       4.961   2.214  11.366  0.00  0.00    +0.000 Cl
ATOM     20  S   UNL     1       7.241   4.041  11.765  0.00  0.00    +0.000 S 
ATOM     21  C   UNL     1       7.447   4.902  13.217  0.00  0.00    +0.000 A 
ATOM     22 CL   UNL     1       8.793   5.966  13.344  0.00  0.00    +0.000 Cl
ENDBRANCH  14  16
ENDBRANCH   1  14
TORSDOF 4
ENDMDL
MODEL 7
REMARK VINA RESULT:      -7.1      5.338      6.843
REMARK  Name = 
REMARK  4 active torsions:
REMARK  status: ('A' for Active; 'I' for Inactive)
REMARK    1  A    between atoms: S_2  and  N_4
REMARK    2  A    between atoms: S_2  and  C_15
REMARK    3  A    between atoms: N_4  and  C_5
REMARK    4  A    between atoms: C_8  and  C_9
REMARK                            x       y       z     vdW  Elec       q    Type
REMARK                         _______ _______ _______ _____ _____    ______ ____
ROOT
ATOM      1  N   UNL     1       6.211   4.070  16.964  0.00  0.00    +0.000 N 
ATOM      2  H   UNL     1       7.049   4.021  17.546  0.00  0.00    +0.000 HD
ENDROOT
BRANCH   1   3
ATOM      3  C   UNL     1       4.970   3.919  17.647  0.00  0.00    +0.000 A 
ATOM      4  C   UNL     1       4.859   4.372  18.959  0.00  0.00    +0.000 A 
ATOM      5  C   UNL     1       3.666   4.192  19.664  0.00  0.00    +0.000 A 
ATOM      6  C   UNL     1       2.580   3.533  19.069  0.00  0.00    +0.000 A 
ATOM      7  C   UNL     1       2.713   3.069  17.750  0.00  0.00    +0.000 A 
ATOM      8  C   UNL     1       3.901   3.264  17.039  0.00  0.00    +0.000 A 
BRANCH   6   9
ATOM      9  C   UNL     1       1.287   3.318  19.819  0.00  0.00    +0.000 C 
ATOM     10  F   UNL     1       1.429   2.580  20.955  0.00  0.00    +0.000 F 
ATOM     11  F   UNL     1       0.710   4.490  20.203  0.00  0.00    +0.000 F 
ATOM     12  F   UNL     1       0.354   2.671  19.066  0.00  0.00    +0.000 F 
ENDBRANCH   6   9
ENDBRANCH   1   3
BRANCH   1  14
ATOM     13  O   UNL     1       5.058   6.044  15.866  0.00  0.00    +0.000 OA
ATOM     14  S   UNL     1       6.319   5.339  15.847  0.00  0.00    +0.000 S 
ATOM     15  O   UNL     1       7.581   6.027  16.004  0.00  0.00    +0.000 OA
BRANCH  14  16
ATOM     16  C   UNL     1       6.380   4.677  14.252  0.00  0.00    +0.000 A 
ATOM     17  C   UNL     1       5.377   3.811  13.705  0.00  0.00    +0.000 A 
ATOM     18  C   UNL     1       5.698   3.434  12.426  0.00  0.00    +0.000 A 
ATOM     19 CL   UNL     1       4.786   2.401  11.402  0.00  0.00    +0.000 Cl
ATOM     20  S   UNL     1       7.152   4.097  11.870  0.00  0.00    +0.000 S 
ATOM     21  C   UNL     1       7.388   4.907  13.347  0.00  0.00    +0.000 A 
ATOM     22 CL   UNL     1       8.786   5.897  13.513  0.00  0.00    +0.000 Cl
ENDBRANCH  14  16
ENDBRANCH   1  14
TORSDOF 4
ENDMDL
MODEL 8
REMARK VINA RESULT:      -7.1      3.882      5.541
REMARK  Name = 
REMARK  4 active torsions:
REMARK  status: ('A' for Active; 'I' for Inactive)
REMARK    1  A    between atoms: S_2  and  N_4
REMARK    2  A    between atoms: S_2  and  C_15
REMARK    3  A    between atoms: N_4  and  C_5
REMARK    4  A    between atoms: C_8  and  C_9
REMARK                            x       y       z     vdW  Elec       q    Type
REMARK                         _______ _______ _______ _____ _____    ______ ____
ROOT
ATOM      1  N   UNL     1       3.020   4.593  18.978  0.00  0.00    +0.000 N 
ATOM      2  H   UNL     1       2.499   3.922  19.545  0.00  0.00    +0.000 HD
ENDROOT
BRANCH   1   3
ATOM      3  C   UNL     1       2.538   5.933  19.000  0.00  0.00    +0.000 A 
ATOM      4  C   UNL     1       2.599   6.696  17.836  0.00  0.00    +0.000 A 
ATOM      5  C   UNL     1       2.175   8.027  17.847  0.00  0.00    +0.000 A 
ATOM      6  C   UNL     1       1.708   8.616  19.032  0.00  0.00    +0.000 A 
ATOM      7  C   UNL     1       1.666   7.838  20.201  0.00  0.00    +0.000 A 
ATOM      8  C   UNL     1       2.075   6.501  20.186  0.00  0.00    +0.000 A 
BRANCH   6   9
ATOM      9  C   UNL     1       1.257  10.057  19.067  0.00  0.00    +0.000 C 
ATOM     10  F   UNL     1       0.033  10.261  18.506  0.00  0.00    +0.000 F 
ATOM     11  F   UNL     1       1.175  10.544  20.336  0.00  0.00    +0.000 F 
ATOM     12  F   UNL     1       2.115  10.882  18.404  0.00  0.00    +0.000 F 
ENDBRANCH   6   9
ENDBRANCH   1   3
BRANCH   1  14
ATOM     13  O   UNL     1       5.209   5.553  19.826  0.00  0.00    +0.000 OA
ATOM     14  S   UNL     1       4.690   4.379  19.161  0.00  0.00    +0.000 S 
ATOM     15  O   UNL     1       4.965   3.044  19.644  0.00  0.00    +0.000 OA
BRANCH  14  16
ATOM     16  C   UNL     1       5.437   4.441  17.604  0.00  0.00    +0.000 A 
ATOM     17  C   UNL     1       4.767   4.111  16.380  0.00  0.00    +0.000 A 
ATOM     18  C   UNL     1       5.611   4.240  15.307  0.00  0.00    +0.000 A 
ATOM     19 CL   UNL     1       5.230   3.940  13.661  0.00  0.00    +0.000 Cl
ATOM     20  S   UNL     1       7.169   4.750  15.730  0.00  0.00    +0.000 S 
ATOM     21  C   UNL     1       6.741   4.807  17.375  0.00  0.00    +0.000 A 
ATOM     22 CL   UNL     1       7.934   5.320  18.504  0.00  0.00    +0.000 Cl
ENDBRANCH  14  16
ENDBRANCH   1  14
TORSDOF 4
ENDMDL
MODEL 9
REMARK VINA RESULT:      -7.0      3.180      4.097
REMARK  Name = 
REMARK  4 active torsions:
REMARK  status: ('A' for Active; 'I' for Inactive)
REMARK    1  A    between atoms: S_2  and  N_4
REMARK    2  A    between atoms: S_2  and  C_15
REMARK    3  A    between atoms: N_4  and  C_5
REMARK    4  A    between atoms: C_8  and  C_9
REMARK                            x       y       z     vdW  Elec       q    Type
REMARK                         _______ _______ _______ _____ _____    ______ ____
ROOT
ATOM      1  N   UNL     1       4.234   6.255  18.974  0.00  0.00    +0.000 N 
ATOM      2  H   UNL     1       4.861   6.135  19.772  0.00  0.00    +0.000 HD
ENDROOT
BRANCH   1   3
ATOM      3  C   UNL     1       4.701   5.734  17.733  0.00  0.00    +0.000 A 
ATOM      4  C   UNL     1       4.888   6.602  16.660  0.00  0.00    +0.000 A 
ATOM      5  C   UNL     1       5.301   6.107  15.421  0.00  0.00    +0.000 A 
ATOM      6  C   UNL     1       5.506   4.731  15.237  0.00  0.00    +0.000 A 
ATOM      7  C   UNL     1       5.299   3.866  16.325  0.00  0.00    +0.000 A 
ATOM      8  C   UNL     1       4.902   4.365  17.569  0.00  0.00    +0.000 A 
BRANCH   6   9
ATOM      9  C   UNL     1       5.940   4.175  13.901  0.00  0.00    +0.000 C 
ATOM     10  F   UNL     1       4.934   4.104  12.985  0.00  0.00    +0.000 F 
ATOM     11  F   UNL     1       6.922   4.921  13.324  0.00  0.00    +0.000 F 
ATOM     12  F   UNL     1       6.441   2.913  14.006  0.00  0.00    +0.000 F 
ENDBRANCH   6   9
ENDBRANCH   1   3
BRANCH   1  14
ATOM     13  O   UNL     1       1.919   5.590  18.180  0.00  0.00    +0.000 OA
ATOM     14  S   UNL     1       2.634   5.899  19.398  0.00  0.00    +0.000 S 
ATOM     15  O   UNL     1       2.613   5.014  20.541  0.00  0.00    +0.000 OA
BRANCH  14  16
ATOM     16  C   UNL     1       1.867   7.345  19.953  0.00  0.00    +0.000 A 
ATOM     17  C   UNL     1       1.311   7.503  21.265  0.00  0.00    +0.000 A 
ATOM     18  C   UNL     1       0.758   8.749  21.418  0.00  0.00    +0.000 A 
ATOM     19 CL   UNL     1      -0.020   9.361  22.820  0.00  0.00    +0.000 Cl
ATOM     20  S   UNL     1       0.900   9.724  20.042  0.00  0.00    +0.000 S 
ATOM     21  C   UNL     1       1.708   8.485  19.203  0.00  0.00    +0.000 A 
ATOM     22 CL   UNL     1       2.232   8.803  17.595  0.00  0.00    +0.000 Cl
ENDBRANCH  14  16
ENDBRANCH   1  14
TORSDOF 4
ENDMDL
