MODEL 1
REMARK VINA RESULT:      -7.2      0.000      0.000
REMARK  Name = 
REMARK  7 active torsions:
REMARK  status: ('A' for Active; 'I' for Inactive)
REMARK    1  A    between atoms: C_1  and  C_2
REMARK    2  A    between atoms: C_2  and  CA_3
REMARK    3  A    between atoms: CA_3  and  C_4
REMARK    4  A    between atoms: CA_3  and  N_6
REMARK    5  A    between atoms: C_4  and  O_5
REMARK    6  A    between atoms: N_13  and  N_14
REMARK    7  A    between atoms: C_15  and  C_17
REMARK                            x       y       z     vdW  Elec       q    Type
REMARK                         _______ _______ _______ _____ _____    ______ ____
ROOT
ATOM      1  N   UNL     1       4.770   6.184  17.605  0.00  0.00    +0.000 N 
ATOM      2  C   UNL     1       3.673   5.671  18.286  0.00  0.00    +0.000 A 
ATOM      3  N   UNL     1       3.236   4.456  18.010  0.00  0.00    +0.000 NA
ATOM      4  C   UNL     1       2.234   4.064  18.781  0.00  0.00    +0.000 A 
ATOM      5 CL   UNL     1       1.626   2.496  18.474  0.00  0.00    +0.000 Cl
ATOM      6  N   UNL     1       1.661   4.724  19.773  0.00  0.00    +0.000 NA
ATOM      7  C   UNL     1       2.165   5.931  19.955  0.00  0.00    +0.000 A 
ATOM      8  N   UNL     1       1.696   6.631  21.080  0.00  0.00    +0.000 N 
ATOM      9  N   UNL     1       3.122   6.468  19.195  0.00  0.00    +0.000 NA
ATOM     10  H   UNL     1       4.402   6.844  16.928  0.00  0.00    +0.000 HD
ATOM     11  H   UNL     1       0.828   6.192  21.399  0.00  0.00    +0.000 HD
ENDROOT
BRANCH   8  12
ATOM     12  N   UNL     1       1.571   8.022  20.902  0.00  0.00    +0.000 N 
ATOM     13  C   UNL     1       0.379   8.569  21.349  0.00  0.00    +0.000 C 
ATOM     14  O   UNL     1      -0.574   7.885  21.710  0.00  0.00    +0.000 OA
ATOM     15  H   UNL     1       2.449   8.536  20.888  0.00  0.00    +0.000 HD
BRANCH  13  16
ATOM     16  C   UNL     1       0.289  10.049  21.393  0.00  0.00    +0.000 A 
ATOM     17  C   UNL     1       0.930  10.853  20.452  0.00  0.00    +0.000 A 
ATOM     18  C   UNL     1       0.729  12.220  20.534  0.00  0.00    +0.000 A 
ATOM     19  N   UNL     1      -0.040  12.813  21.474  0.00  0.00    +0.000 NA
ATOM     20  C   UNL     1      -0.651  12.008  22.369  0.00  0.00    +0.000 A 
ATOM     21  C   UNL     1      -0.523  10.632  22.368  0.00  0.00    +0.000 A 
ENDBRANCH  13  16
ENDBRANCH   8  12
BRANCH   1  22
ATOM     22  CA  UNL     1       5.718   5.218  17.021  0.00  0.00    +0.000 C 
BRANCH  22  24
ATOM     23  C   UNL     1       5.563   4.312  14.610  0.00  0.00    +0.000 C 
ATOM     24  C   UNL     1       5.782   5.522  15.506  0.00  0.00    +0.000 C 
ENDBRANCH  22  24
BRANCH  22  25
ATOM     25  C   UNL     1       7.115   5.312  17.702  0.00  0.00    +0.000 C 
BRANCH  25  26
ATOM     26  O   UNL     1       7.819   4.073  17.747  0.00  0.00    +0.000 OA
ATOM     27  H   UNL     1       7.697   3.679  18.624  0.00  0.00    +0.000 HD
ENDBRANCH  25  26
ENDBRANCH  22  25
ENDBRANCH   1  22
TORSDOF 6
ENDMDL
MODEL 2
REMARK VINA RESULT:      -7.1      1.584      1.823
REMARK  Name = 
REMARK  7 active torsions:
REMARK  status: ('A' for Active; 'I' for Inactive)
REMARK    1  A    between atoms: C_1  and  C_2
REMARK    2  A    between atoms: C_2  and  CA_3
REMARK    3  A    between atoms: CA_3  and  C_4
REMARK    4  A    between atoms: CA_3  and  N_6
REMARK    5  A    between atoms: C_4  and  O_5
REMARK    6  A    between atoms: N_13  and  N_14
REMARK    7  A    between atoms: C_15  and  C_17
REMARK                            x       y       z     vdW  Elec       q    Type
REMARK                         _______ _______ _______ _____ _____    ______ ____
ROOT
ATOM      1  N   UNL     1       3.959   5.546  17.182  0.00  0.00    +0.000 N 
ATOM      2  C   UNL     1       3.191   5.448  18.336  0.00  0.00    +0.000 A 
ATOM      3  N   UNL     1       2.942   4.262  18.861  0.00  0.00    +0.000 NA
ATOM      4  C   UNL     1       2.263   4.317  19.996  0.00  0.00    +0.000 A 
ATOM      5 CL   UNL     1       1.912   2.812  20.728  0.00  0.00    +0.000 Cl
ATOM      6  N   UNL     1       1.844   5.389  20.645  0.00  0.00    +0.000 NA
ATOM      7  C   UNL     1       2.135   6.519  20.028  0.00  0.00    +0.000 A 
ATOM      8  N   UNL     1       1.840   7.700  20.730  0.00  0.00    +0.000 N 
ATOM      9  N   UNL     1       2.745   6.592  18.843  0.00  0.00    +0.000 NA
ATOM     10  H   UNL     1       3.311   5.729  16.423  0.00  0.00    +0.000 HD
ATOM     11  H   UNL     1       1.183   7.476  21.483  0.00  0.00    +0.000 HD
ENDROOT
BRANCH   8  12
ATOM     12  N   UNL     1       1.408   8.774  19.930  0.00  0.00    +0.000 N 
ATOM     13  C   UNL     1       0.315   9.472  20.418  0.00  0.00    +0.000 C 
ATOM     14  O   UNL     1      -0.345   9.087  21.379  0.00  0.00    +0.000 OA
ATOM     15  H   UNL     1       2.130   9.202  19.355  0.00  0.00    +0.000 HD
BRANCH  13  16
ATOM     16  C   UNL     1      -0.037  10.740  19.736  0.00  0.00    +0.000 A 
ATOM     17  C   UNL     1       0.733  11.893  19.882  0.00  0.00    +0.000 A 
ATOM     18  C   UNL     1       0.363  13.007  19.150  0.00  0.00    +0.000 A 
ATOM     19  N   UNL     1      -0.699  13.042  18.316  0.00  0.00    +0.000 NA
ATOM     20  C   UNL     1      -1.424  11.910  18.192  0.00  0.00    +0.000 A 
ATOM     21  C   UNL     1      -1.134  10.743  18.871  0.00  0.00    +0.000 A 
ENDBRANCH  13  16
ENDBRANCH   8  12
BRANCH   1  22
ATOM     22  CA  UNL     1       4.896   4.445  16.895  0.00  0.00    +0.000 C 
BRANCH  22  24
ATOM     23  C   UNL     1       6.733   4.614  15.091  0.00  0.00    +0.000 C 
ATOM     24  C   UNL     1       5.244   4.539  15.390  0.00  0.00    +0.000 C 
ENDBRANCH  22  24
BRANCH  22  25
ATOM     25  C   UNL     1       6.161   4.527  17.799  0.00  0.00    +0.000 C 
BRANCH  25  26
ATOM     26  O   UNL     1       6.030   3.833  19.039  0.00  0.00    +0.000 OA
ATOM     27  H   UNL     1       6.748   3.186  19.107  0.00  0.00    +0.000 HD
ENDBRANCH  25  26
ENDBRANCH  22  25
ENDBRANCH   1  22
TORSDOF 6
ENDMDL
MODEL 3
REMARK VINA RESULT:      -7.1      0.264      1.016
REMARK  Name = 
REMARK  7 active torsions:
REMARK  status: ('A' for Active; 'I' for Inactive)
REMARK    1  A    between atoms: C_1  and  C_2
REMARK    2  A    between atoms: C_2  and  CA_3
REMARK    3  A    between atoms: CA_3  and  C_4
REMARK    4  A    between atoms: CA_3  and  N_6
REMARK    5  A    between atoms: C_4  and  O_5
REMARK    6  A    between atoms: N_13  and  N_14
REMARK    7  A    between atoms: C_15  and  C_17
REMARK                            x       y       z     vdW  Elec       q    Type
REMARK                         _______ _______ _______ _____ _____    ______ ____
ROOT
ATOM      1  N   UNL     1       4.687   6.124  17.386  0.00  0.00    +0.000 N 
ATOM      2  C   UNL     1       3.654   5.613  18.162  0.00  0.00    +0.000 A 
ATOM      3  N   UNL     1       3.256   4.366  17.988  0.00  0.00    +0.000 NA
ATOM      4  C   UNL     1       2.317   3.985  18.840  0.00  0.00    +0.000 A 
ATOM      5 CL   UNL     1       1.761   2.378  18.669  0.00  0.00    +0.000 Cl
ATOM      6  N   UNL     1       1.774   4.684  19.821  0.00  0.00    +0.000 NA
ATOM      7  C   UNL     1       2.234   5.919  19.898  0.00  0.00    +0.000 A 
ATOM      8  N   UNL     1       1.800   6.672  21.003  0.00  0.00    +0.000 N 
ATOM      9  N   UNL     1       3.121   6.444  19.051  0.00  0.00    +0.000 NA
ATOM     10  H   UNL     1       4.253   6.723  16.692  0.00  0.00    +0.000 HD
ATOM     11  H   UNL     1       0.971   6.220  21.400  0.00  0.00    +0.000 HD
ENDROOT
BRANCH   8  12
ATOM     12  N   UNL     1       1.604   8.042  20.746  0.00  0.00    +0.000 N 
ATOM     13  C   UNL     1       0.413   8.567  21.220  0.00  0.00    +0.000 C 
ATOM     14  O   UNL     1      -0.490   7.868  21.671  0.00  0.00    +0.000 OA
ATOM     15  H   UNL     1       2.457   8.590  20.656  0.00  0.00    +0.000 HD
BRANCH  13  16
ATOM     16  C   UNL     1       0.259  10.042  21.177  0.00  0.00    +0.000 A 
ATOM     17  C   UNL     1      -0.440  10.737  22.162  0.00  0.00    +0.000 A 
ATOM     18  C   UNL     1      -0.470  12.118  22.073  0.00  0.00    +0.000 A 
ATOM     19  N   UNL     1       0.129  12.822  21.088  0.00  0.00    +0.000 NA
ATOM     20  C   UNL     1       0.802  12.121  20.151  0.00  0.00    +0.000 A 
ATOM     21  C   UNL     1       0.899  10.743  20.153  0.00  0.00    +0.000 A 
ENDBRANCH  13  16
ENDBRANCH   8  12
BRANCH   1  22
ATOM     22  CA  UNL     1       5.641   5.160  16.807  0.00  0.00    +0.000 C 
BRANCH  22  24
ATOM     23  C   UNL     1       6.001   4.105  14.480  0.00  0.00    +0.000 C 
ATOM     24  C   UNL     1       5.564   5.329  15.271  0.00  0.00    +0.000 C 
ENDBRANCH  22  24
BRANCH  22  25
ATOM     25  C   UNL     1       7.080   5.390  17.355  0.00  0.00    +0.000 C 
BRANCH  25  26
ATOM     26  O   UNL     1       7.694   4.212  17.875  0.00  0.00    +0.000 OA
ATOM     27  H   UNL     1       7.088   3.467  17.748  0.00  0.00    +0.000 HD
ENDBRANCH  25  26
ENDBRANCH  22  25
ENDBRANCH   1  22
TORSDOF 6
ENDMDL
MODEL 4
REMARK VINA RESULT:      -7.1      1.586      1.900
REMARK  Name = 
REMARK  7 active torsions:
REMARK  status: ('A' for Active; 'I' for Inactive)
REMARK    1  A    between atoms: C_1  and  C_2
REMARK    2  A    between atoms: C_2  and  CA_3
REMARK    3  A    between atoms: CA_3  and  C_4
REMARK    4  A    between atoms: CA_3  and  N_6
REMARK    5  A    between atoms: C_4  and  O_5
REMARK    6  A    between atoms: N_13  and  N_14
REMARK    7  A    between atoms: C_15  and  C_17
REMARK                            x       y       z     vdW  Elec       q    Type
REMARK                         _______ _______ _______ _____ _____    ______ ____
ROOT
ATOM      1  N   UNL     1       4.355   5.476  17.635  0.00  0.00    +0.000 N 
ATOM      2  C   UNL     1       3.490   5.382  18.718  0.00  0.00    +0.000 A 
ATOM      3  N   UNL     1       3.277   4.211  19.290  0.00  0.00    +0.000 NA
ATOM      4  C   UNL     1       2.491   4.275  20.354  0.00  0.00    +0.000 A 
ATOM      5 CL   UNL     1       2.181   2.790  21.142  0.00  0.00    +0.000 Cl
ATOM      6  N   UNL     1       1.938   5.346  20.896  0.00  0.00    +0.000 NA
ATOM      7  C   UNL     1       2.204   6.459  20.239  0.00  0.00    +0.000 A 
ATOM      8  N   UNL     1       1.760   7.651  20.838  0.00  0.00    +0.000 N 
ATOM      9  N   UNL     1       2.917   6.514  19.112  0.00  0.00    +0.000 NA
ATOM     10  H   UNL     1       3.770   5.567  16.810  0.00  0.00    +0.000 HD
ATOM     11  H   UNL     1       1.052   7.418  21.540  0.00  0.00    +0.000 HD
ENDROOT
BRANCH   8  12
ATOM     12  N   UNL     1       1.330   8.642  19.937  0.00  0.00    +0.000 N 
ATOM     13  C   UNL     1       0.316   9.464  20.403  0.00  0.00    +0.000 C 
ATOM     14  O   UNL     1      -0.292   9.244  21.447  0.00  0.00    +0.000 OA
ATOM     15  H   UNL     1       2.031   8.950  19.267  0.00  0.00    +0.000 HD
BRANCH  13  16
ATOM     16  C   UNL     1      -0.015  10.658  19.589  0.00  0.00    +0.000 A 
ATOM     17  C   UNL     1      -1.194  10.741  18.850  0.00  0.00    +0.000 A 
ATOM     18  C   UNL     1      -1.448  11.924  18.179  0.00  0.00    +0.000 A 
ATOM     19  N   UNL     1      -0.618  12.990  18.192  0.00  0.00    +0.000 NA
ATOM     20  C   UNL     1       0.513  12.882  18.920  0.00  0.00    +0.000 A 
ATOM     21  C   UNL     1       0.855  11.750  19.633  0.00  0.00    +0.000 A 
ENDBRANCH  13  16
ENDBRANCH   8  12
BRANCH   1  22
ATOM     22  CA  UNL     1       5.391   4.436  17.502  0.00  0.00    +0.000 C 
BRANCH  22  24
ATOM     23  C   UNL     1       5.537   5.369  15.101  0.00  0.00    +0.000 C 
ATOM     24  C   UNL     1       5.525   4.135  15.990  0.00  0.00    +0.000 C 
ENDBRANCH  22  24
BRANCH  22  25
ATOM     25  C   UNL     1       6.738   4.895  18.134  0.00  0.00    +0.000 C 
BRANCH  25  26
ATOM     26  O   UNL     1       7.849   4.070  17.787  0.00  0.00    +0.000 OA
ATOM     27  H   UNL     1       8.379   3.915  18.583  0.00  0.00    +0.000 HD
ENDBRANCH  25  26
ENDBRANCH  22  25
ENDBRANCH   1  22
TORSDOF 6
ENDMDL
MODEL 5
REMARK VINA RESULT:      -7.1      2.596      3.956
REMARK  Name = 
REMARK  7 active torsions:
REMARK  status: ('A' for Active; 'I' for Inactive)
REMARK    1  A    between atoms: C_1  and  C_2
REMARK    2  A    between atoms: C_2  and  CA_3
REMARK    3  A    between atoms: CA_3  and  C_4
REMARK    4  A    between atoms: CA_3  and  N_6
REMARK    5  A    between atoms: C_4  and  O_5
REMARK    6  A    between atoms: N_13  and  N_14
REMARK    7  A    between atoms: C_15  and  C_17
REMARK                            x       y       z     vdW  Elec       q    Type
REMARK                         _______ _______ _______ _____ _____    ______ ____
ROOT
ATOM      1  N   UNL     1       2.581   4.902  19.976  0.00  0.00    +0.000 N 
ATOM      2  C   UNL     1       2.960   5.874  19.058  0.00  0.00    +0.000 A 
ATOM      3  N   UNL     1       3.891   5.605  18.162  0.00  0.00    +0.000 NA
ATOM      4  C   UNL     1       4.103   6.591  17.305  0.00  0.00    +0.000 A 
ATOM      5 CL   UNL     1       5.296   6.302  16.115  0.00  0.00    +0.000 Cl
ATOM      6  N   UNL     1       3.491   7.760  17.239  0.00  0.00    +0.000 NA
ATOM      7  C   UNL     1       2.589   7.931  18.188  0.00  0.00    +0.000 A 
ATOM      8  N   UNL     1       1.805   9.094  18.093  0.00  0.00    +0.000 N 
ATOM      9  N   UNL     1       2.339   7.044  19.154  0.00  0.00    +0.000 NA
ATOM     10  H   UNL     1       3.015   5.157  20.857  0.00  0.00    +0.000 HD
ATOM     11  H   UNL     1       2.273   9.751  17.462  0.00  0.00    +0.000 HD
ENDROOT
BRANCH   8  12
ATOM     12  N   UNL     1       1.459   9.676  19.327  0.00  0.00    +0.000 N 
ATOM     13  C   UNL     1       0.135  10.069  19.443  0.00  0.00    +0.000 C 
ATOM     14  O   UNL     1      -0.642  10.081  18.492  0.00  0.00    +0.000 OA
ATOM     15  H   UNL     1       2.021   9.375  20.119  0.00  0.00    +0.000 HD
BRANCH  13  16
ATOM     16  C   UNL     1      -0.334  10.477  20.789  0.00  0.00    +0.000 A 
ATOM     17  C   UNL     1      -1.063  11.647  20.991  0.00  0.00    +0.000 A 
ATOM     18  C   UNL     1      -1.517  11.907  22.273  0.00  0.00    +0.000 A 
ATOM     19  N   UNL     1      -1.286  11.099  23.331  0.00  0.00    +0.000 NA
ATOM     20  C   UNL     1      -0.581   9.971  23.104  0.00  0.00    +0.000 A 
ATOM     21  C   UNL     1      -0.091   9.616  21.862  0.00  0.00    +0.000 A 
ENDBRANCH  13  16
ENDBRANCH   8  12
BRANCH   1  22
ATOM     22  CA  UNL     1       2.804   3.493  19.603  0.00  0.00    +0.000 C 
BRANCH  22  24
ATOM     23  C   UNL     1       1.480   2.701  21.671  0.00  0.00    +0.000 C 
ATOM     24  C   UNL     1       2.803   2.681  20.919  0.00  0.00    +0.000 C 
ENDBRANCH  22  24
BRANCH  22  25
ATOM     25  C   UNL     1       1.722   2.995  18.600  0.00  0.00    +0.000 C 
BRANCH  25  26
ATOM     26  O   UNL     1       2.104   3.119  17.231  0.00  0.00    +0.000 OA
ATOM     27  H   UNL     1       2.697   3.880  17.144  0.00  0.00    +0.000 HD
ENDBRANCH  25  26
ENDBRANCH  22  25
ENDBRANCH   1  22
TORSDOF 6
ENDMDL
MODEL 6
REMARK VINA RESULT:      -7.0      2.712      4.041
REMARK  Name = 
REMARK  7 active torsions:
REMARK  status: ('A' for Active; 'I' for Inactive)
REMARK    1  A    between atoms: C_1  and  C_2
REMARK    2  A    between atoms: C_2  and  CA_3
REMARK    3  A    between atoms: CA_3  and  C_4
REMARK    4  A    between atoms: CA_3  and  N_6
REMARK    5  A    between atoms: C_4  and  O_5
REMARK    6  A    between atoms: N_13  and  N_14
REMARK    7  A    between atoms: C_15  and  C_17
REMARK                            x       y       z     vdW  Elec       q    Type
REMARK                         _______ _______ _______ _____ _____    ______ ____
ROOT
ATOM      1  N   UNL     1       2.482   5.041  19.807  0.00  0.00    +0.000 N 
ATOM      2  C   UNL     1       2.873   6.027  18.908  0.00  0.00    +0.000 A 
ATOM      3  N   UNL     1       3.807   5.767  18.011  0.00  0.00    +0.000 NA
ATOM      4  C   UNL     1       4.030   6.767  17.173  0.00  0.00    +0.000 A 
ATOM      5 CL   UNL     1       5.228   6.490  15.984  0.00  0.00    +0.000 Cl
ATOM      6  N   UNL     1       3.426   7.941  17.124  0.00  0.00    +0.000 NA
ATOM      7  C   UNL     1       2.521   8.101  18.071  0.00  0.00    +0.000 A 
ATOM      8  N   UNL     1       1.746   9.271  17.993  0.00  0.00    +0.000 N 
ATOM      9  N   UNL     1       2.260   7.200  19.021  0.00  0.00    +0.000 NA
ATOM     10  H   UNL     1       2.914   5.278  20.694  0.00  0.00    +0.000 HD
ATOM     11  H   UNL     1       2.221   9.936  17.376  0.00  0.00    +0.000 HD
ENDROOT
BRANCH   8  12
ATOM     12  N   UNL     1       1.397   9.834  19.235  0.00  0.00    +0.000 N 
ATOM     13  C   UNL     1       0.051  10.121  19.396  0.00  0.00    +0.000 C 
ATOM     14  O   UNL     1      -0.757  10.061  18.474  0.00  0.00    +0.000 OA
ATOM     15  H   UNL     1       2.009   9.586  20.009  0.00  0.00    +0.000 HD
BRANCH  13  16
ATOM     16  C   UNL     1      -0.403  10.500  20.756  0.00  0.00    +0.000 A 
ATOM     17  C   UNL     1      -0.246   9.649  21.848  0.00  0.00    +0.000 A 
ATOM     18  C   UNL     1      -0.636  10.120  23.089  0.00  0.00    +0.000 A 
ATOM     19  N   UNL     1      -1.165  11.346  23.297  0.00  0.00    +0.000 NA
ATOM     20  C   UNL     1      -1.301  12.149  22.221  0.00  0.00    +0.000 A 
ATOM     21  C   UNL     1      -0.934  11.778  20.942  0.00  0.00    +0.000 A 
ENDBRANCH  13  16
ENDBRANCH   8  12
BRANCH   1  22
ATOM     22  CA  UNL     1       2.698   3.638  19.410  0.00  0.00    +0.000 C 
BRANCH  22  24
ATOM     23  C   UNL     1       1.762   2.869  21.688  0.00  0.00    +0.000 C 
ATOM     24  C   UNL     1       2.931   2.840  20.715  0.00  0.00    +0.000 C 
ENDBRANCH  22  24
BRANCH  22  25
ATOM     25  C   UNL     1       1.494   3.090  18.589  0.00  0.00    +0.000 C 
BRANCH  25  26
ATOM     26  O   UNL     1       1.552   1.685  18.349  0.00  0.00    +0.000 OA
ATOM     27  H   UNL     1       2.482   1.418  18.300  0.00  0.00    +0.000 HD
ENDBRANCH  25  26
ENDBRANCH  22  25
ENDBRANCH   1  22
TORSDOF 6
ENDMDL
MODEL 7
REMARK VINA RESULT:      -7.0      1.365      1.808
REMARK  Name = 
REMARK  7 active torsions:
REMARK  status: ('A' for Active; 'I' for Inactive)
REMARK    1  A    between atoms: C_1  and  C_2
REMARK    2  A    between atoms: C_2  and  CA_3
REMARK    3  A    between atoms: CA_3  and  C_4
REMARK    4  A    between atoms: CA_3  and  N_6
REMARK    5  A    between atoms: C_4  and  O_5
REMARK    6  A    between atoms: N_13  and  N_14
REMARK    7  A    between atoms: C_15  and  C_17
REMARK                            x       y       z     vdW  Elec       q    Type
REMARK                         _______ _______ _______ _____ _____    ______ ____
ROOT
ATOM      1  N   UNL     1       5.091   5.464  16.341  0.00  0.00    +0.000 N 
ATOM      2  C   UNL     1       4.228   5.024  17.337  0.00  0.00    +0.000 A 
ATOM      3  N   UNL     1       4.011   3.732  17.496  0.00  0.00    +0.000 NA
ATOM      4  C   UNL     1       3.228   3.447  18.525  0.00  0.00    +0.000 A 
ATOM      5 CL   UNL     1       2.912   1.788  18.785  0.00  0.00    +0.000 Cl
ATOM      6  N   UNL     1       2.681   4.284  19.389  0.00  0.00    +0.000 NA
ATOM      7  C   UNL     1       2.951   5.550  19.131  0.00  0.00    +0.000 A 
ATOM      8  N   UNL     1       2.515   6.482  20.089  0.00  0.00    +0.000 N 
ATOM      9  N   UNL     1       3.662   5.968  18.082  0.00  0.00    +0.000 NA
ATOM     10  H   UNL     1       4.505   5.822  15.594  0.00  0.00    +0.000 HD
ATOM     11  H   UNL     1       1.807   6.035  20.680  0.00  0.00    +0.000 HD
ENDROOT
BRANCH   8  12
ATOM     12  N   UNL     1       2.088   7.715  19.564  0.00  0.00    +0.000 N 
ATOM     13  C   UNL     1       1.312   8.484  20.418  0.00  0.00    +0.000 C 
ATOM     14  O   UNL     1       0.874   8.059  21.483  0.00  0.00    +0.000 OA
ATOM     15  H   UNL     1       2.695   8.116  18.853  0.00  0.00    +0.000 HD
BRANCH  13  16
ATOM     16  C   UNL     1       1.028   9.879  20.002  0.00  0.00    +0.000 A 
ATOM     17  C   UNL     1       0.388  10.782  20.849  0.00  0.00    +0.000 A 
ATOM     18  C   UNL     1       0.230  12.081  20.398  0.00  0.00    +0.000 A 
ATOM     19  N   UNL     1       0.649  12.515  19.189  0.00  0.00    +0.000 NA
ATOM     20  C   UNL     1       1.268  11.618  18.393  0.00  0.00    +0.000 A 
ATOM     21  C   UNL     1       1.483  10.301  18.751  0.00  0.00    +0.000 A 
ENDBRANCH  13  16
ENDBRANCH   8  12
BRANCH   1  22
ATOM     22  CA  UNL     1       6.122   4.521  15.872  0.00  0.00    +0.000 C 
BRANCH  22  24
ATOM     23  C   UNL     1       6.068   3.829  13.386  0.00  0.00    +0.000 C 
ATOM     24  C   UNL     1       6.433   4.899  14.404  0.00  0.00    +0.000 C 
ENDBRANCH  22  24
BRANCH  22  25
ATOM     25  C   UNL     1       7.389   4.570  16.775  0.00  0.00    +0.000 C 
BRANCH  25  26
ATOM     26  O   UNL     1       7.157   4.144  18.117  0.00  0.00    +0.000 OA
ATOM     27  H   UNL     1       6.707   4.857  18.594  0.00  0.00    +0.000 HD
ENDBRANCH  25  26
ENDBRANCH  22  25
ENDBRANCH   1  22
TORSDOF 6
ENDMDL
MODEL 8
REMARK VINA RESULT:      -6.9      3.211      8.032
REMARK  Name = 
REMARK  7 active torsions:
REMARK  status: ('A' for Active; 'I' for Inactive)
REMARK    1  A    between atoms: C_1  and  C_2
REMARK    2  A    between atoms: C_2  and  CA_3
REMARK    3  A    between atoms: CA_3  and  C_4
REMARK    4  A    between atoms: CA_3  and  N_6
REMARK    5  A    between atoms: C_4  and  O_5
REMARK    6  A    between atoms: N_13  and  N_14
REMARK    7  A    between atoms: C_15  and  C_17
REMARK                            x       y       z     vdW  Elec       q    Type
REMARK                         _______ _______ _______ _____ _____    ______ ____
ROOT
ATOM      1  N   UNL     1       0.241  10.745  18.508  0.00  0.00    +0.000 N 
ATOM      2  C   UNL     1       0.484  10.007  19.661  0.00  0.00    +0.000 A 
ATOM      3  N   UNL     1      -0.059  10.379  20.806  0.00  0.00    +0.000 NA
ATOM      4  C   UNL     1       0.193   9.549  21.806  0.00  0.00    +0.000 A 
ATOM      5 CL   UNL     1      -0.487   9.974  23.316  0.00  0.00    +0.000 Cl
ATOM      6  N   UNL     1       0.882   8.422  21.777  0.00  0.00    +0.000 NA
ATOM      7  C   UNL     1       1.390   8.152  20.589  0.00  0.00    +0.000 A 
ATOM      8  N   UNL     1       2.017   6.901  20.456  0.00  0.00    +0.000 N 
ATOM      9  N   UNL     1       1.272   8.947  19.524  0.00  0.00    +0.000 NA
ATOM     10  H   UNL     1       1.082  11.286  18.334  0.00  0.00    +0.000 HD
ATOM     11  H   UNL     1       2.223   6.538  21.391  0.00  0.00    +0.000 HD
ENDROOT
BRANCH   8  12
ATOM     12  N   UNL     1       3.140   6.889  19.607  0.00  0.00    +0.000 N 
ATOM     13  C   UNL     1       3.717   5.645  19.409  0.00  0.00    +0.000 C 
ATOM     14  O   UNL     1       3.397   4.652  20.056  0.00  0.00    +0.000 OA
ATOM     15  H   UNL     1       3.162   7.629  18.910  0.00  0.00    +0.000 HD
BRANCH  13  16
ATOM     16  C   UNL     1       4.754   5.540  18.354  0.00  0.00    +0.000 A 
ATOM     17  C   UNL     1       4.545   6.030  17.067  0.00  0.00    +0.000 A 
ATOM     18  C   UNL     1       5.598   5.949  16.172  0.00  0.00    +0.000 A 
ATOM     19  N   UNL     1       6.803   5.417  16.473  0.00  0.00    +0.000 NA
ATOM     20  C   UNL     1       6.976   4.955  17.729  0.00  0.00    +0.000 A 
ATOM     21  C   UNL     1       5.993   4.996  18.699  0.00  0.00    +0.000 A 
ENDBRANCH  13  16
ENDBRANCH   8  12
BRANCH   1  22
ATOM     22  CA  UNL     1      -0.991  11.553  18.467  0.00  0.00    +0.000 C 
BRANCH  22  24
ATOM     23  C   UNL     1      -0.317  13.907  19.280  0.00  0.00    +0.000 C 
ATOM     24  C   UNL     1      -0.564  12.992  18.090  0.00  0.00    +0.000 C 
ENDBRANCH  22  24
BRANCH  22  25
ATOM     25  C   UNL     1      -2.023  10.961  17.462  0.00  0.00    +0.000 C 
BRANCH  25  26
ATOM     26  O   UNL     1      -2.175  11.732  16.271  0.00  0.00    +0.000 OA
ATOM     27  H   UNL     1      -3.019  12.206  16.317  0.00  0.00    +0.000 HD
ENDBRANCH  25  26
ENDBRANCH  22  25
ENDBRANCH   1  22
TORSDOF 6
ENDMDL
MODEL 9
REMARK VINA RESULT:      -6.8      1.394      1.420
REMARK  Name = 
REMARK  7 active torsions:
REMARK  status: ('A' for Active; 'I' for Inactive)
REMARK    1  A    between atoms: C_1  and  C_2
REMARK    2  A    between atoms: C_2  and  CA_3
REMARK    3  A    between atoms: CA_3  and  C_4
REMARK    4  A    between atoms: CA_3  and  N_6
REMARK    5  A    between atoms: C_4  and  O_5
REMARK    6  A    between atoms: N_13  and  N_14
REMARK    7  A    between atoms: C_15  and  C_17
REMARK                            x       y       z     vdW  Elec       q    Type
REMARK                         _______ _______ _______ _____ _____    ______ ____
ROOT
ATOM      1  N   UNL     1       4.516   6.303  17.108  0.00  0.00    +0.000 N 
ATOM      2  C   UNL     1       3.689   5.869  18.137  0.00  0.00    +0.000 A 
ATOM      3  N   UNL     1       3.584   4.579  18.398  0.00  0.00    +0.000 NA
ATOM      4  C   UNL     1       2.823   4.310  19.447  0.00  0.00    +0.000 A 
ATOM      5 CL   UNL     1       2.651   2.655  19.838  0.00  0.00    +0.000 Cl
ATOM      6  N   UNL     1       2.201   5.161  20.244  0.00  0.00    +0.000 NA
ATOM      7  C   UNL     1       2.362   6.422  19.887  0.00  0.00    +0.000 A 
ATOM      8  N   UNL     1       1.842   7.385  20.769  0.00  0.00    +0.000 N 
ATOM      9  N   UNL     1       3.040   6.816  18.806  0.00  0.00    +0.000 NA
ATOM     10  H   UNL     1       3.905   6.549  16.336  0.00  0.00    +0.000 HD
ATOM     11  H   UNL     1       1.173   6.926  21.394  0.00  0.00    +0.000 HD
ENDROOT
BRANCH   8  12
ATOM     12  N   UNL     1       1.312   8.532  20.149  0.00  0.00    +0.000 N 
ATOM     13  C   UNL     1       0.192   9.070  20.761  0.00  0.00    +0.000 C 
ATOM     14  O   UNL     1      -0.409   8.501  21.668  0.00  0.00    +0.000 OA
ATOM     15  H   UNL     1       1.984   9.091  19.629  0.00  0.00    +0.000 HD
BRANCH  13  16
ATOM     16  C   UNL     1      -0.268  10.397  20.285  0.00  0.00    +0.000 A 
ATOM     17  C   UNL     1      -0.851  10.567  19.031  0.00  0.00    +0.000 A 
ATOM     18  C   UNL     1      -1.311  11.831  18.705  0.00  0.00    +0.000 A 
ATOM     19  N   UNL     1      -1.219  12.901  19.524  0.00  0.00    +0.000 NA
ATOM     20  C   UNL     1      -0.654  12.704  20.734  0.00  0.00    +0.000 A 
ATOM     21  C   UNL     1      -0.171  11.482  21.160  0.00  0.00    +0.000 A 
ENDBRANCH  13  16
ENDBRANCH   8  12
BRANCH   1  22
ATOM     22  CA  UNL     1       5.627   5.418  16.713  0.00  0.00    +0.000 C 
BRANCH  22  24
ATOM     23  C   UNL     1       6.129   4.008  14.611  0.00  0.00    +0.000 C 
ATOM     24  C   UNL     1       5.581   5.312  15.170  0.00  0.00    +0.000 C 
ENDBRANCH  22  24
BRANCH  22  25
ATOM     25  C   UNL     1       6.993   5.960  17.226  0.00  0.00    +0.000 C 
BRANCH  25  26
ATOM     26  O   UNL     1       7.338   7.242  16.704  0.00  0.00    +0.000 OA
ATOM     27  H   UNL     1       7.386   7.872  17.439  0.00  0.00    +0.000 HD
ENDBRANCH  25  26
ENDBRANCH  22  25
ENDBRANCH   1  22
TORSDOF 6
ENDMDL
