MODEL 1
REMARK VINA RESULT:      -6.9      0.000      0.000
REMARK  Name = 
REMARK  8 active torsions:
REMARK  status: ('A' for Active; 'I' for Inactive)
REMARK    1  A    between atoms: C_2  and  C_3
REMARK    2  A    between atoms: C_8  and  O_9
REMARK    3  A    between atoms: O_9  and  C_10
REMARK    4  A    between atoms: C_10  and  C_11
REMARK    5  A    between atoms: C_11  and  O_13
REMARK    6  A    between atoms: O_13  and  C_14
REMARK    7  A    between atoms: C_14  and  C_15
REMARK    8  A    between atoms: C_15  and  N_16
REMARK                            x       y       z     vdW  Elec       q    Type
REMARK                         _______ _______ _______ _____ _____    ______ ____
ROOT
ATOM      1  C   UNL     1       4.683   4.892  17.560  0.00  0.00    +0.000 C 
ATOM      2  O   UNL     1       4.126   5.974  17.694  0.00  0.00    +0.000 OA
ENDROOT
BRANCH   1   3
ATOM      3  C   UNL     1       4.056   3.652  16.939  0.00  0.00    +0.000 C 
BRANCH   3   4
ATOM      4  O   UNL     1       3.846   2.607  17.864  0.00  0.00    +0.000 OA
BRANCH   4  10
ATOM      5  C   UNL     1       3.304   2.546  20.329  0.00  0.00    +0.000 A 
ATOM      6  C   UNL     1       2.330   2.890  21.291  0.00  0.00    +0.000 A 
ATOM      7  C   UNL     1       1.133   3.499  20.921  0.00  0.00    +0.000 A 
ATOM      8  C   UNL     1       0.890   3.773  19.584  0.00  0.00    +0.000 A 
ATOM      9  C   UNL     1       1.845   3.442  18.621  0.00  0.00    +0.000 A 
ATOM     10  C   UNL     1       3.064   2.828  18.971  0.00  0.00    +0.000 A 
BRANCH   5  12
ATOM     11  N   UNL     1       5.446   1.407  21.247  0.00  0.00    +0.000 NA
ATOM     12  C   UNL     1       4.488   1.914  20.835  0.00  0.00    +0.000 C 
ENDBRANCH   5  12
ENDBRANCH   4  10
ENDBRANCH   3   4
ENDBRANCH   1   3
BRANCH   1  13
ATOM     13  O   UNL     1       6.003   4.671  17.818  0.00  0.00    +0.000 OA
BRANCH  13  14
ATOM     14  C   UNL     1       6.744   4.222  16.673  0.00  0.00    +0.000 C 
BRANCH  14  15
ATOM     15  C   UNL     1       6.858   5.280  15.576  0.00  0.00    +0.000 C 
BRANCH  15  16
ATOM     16  N   UNL     1       6.889   4.738  14.227  0.00  0.00    +0.000 N 
ATOM     17  C   UNL     1       5.795   3.978  13.680  0.00  0.00    +0.000 C 
ATOM     18  C   UNL     1       6.366   3.453  12.378  0.00  0.00    +0.000 C 
ATOM     19  C   UNL     1       7.316   4.560  11.932  0.00  0.00    +0.000 C 
ATOM     20  C   UNL     1       7.764   5.166  13.239  0.00  0.00    +0.000 C 
ATOM     21  O   UNL     1       8.695   5.945  13.381  0.00  0.00    +0.000 OA
ENDBRANCH  15  16
ENDBRANCH  14  15
ENDBRANCH  13  14
ENDBRANCH   1  13
TORSDOF 8
ENDMDL
MODEL 2
REMARK VINA RESULT:      -6.8      2.218      3.033
REMARK  Name = 
REMARK  8 active torsions:
REMARK  status: ('A' for Active; 'I' for Inactive)
REMARK    1  A    between atoms: C_2  and  C_3
REMARK    2  A    between atoms: C_8  and  O_9
REMARK    3  A    between atoms: O_9  and  C_10
REMARK    4  A    between atoms: C_10  and  C_11
REMARK    5  A    between atoms: C_11  and  O_13
REMARK    6  A    between atoms: O_13  and  C_14
REMARK    7  A    between atoms: C_14  and  C_15
REMARK    8  A    between atoms: C_15  and  N_16
REMARK                            x       y       z     vdW  Elec       q    Type
REMARK                         _______ _______ _______ _____ _____    ______ ____
ROOT
ATOM      1  C   UNL     1       4.239   2.330  19.016  0.00  0.00    +0.000 C 
ATOM      2  O   UNL     1       4.300   1.971  20.184  0.00  0.00    +0.000 OA
ENDROOT
BRANCH   1   3
ATOM      3  C   UNL     1       3.121   1.978  18.045  0.00  0.00    +0.000 C 
BRANCH   3   4
ATOM      4  O   UNL     1       1.903   2.632  18.332  0.00  0.00    +0.000 OA
BRANCH   4  10
ATOM      5  C   UNL     1       1.773   4.179  20.323  0.00  0.00    +0.000 A 
ATOM      6  C   UNL     1       1.844   5.531  20.722  0.00  0.00    +0.000 A 
ATOM      7  C   UNL     1       2.051   6.549  19.793  0.00  0.00    +0.000 A 
ATOM      8  C   UNL     1       2.189   6.231  18.451  0.00  0.00    +0.000 A 
ATOM      9  C   UNL     1       2.126   4.899  18.041  0.00  0.00    +0.000 A 
ATOM     10  C   UNL     1       1.920   3.852  18.962  0.00  0.00    +0.000 A 
BRANCH   5  12
ATOM     11  N   UNL     1       1.363   2.461  22.223  0.00  0.00    +0.000 NA
ATOM     12  C   UNL     1       1.546   3.228  21.372  0.00  0.00    +0.000 C 
ENDBRANCH   5  12
ENDBRANCH   4  10
ENDBRANCH   3   4
ENDBRANCH   1   3
BRANCH   1  13
ATOM     13  O   UNL     1       5.094   3.223  18.442  0.00  0.00    +0.000 OA
BRANCH  13  14
ATOM     14  C   UNL     1       5.311   4.401  19.235  0.00  0.00    +0.000 C 
BRANCH  14  15
ATOM     15  C   UNL     1       5.920   5.557  18.443  0.00  0.00    +0.000 C 
BRANCH  15  16
ATOM     16  N   UNL     1       6.088   5.283  17.025  0.00  0.00    +0.000 N 
ATOM     17  C   UNL     1       5.272   5.914  16.020  0.00  0.00    +0.000 C 
ATOM     18  C   UNL     1       5.654   5.167  14.757  0.00  0.00    +0.000 C 
ATOM     19  C   UNL     1       7.123   4.821  14.976  0.00  0.00    +0.000 C 
ATOM     20  C   UNL     1       7.220   4.696  16.476  0.00  0.00    +0.000 C 
ATOM     21  O   UNL     1       8.162   4.220  17.092  0.00  0.00    +0.000 OA
ENDBRANCH  15  16
ENDBRANCH  14  15
ENDBRANCH  13  14
ENDBRANCH   1  13
TORSDOF 8
ENDMDL
MODEL 3
REMARK VINA RESULT:      -6.7      2.639      5.925
REMARK  Name = 
REMARK  8 active torsions:
REMARK  status: ('A' for Active; 'I' for Inactive)
REMARK    1  A    between atoms: C_2  and  C_3
REMARK    2  A    between atoms: C_8  and  O_9
REMARK    3  A    between atoms: O_9  and  C_10
REMARK    4  A    between atoms: C_10  and  C_11
REMARK    5  A    between atoms: C_11  and  O_13
REMARK    6  A    between atoms: O_13  and  C_14
REMARK    7  A    between atoms: C_14  and  C_15
REMARK    8  A    between atoms: C_15  and  N_16
REMARK                            x       y       z     vdW  Elec       q    Type
REMARK                         _______ _______ _______ _____ _____    ______ ____
ROOT
ATOM      1  C   UNL     1       2.530   7.507  18.676  0.00  0.00    +0.000 C 
ATOM      2  O   UNL     1       1.964   8.565  18.436  0.00  0.00    +0.000 OA
ENDROOT
BRANCH   1   3
ATOM      3  C   UNL     1       3.321   6.685  17.668  0.00  0.00    +0.000 C 
BRANCH   3   4
ATOM      4  O   UNL     1       4.702   6.627  17.953  0.00  0.00    +0.000 OA
BRANCH   4  10
ATOM      5  C   UNL     1       6.771   5.273  17.444  0.00  0.00    +0.000 A 
ATOM      6  C   UNL     1       7.421   4.517  16.445  0.00  0.00    +0.000 A 
ATOM      7  C   UNL     1       6.858   4.353  15.181  0.00  0.00    +0.000 A 
ATOM      8  C   UNL     1       5.636   4.944  14.896  0.00  0.00    +0.000 A 
ATOM      9  C   UNL     1       4.979   5.690  15.875  0.00  0.00    +0.000 A 
ATOM     10  C   UNL     1       5.527   5.868  17.161  0.00  0.00    +0.000 A 
BRANCH   5  12
ATOM     11  N   UNL     1       8.012   5.459  19.714  0.00  0.00    +0.000 NA
ATOM     12  C   UNL     1       7.458   5.375  18.698  0.00  0.00    +0.000 C 
ENDBRANCH   5  12
ENDBRANCH   4  10
ENDBRANCH   3   4
ENDBRANCH   1   3
BRANCH   1  13
ATOM     13  O   UNL     1       2.661   6.972  19.923  0.00  0.00    +0.000 OA
BRANCH  13  14
ATOM     14  C   UNL     1       1.810   5.837  20.152  0.00  0.00    +0.000 C 
BRANCH  14  15
ATOM     15  C   UNL     1       2.578   4.581  20.558  0.00  0.00    +0.000 C 
BRANCH  15  16
ATOM     16  N   UNL     1       2.770   3.626  19.479  0.00  0.00    +0.000 N 
ATOM     17  C   UNL     1       1.798   3.445  18.432  0.00  0.00    +0.000 C 
ATOM     18  C   UNL     1       2.317   2.226  17.696  0.00  0.00    +0.000 C 
ATOM     19  C   UNL     1       3.832   2.343  17.833  0.00  0.00    +0.000 C 
ATOM     20  C   UNL     1       3.996   3.067  19.146  0.00  0.00    +0.000 C 
ATOM     21  O   UNL     1       5.042   3.189  19.767  0.00  0.00    +0.000 OA
ENDBRANCH  15  16
ENDBRANCH  14  15
ENDBRANCH  13  14
ENDBRANCH   1  13
TORSDOF 8
ENDMDL
MODEL 4
REMARK VINA RESULT:      -6.7      2.789      6.482
REMARK  Name = 
REMARK  8 active torsions:
REMARK  status: ('A' for Active; 'I' for Inactive)
REMARK    1  A    between atoms: C_2  and  C_3
REMARK    2  A    between atoms: C_8  and  O_9
REMARK    3  A    between atoms: O_9  and  C_10
REMARK    4  A    between atoms: C_10  and  C_11
REMARK    5  A    between atoms: C_11  and  O_13
REMARK    6  A    between atoms: O_13  and  C_14
REMARK    7  A    between atoms: C_14  and  C_15
REMARK    8  A    between atoms: C_15  and  N_16
REMARK                            x       y       z     vdW  Elec       q    Type
REMARK                         _______ _______ _______ _____ _____    ______ ____
ROOT
ATOM      1  C   UNL     1       2.403   7.145  19.366  0.00  0.00    +0.000 C 
ATOM      2  O   UNL     1       1.924   8.167  19.841  0.00  0.00    +0.000 OA
ENDROOT
BRANCH   1   3
ATOM      3  C   UNL     1       2.868   6.980  17.926  0.00  0.00    +0.000 C 
BRANCH   3   4
ATOM      4  O   UNL     1       4.217   7.346  17.728  0.00  0.00    +0.000 OA
BRANCH   4  10
ATOM      5  C   UNL     1       6.496   6.491  17.059  0.00  0.00    +0.000 A 
ATOM      6  C   UNL     1       7.181   5.397  16.488  0.00  0.00    +0.000 A 
ATOM      7  C   UNL     1       6.497   4.262  16.056  0.00  0.00    +0.000 A 
ATOM      8  C   UNL     1       5.118   4.205  16.188  0.00  0.00    +0.000 A 
ATOM      9  C   UNL     1       4.428   5.277  16.755  0.00  0.00    +0.000 A 
ATOM     10  C   UNL     1       5.097   6.434  17.201  0.00  0.00    +0.000 A 
BRANCH   5  12
ATOM     11  N   UNL     1       7.972   8.503  17.769  0.00  0.00    +0.000 NA
ATOM     12  C   UNL     1       7.312   7.603  17.453  0.00  0.00    +0.000 C 
ENDBRANCH   5  12
ENDBRANCH   4  10
ENDBRANCH   3   4
ENDBRANCH   1   3
BRANCH   1  13
ATOM     13  O   UNL     1       2.726   6.039  20.093  0.00  0.00    +0.000 OA
BRANCH  13  14
ATOM     14  C   UNL     1       1.628   5.511  20.853  0.00  0.00    +0.000 C 
BRANCH  14  15
ATOM     15  C   UNL     1       1.144   4.152  20.348  0.00  0.00    +0.000 C 
BRANCH  15  16
ATOM     16  N   UNL     1       2.186   3.336  19.747  0.00  0.00    +0.000 N 
ATOM     17  C   UNL     1       3.115   2.572  20.538  0.00  0.00    +0.000 C 
ATOM     18  C   UNL     1       4.116   2.086  19.509  0.00  0.00    +0.000 C 
ATOM     19  C   UNL     1       3.275   1.900  18.251  0.00  0.00    +0.000 C 
ATOM     20  C   UNL     1       2.186   2.930  18.419  0.00  0.00    +0.000 C 
ATOM     21  O   UNL     1       1.405   3.290  17.550  0.00  0.00    +0.000 OA
ENDBRANCH  15  16
ENDBRANCH  14  15
ENDBRANCH  13  14
ENDBRANCH   1  13
TORSDOF 8
ENDMDL
MODEL 5
REMARK VINA RESULT:      -6.6      2.417      3.646
REMARK  Name = 
REMARK  8 active torsions:
REMARK  status: ('A' for Active; 'I' for Inactive)
REMARK    1  A    between atoms: C_2  and  C_3
REMARK    2  A    between atoms: C_8  and  O_9
REMARK    3  A    between atoms: O_9  and  C_10
REMARK    4  A    between atoms: C_10  and  C_11
REMARK    5  A    between atoms: C_11  and  O_13
REMARK    6  A    between atoms: O_13  and  C_14
REMARK    7  A    between atoms: C_14  and  C_15
REMARK    8  A    between atoms: C_15  and  N_16
REMARK                            x       y       z     vdW  Elec       q    Type
REMARK                         _______ _______ _______ _____ _____    ______ ____
ROOT
ATOM      1  C   UNL     1       3.477   3.555  17.217  0.00  0.00    +0.000 C 
ATOM      2  O   UNL     1       2.375   3.118  16.911  0.00  0.00    +0.000 OA
ENDROOT
BRANCH   1   3
ATOM      3  C   UNL     1       4.233   3.218  18.495  0.00  0.00    +0.000 C 
BRANCH   3   4
ATOM      4  O   UNL     1       4.500   4.345  19.301  0.00  0.00    +0.000 OA
BRANCH   4  10
ATOM      5  C   UNL     1       2.444   4.912  20.652  0.00  0.00    +0.000 A 
ATOM      6  C   UNL     1       1.491   5.921  20.908  0.00  0.00    +0.000 A 
ATOM      7  C   UNL     1       1.538   7.145  20.244  0.00  0.00    +0.000 A 
ATOM      8  C   UNL     1       2.538   7.378  19.312  0.00  0.00    +0.000 A 
ATOM      9  C   UNL     1       3.490   6.392  19.050  0.00  0.00    +0.000 A 
ATOM     10  C   UNL     1       3.465   5.147  19.712  0.00  0.00    +0.000 A 
BRANCH   5  12
ATOM     11  N   UNL     1       2.147   2.711  21.993  0.00  0.00    +0.000 NA
ATOM     12  C   UNL     1       2.281   3.694  21.392  0.00  0.00    +0.000 C 
ENDBRANCH   5  12
ENDBRANCH   4  10
ENDBRANCH   3   4
ENDBRANCH   1   3
BRANCH   1  13
ATOM     13  O   UNL     1       4.262   4.302  16.391  0.00  0.00    +0.000 OA
BRANCH  13  14
ATOM     14  C   UNL     1       5.435   3.610  15.933  0.00  0.00    +0.000 C 
BRANCH  14  15
ATOM     15  C   UNL     1       6.567   4.550  15.523  0.00  0.00    +0.000 C 
BRANCH  15  16
ATOM     16  N   UNL     1       6.970   5.485  16.561  0.00  0.00    +0.000 N 
ATOM     17  C   UNL     1       6.394   6.800  16.675  0.00  0.00    +0.000 C 
ATOM     18  C   UNL     1       7.265   7.460  17.726  0.00  0.00    +0.000 C 
ATOM     19  C   UNL     1       7.653   6.306  18.644  0.00  0.00    +0.000 C 
ATOM     20  C   UNL     1       7.651   5.119  17.714  0.00  0.00    +0.000 C 
ATOM     21  O   UNL     1       8.113   4.016  17.965  0.00  0.00    +0.000 OA
ENDBRANCH  15  16
ENDBRANCH  14  15
ENDBRANCH  13  14
ENDBRANCH   1  13
TORSDOF 8
ENDMDL
MODEL 6
REMARK VINA RESULT:      -6.6      1.682      2.297
REMARK  Name = 
REMARK  8 active torsions:
REMARK  status: ('A' for Active; 'I' for Inactive)
REMARK    1  A    between atoms: C_2  and  C_3
REMARK    2  A    between atoms: C_8  and  O_9
REMARK    3  A    between atoms: O_9  and  C_10
REMARK    4  A    between atoms: C_10  and  C_11
REMARK    5  A    between atoms: C_11  and  O_13
REMARK    6  A    between atoms: O_13  and  C_14
REMARK    7  A    between atoms: C_14  and  C_15
REMARK    8  A    between atoms: C_15  and  N_16
REMARK                            x       y       z     vdW  Elec       q    Type
REMARK                         _______ _______ _______ _____ _____    ______ ____
ROOT
ATOM      1  C   UNL     1       7.347   5.280  17.600  0.00  0.00    +0.000 C 
ATOM      2  O   UNL     1       7.642   6.414  17.247  0.00  0.00    +0.000 OA
ENDROOT
BRANCH   1   3
ATOM      3  C   UNL     1       6.884   4.886  18.995  0.00  0.00    +0.000 C 
BRANCH   3   4
ATOM      4  O   UNL     1       5.739   5.590  19.425  0.00  0.00    +0.000 OA
BRANCH   4  10
ATOM      5  C   UNL     1       3.863   3.911  19.232  0.00  0.00    +0.000 A 
ATOM      6  C   UNL     1       2.551   3.719  18.750  0.00  0.00    +0.000 A 
ATOM      7  C   UNL     1       1.868   4.737  18.088  0.00  0.00    +0.000 A 
ATOM      8  C   UNL     1       2.487   5.963  17.896  0.00  0.00    +0.000 A 
ATOM      9  C   UNL     1       3.783   6.169  18.370  0.00  0.00    +0.000 A 
ATOM     10  C   UNL     1       4.493   5.156  19.045  0.00  0.00    +0.000 A 
BRANCH   5  12
ATOM     11  N   UNL     1       4.948   1.874  20.416  0.00  0.00    +0.000 NA
ATOM     12  C   UNL     1       4.461   2.784  19.886  0.00  0.00    +0.000 C 
ENDBRANCH   5  12
ENDBRANCH   4  10
ENDBRANCH   3   4
ENDBRANCH   1   3
BRANCH   1  13
ATOM     13  O   UNL     1       7.249   4.215  16.755  0.00  0.00    +0.000 OA
BRANCH  13  14
ATOM     14  C   UNL     1       5.906   3.945  16.325  0.00  0.00    +0.000 C 
BRANCH  14  15
ATOM     15  C   UNL     1       5.491   4.760  15.101  0.00  0.00    +0.000 C 
BRANCH  15  16
ATOM     16  N   UNL     1       6.092   4.313  13.856  0.00  0.00    +0.000 N 
ATOM     17  C   UNL     1       5.360   3.546  12.881  0.00  0.00    +0.000 C 
ATOM     18  C   UNL     1       6.437   3.136  11.896  0.00  0.00    +0.000 C 
ATOM     19  C   UNL     1       7.411   4.309  11.921  0.00  0.00    +0.000 C 
ATOM     20  C   UNL     1       7.260   4.843  13.324  0.00  0.00    +0.000 C 
ATOM     21  O   UNL     1       8.003   5.649  13.863  0.00  0.00    +0.000 OA
ENDBRANCH  15  16
ENDBRANCH  14  15
ENDBRANCH  13  14
ENDBRANCH   1  13
TORSDOF 8
ENDMDL
MODEL 7
REMARK VINA RESULT:      -6.5      2.352      3.029
REMARK  Name = 
REMARK  8 active torsions:
REMARK  status: ('A' for Active; 'I' for Inactive)
REMARK    1  A    between atoms: C_2  and  C_3
REMARK    2  A    between atoms: C_8  and  O_9
REMARK    3  A    between atoms: O_9  and  C_10
REMARK    4  A    between atoms: C_10  and  C_11
REMARK    5  A    between atoms: C_11  and  O_13
REMARK    6  A    between atoms: O_13  and  C_14
REMARK    7  A    between atoms: C_14  and  C_15
REMARK    8  A    between atoms: C_15  and  N_16
REMARK                            x       y       z     vdW  Elec       q    Type
REMARK                         _______ _______ _______ _____ _____    ______ ____
ROOT
ATOM      1  C   UNL     1       5.080   3.961  18.951  0.00  0.00    +0.000 C 
ATOM      2  O   UNL     1       5.291   3.079  19.773  0.00  0.00    +0.000 OA
ENDROOT
BRANCH   1   3
ATOM      3  C   UNL     1       4.103   3.864  17.788  0.00  0.00    +0.000 C 
BRANCH   3   4
ATOM      4  O   UNL     1       2.762   4.090  18.163  0.00  0.00    +0.000 OA
BRANCH   4  10
ATOM      5  C   UNL     1       2.134   5.328  20.272  0.00  0.00    +0.000 A 
ATOM      6  C   UNL     1       1.851   6.605  20.803  0.00  0.00    +0.000 A 
ATOM      7  C   UNL     1       1.864   7.742  19.998  0.00  0.00    +0.000 A 
ATOM      8  C   UNL     1       2.161   7.620  18.649  0.00  0.00    +0.000 A 
ATOM      9  C   UNL     1       2.447   6.365  18.110  0.00  0.00    +0.000 A 
ATOM     10  C   UNL     1       2.443   5.201  18.905  0.00  0.00    +0.000 A 
BRANCH   5  12
ATOM     11  N   UNL     1       2.029   3.354  21.952  0.00  0.00    +0.000 NA
ATOM     12  C   UNL     1       2.078   4.237  21.202  0.00  0.00    +0.000 C 
ENDBRANCH   5  12
ENDBRANCH   4  10
ENDBRANCH   3   4
ENDBRANCH   1   3
BRANCH   1  13
ATOM     13  O   UNL     1       5.585   5.224  19.035  0.00  0.00    +0.000 OA
BRANCH  13  14
ATOM     14  C   UNL     1       6.985   5.305  18.724  0.00  0.00    +0.000 C 
BRANCH  14  15
ATOM     15  C   UNL     1       7.276   6.130  17.471  0.00  0.00    +0.000 C 
BRANCH  15  16
ATOM     16  N   UNL     1       6.785   5.534  16.239  0.00  0.00    +0.000 N 
ATOM     17  C   UNL     1       7.166   4.210  15.821  0.00  0.00    +0.000 C 
ATOM     18  C   UNL     1       6.604   4.124  14.416  0.00  0.00    +0.000 C 
ATOM     19  C   UNL     1       5.340   4.975  14.483  0.00  0.00    +0.000 C 
ATOM     20  C   UNL     1       5.677   5.996  15.541  0.00  0.00    +0.000 C 
ATOM     21  O   UNL     1       5.043   7.014  15.777  0.00  0.00    +0.000 OA
ENDBRANCH  15  16
ENDBRANCH  14  15
ENDBRANCH  13  14
ENDBRANCH   1  13
TORSDOF 8
ENDMDL
MODEL 8
REMARK VINA RESULT:      -6.5      2.052      2.603
REMARK  Name = 
REMARK  8 active torsions:
REMARK  status: ('A' for Active; 'I' for Inactive)
REMARK    1  A    between atoms: C_2  and  C_3
REMARK    2  A    between atoms: C_8  and  O_9
REMARK    3  A    between atoms: O_9  and  C_10
REMARK    4  A    between atoms: C_10  and  C_11
REMARK    5  A    between atoms: C_11  and  O_13
REMARK    6  A    between atoms: O_13  and  C_14
REMARK    7  A    between atoms: C_14  and  C_15
REMARK    8  A    between atoms: C_15  and  N_16
REMARK                            x       y       z     vdW  Elec       q    Type
REMARK                         _______ _______ _______ _____ _____    ______ ____
ROOT
ATOM      1  C   UNL     1       6.948   5.334  18.595  0.00  0.00    +0.000 C 
ATOM      2  O   UNL     1       7.794   6.198  18.785  0.00  0.00    +0.000 OA
ENDROOT
BRANCH   1   3
ATOM      3  C   UNL     1       5.592   5.265  19.283  0.00  0.00    +0.000 C 
BRANCH   3   4
ATOM      4  O   UNL     1       4.505   5.336  18.385  0.00  0.00    +0.000 OA
BRANCH   4  10
ATOM      5  C   UNL     1       2.256   4.638  19.296  0.00  0.00    +0.000 A 
ATOM      6  C   UNL     1       1.291   3.608  19.283  0.00  0.00    +0.000 A 
ATOM      7  C   UNL     1       1.487   2.443  18.544  0.00  0.00    +0.000 A 
ATOM      8  C   UNL     1       2.652   2.289  17.808  0.00  0.00    +0.000 A 
ATOM      9  C   UNL     1       3.614   3.300  17.808  0.00  0.00    +0.000 A 
ATOM     10  C   UNL     1       3.437   4.488  18.544  0.00  0.00    +0.000 A 
BRANCH   5  12
ATOM     11  N   UNL     1       1.690   6.705  20.758  0.00  0.00    +0.000 NA
ATOM     12  C   UNL     1       1.941   5.781  20.103  0.00  0.00    +0.000 C 
ENDBRANCH   5  12
ENDBRANCH   4  10
ENDBRANCH   3   4
ENDBRANCH   1   3
BRANCH   1  13
ATOM     13  O   UNL     1       7.033   4.377  17.628  0.00  0.00    +0.000 OA
BRANCH  13  14
ATOM     14  C   UNL     1       7.384   4.897  16.336  0.00  0.00    +0.000 C 
BRANCH  14  15
ATOM     15  C   UNL     1       6.198   4.980  15.377  0.00  0.00    +0.000 C 
BRANCH  15  16
ATOM     16  N   UNL     1       6.476   4.480  14.041  0.00  0.00    +0.000 N 
ATOM     17  C   UNL     1       5.518   3.703  13.298  0.00  0.00    +0.000 C 
ATOM     18  C   UNL     1       6.320   3.235  12.100  0.00  0.00    +0.000 C 
ATOM     19  C   UNL     1       7.291   4.383  11.849  0.00  0.00    +0.000 C 
ATOM     20  C   UNL     1       7.490   4.964  13.226  0.00  0.00    +0.000 C 
ATOM     21  O   UNL     1       8.355   5.768  13.543  0.00  0.00    +0.000 OA
ENDBRANCH  15  16
ENDBRANCH  14  15
ENDBRANCH  13  14
ENDBRANCH   1  13
TORSDOF 8
ENDMDL
MODEL 9
REMARK VINA RESULT:      -6.4      2.847      3.877
REMARK  Name = 
REMARK  8 active torsions:
REMARK  status: ('A' for Active; 'I' for Inactive)
REMARK    1  A    between atoms: C_2  and  C_3
REMARK    2  A    between atoms: C_8  and  O_9
REMARK    3  A    between atoms: O_9  and  C_10
REMARK    4  A    between atoms: C_10  and  C_11
REMARK    5  A    between atoms: C_11  and  O_13
REMARK    6  A    between atoms: O_13  and  C_14
REMARK    7  A    between atoms: C_14  and  C_15
REMARK    8  A    between atoms: C_15  and  N_16
REMARK                            x       y       z     vdW  Elec       q    Type
REMARK                         _______ _______ _______ _____ _____    ______ ____
ROOT
ATOM      1  C   UNL     1       3.528   2.156  18.483  0.00  0.00    +0.000 C 
ATOM      2  O   UNL     1       4.095   1.896  19.536  0.00  0.00    +0.000 OA
ENDROOT
BRANCH   1   3
ATOM      3  C   UNL     1       2.076   1.832  18.163  0.00  0.00    +0.000 C 
BRANCH   3   4
ATOM      4  O   UNL     1       1.249   2.975  18.095  0.00  0.00    +0.000 OA
BRANCH   4  10
ATOM      5  C   UNL     1       1.712   4.320  20.180  0.00  0.00    +0.000 A 
ATOM      6  C   UNL     1       2.101   5.592  20.653  0.00  0.00    +0.000 A 
ATOM      7  C   UNL     1       2.367   6.640  19.774  0.00  0.00    +0.000 A 
ATOM      8  C   UNL     1       2.245   6.433  18.408  0.00  0.00    +0.000 A 
ATOM      9  C   UNL     1       1.865   5.180  17.925  0.00  0.00    +0.000 A 
ATOM     10  C   UNL     1       1.594   4.104  18.794  0.00  0.00    +0.000 A 
BRANCH   5  12
ATOM     11  N   UNL     1       1.254   2.526  21.998  0.00  0.00    +0.000 NA
ATOM     12  C   UNL     1       1.457   3.330  21.186  0.00  0.00    +0.000 C 
ENDBRANCH   5  12
ENDBRANCH   4  10
ENDBRANCH   3   4
ENDBRANCH   1   3
BRANCH   1  13
ATOM     13  O   UNL     1       4.072   2.907  17.485  0.00  0.00    +0.000 OA
BRANCH  13  14
ATOM     14  C   UNL     1       5.042   3.861  17.947  0.00  0.00    +0.000 C 
BRANCH  14  15
ATOM     15  C   UNL     1       5.782   4.566  16.812  0.00  0.00    +0.000 C 
BRANCH  15  16
ATOM     16  N   UNL     1       6.604   5.685  17.242  0.00  0.00    +0.000 N 
ATOM     17  C   UNL     1       6.195   7.053  17.057  0.00  0.00    +0.000 C 
ATOM     18  C   UNL     1       7.437   7.832  17.443  0.00  0.00    +0.000 C 
ATOM     19  C   UNL     1       8.074   6.974  18.531  0.00  0.00    +0.000 C 
ATOM     20  C   UNL     1       7.647   5.578  18.152  0.00  0.00    +0.000 C 
ATOM     21  O   UNL     1       8.102   4.543  18.616  0.00  0.00    +0.000 OA
ENDBRANCH  15  16
ENDBRANCH  14  15
ENDBRANCH  13  14
ENDBRANCH   1  13
TORSDOF 8
ENDMDL
