MODEL 1
REMARK VINA RESULT:      -8.2      0.000      0.000
REMARK  Name = 
REMARK  12 active torsions:
REMARK  status: ('A' for Active; 'I' for Inactive)
REMARK    1  A    between atoms: C_1  and  C_2
REMARK    2  A    between atoms: C_2  and  C_3
REMARK    3  A    between atoms: C_3  and  N_4
REMARK    4  A    between atoms: C_3  and  C_26
REMARK    5  A    between atoms: C_5  and  C_7
REMARK    6  A    between atoms: C_9  and  C_10
REMARK    7  A    between atoms: C_10  and  O_11
REMARK    8  A    between atoms: O_11  and  C_12
REMARK    9  A    between atoms: C_20  and  C_21
REMARK   10  A    between atoms: C_21  and  C_22
REMARK   11  A    between atoms: C_22  and  C_23
REMARK   12  A    between atoms: C_23  and  O_25
REMARK                            x       y       z     vdW  Elec       q    Type
REMARK                         _______ _______ _______ _____ _____    ______ ____
ROOT
ATOM      1  C   UNL     1       3.797   5.259  19.475  0.00  0.00    +0.000 A 
ATOM      2  C   UNL     1       3.270   6.564  19.569  0.00  0.00    +0.000 A 
ATOM      3  C   UNL     1       2.020   6.807  20.162  0.00  0.00    +0.000 A 
ATOM      4  C   UNL     1       1.256   5.724  20.595  0.00  0.00    +0.000 A 
ATOM      5  C   UNL     1       1.772   4.433  20.535  0.00  0.00    +0.000 A 
ATOM      6  C   UNL     1       3.059   4.180  20.020  0.00  0.00    +0.000 A 
ENDROOT
BRANCH   1   8
ATOM      7  N   UNL     1       5.412   5.641  17.643  0.00  0.00    +0.000 N 
ATOM      8  C   UNL     1       5.163   5.068  18.879  0.00  0.00    +0.000 C 
ATOM      9  O   UNL     1       6.016   4.439  19.494  0.00  0.00    +0.000 OA
ATOM     10  H   UNL     1       4.663   6.056  17.108  0.00  0.00    +0.000 HD
BRANCH   7  11
ATOM     11  C   UNL     1       6.718   5.539  16.993  0.00  0.00    +0.000 C 
BRANCH  11  12
ATOM     12  C   UNL     1       6.544   4.985  15.578  0.00  0.00    +0.000 A 
ATOM     13  C   UNL     1       5.388   4.244  15.276  0.00  0.00    +0.000 A 
ATOM     14  C   UNL     1       5.192   3.697  14.003  0.00  0.00    +0.000 A 
ATOM     15  C   UNL     1       6.141   3.889  13.004  0.00  0.00    +0.000 A 
ATOM     16  C   UNL     1       7.284   4.636  13.278  0.00  0.00    +0.000 A 
ATOM     17  C   UNL     1       7.483   5.185  14.551  0.00  0.00    +0.000 A 
ENDBRANCH  11  12
BRANCH  11  19
ATOM     18  C   UNL     1       8.054   7.245  18.399  0.00  0.00    +0.000 C 
ATOM     19  C   UNL     1       7.495   6.877  17.031  0.00  0.00    +0.000 C 
ENDBRANCH  11  19
ENDBRANCH   7  11
ENDBRANCH   1   8
BRANCH   3  20
ATOM     20  C   UNL     1       1.516   8.215  20.383  0.00  0.00    +0.000 C 
BRANCH  20  21
ATOM     21  O   UNL     1       0.570   8.229  21.447  0.00  0.00    +0.000 OA
BRANCH  21  22
ATOM     22  C   UNL     1      -0.099   9.414  21.612  0.00  0.00    +0.000 A 
ATOM     23  C   UNL     1      -0.536   9.673  22.913  0.00  0.00    +0.000 A 
ATOM     24  C   UNL     1      -1.234  10.847  23.205  0.00  0.00    +0.000 A 
ATOM     25  C   UNL     1      -1.484  11.779  22.200  0.00  0.00    +0.000 A 
ATOM     26  C   UNL     1      -1.029  11.539  20.906  0.00  0.00    +0.000 A 
ATOM     27  C   UNL     1      -0.336  10.361  20.611  0.00  0.00    +0.000 A 
ENDBRANCH  21  22
ENDBRANCH  20  21
ENDBRANCH   3  20
BRANCH   6  28
ATOM     28  C   UNL     1       3.562   2.753  20.151  0.00  0.00    +0.000 C 
BRANCH  28  29
ATOM     29  C   UNL     1       3.572   1.968  18.836  0.00  0.00    +0.000 C 
BRANCH  29  30
ATOM     30  C   UNL     1       2.327   2.181  18.011  0.00  0.00    +0.000 C 
ATOM     31  O   UNL     1       2.280   2.880  17.011  0.00  0.00    +0.000 OA
BRANCH  30  32
ATOM     32  O   UNL     1       1.240   1.537  18.495  0.00  0.00    +0.000 OA
ATOM     33  H   UNL     1       0.738   2.069  19.142  0.00  0.00    +0.000 HD
ENDBRANCH  30  32
ENDBRANCH  29  30
ENDBRANCH  28  29
ENDBRANCH   6  28
TORSDOF 11
ENDMDL
MODEL 2
REMARK VINA RESULT:      -8.0      2.864      8.644
REMARK  Name = 
REMARK  12 active torsions:
REMARK  status: ('A' for Active; 'I' for Inactive)
REMARK    1  A    between atoms: C_1  and  C_2
REMARK    2  A    between atoms: C_2  and  C_3
REMARK    3  A    between atoms: C_3  and  N_4
REMARK    4  A    between atoms: C_3  and  C_26
REMARK    5  A    between atoms: C_5  and  C_7
REMARK    6  A    between atoms: C_9  and  C_10
REMARK    7  A    between atoms: C_10  and  O_11
REMARK    8  A    between atoms: O_11  and  C_12
REMARK    9  A    between atoms: C_20  and  C_21
REMARK   10  A    between atoms: C_21  and  C_22
REMARK   11  A    between atoms: C_22  and  C_23
REMARK   12  A    between atoms: C_23  and  O_25
REMARK                            x       y       z     vdW  Elec       q    Type
REMARK                         _______ _______ _______ _____ _____    ______ ____
ROOT
ATOM      1  C   UNL     1       1.923   7.932  18.961  0.00  0.00    +0.000 A 
ATOM      2  C   UNL     1       2.679   7.067  18.143  0.00  0.00    +0.000 A 
ATOM      3  C   UNL     1       3.069   5.793  18.589  0.00  0.00    +0.000 A 
ATOM      4  C   UNL     1       2.767   5.414  19.897  0.00  0.00    +0.000 A 
ATOM      5  C   UNL     1       1.999   6.244  20.709  0.00  0.00    +0.000 A 
ATOM      6  C   UNL     1       1.527   7.490  20.247  0.00  0.00    +0.000 A 
ENDROOT
BRANCH   1   8
ATOM      7  N   UNL     1       0.330   9.822  18.921  0.00  0.00    +0.000 N 
ATOM      8  C   UNL     1       1.488   9.260  18.410  0.00  0.00    +0.000 C 
ATOM      9  O   UNL     1       2.164   9.818  17.553  0.00  0.00    +0.000 OA
ATOM     10  H   UNL     1      -0.267   9.295  19.541  0.00  0.00    +0.000 HD
BRANCH   7  11
ATOM     11  C   UNL     1      -0.161  11.125  18.473  0.00  0.00    +0.000 C 
BRANCH  11  12
ATOM     12  C   UNL     1      -1.609  10.993  18.000  0.00  0.00    +0.000 A 
ATOM     13  C   UNL     1      -2.606  11.747  18.641  0.00  0.00    +0.000 A 
ATOM     14  C   UNL     1      -3.948  11.645  18.260  0.00  0.00    +0.000 A 
ATOM     15  C   UNL     1      -4.320  10.795  17.223  0.00  0.00    +0.000 A 
ATOM     16  C   UNL     1      -3.344  10.052  16.563  0.00  0.00    +0.000 A 
ATOM     17  C   UNL     1      -2.000  10.153  16.941  0.00  0.00    +0.000 A 
ENDBRANCH  11  12
BRANCH  11  19
ATOM     18  C   UNL     1       1.469  12.408  20.012  0.00  0.00    +0.000 C 
ATOM     19  C   UNL     1       0.031  12.221  19.548  0.00  0.00    +0.000 C 
ENDBRANCH  11  19
ENDBRANCH   7  11
ENDBRANCH   1   8
BRANCH   3  20
ATOM     20  C   UNL     1       3.761   4.817  17.667  0.00  0.00    +0.000 C 
BRANCH  20  21
ATOM     21  O   UNL     1       4.707   5.505  16.855  0.00  0.00    +0.000 OA
BRANCH  21  22
ATOM     22  C   UNL     1       5.851   5.894  17.502  0.00  0.00    +0.000 A 
ATOM     23  C   UNL     1       6.389   7.111  17.078  0.00  0.00    +0.000 A 
ATOM     24  C   UNL     1       7.556   7.611  17.658  0.00  0.00    +0.000 A 
ATOM     25  C   UNL     1       8.186   6.903  18.680  0.00  0.00    +0.000 A 
ATOM     26  C   UNL     1       7.642   5.701  19.125  0.00  0.00    +0.000 A 
ATOM     27  C   UNL     1       6.476   5.196  18.540  0.00  0.00    +0.000 A 
ENDBRANCH  21  22
ENDBRANCH  20  21
ENDBRANCH   3  20
BRANCH   6  28
ATOM     28  C   UNL     1       0.576   8.228  21.173  0.00  0.00    +0.000 C 
BRANCH  28  29
ATOM     29  C   UNL     1       1.265   9.202  22.132  0.00  0.00    +0.000 C 
BRANCH  29  30
ATOM     30  C   UNL     1       0.298   9.920  23.042  0.00  0.00    +0.000 C 
ATOM     31  O   UNL     1      -0.165  11.026  22.813  0.00  0.00    +0.000 OA
BRANCH  30  32
ATOM     32  O   UNL     1      -0.002   9.229  24.167  0.00  0.00    +0.000 OA
ATOM     33  H   UNL     1       0.154   9.743  24.982  0.00  0.00    +0.000 HD
ENDBRANCH  30  32
ENDBRANCH  29  30
ENDBRANCH  28  29
ENDBRANCH   6  28
TORSDOF 11
ENDMDL
MODEL 3
REMARK VINA RESULT:      -7.9      3.665      5.722
REMARK  Name = 
REMARK  12 active torsions:
REMARK  status: ('A' for Active; 'I' for Inactive)
REMARK    1  A    between atoms: C_1  and  C_2
REMARK    2  A    between atoms: C_2  and  C_3
REMARK    3  A    between atoms: C_3  and  N_4
REMARK    4  A    between atoms: C_3  and  C_26
REMARK    5  A    between atoms: C_5  and  C_7
REMARK    6  A    between atoms: C_9  and  C_10
REMARK    7  A    between atoms: C_10  and  O_11
REMARK    8  A    between atoms: O_11  and  C_12
REMARK    9  A    between atoms: C_20  and  C_21
REMARK   10  A    between atoms: C_21  and  C_22
REMARK   11  A    between atoms: C_22  and  C_23
REMARK   12  A    between atoms: C_23  and  O_25
REMARK                            x       y       z     vdW  Elec       q    Type
REMARK                         _______ _______ _______ _____ _____    ______ ____
ROOT
ATOM      1  C   UNL     1       5.116   5.017  16.493  0.00  0.00    +0.000 A 
ATOM      2  C   UNL     1       3.805   4.516  16.636  0.00  0.00    +0.000 A 
ATOM      3  C   UNL     1       2.887   5.112  17.517  0.00  0.00    +0.000 A 
ATOM      4  C   UNL     1       3.311   6.171  18.320  0.00  0.00    +0.000 A 
ATOM      5  C   UNL     1       4.593   6.695  18.172  0.00  0.00    +0.000 A 
ATOM      6  C   UNL     1       5.499   6.162  17.232  0.00  0.00    +0.000 A 
ENDROOT
BRANCH   1   8
ATOM      7  N   UNL     1       6.163   4.973  14.254  0.00  0.00    +0.000 N 
ATOM      8  C   UNL     1       6.036   4.371  15.495  0.00  0.00    +0.000 C 
ATOM      9  O   UNL     1       6.656   3.360  15.800  0.00  0.00    +0.000 OA
ATOM     10  H   UNL     1       5.560   5.738  13.988  0.00  0.00    +0.000 HD
BRANCH   7  11
ATOM     11  C   UNL     1       7.057   4.442  13.225  0.00  0.00    +0.000 C 
BRANCH  11  12
ATOM     12  C   UNL     1       6.294   3.447  12.349  0.00  0.00    +0.000 A 
ATOM     13  C   UNL     1       6.976   2.329  11.838  0.00  0.00    +0.000 A 
ATOM     14  C   UNL     1       6.328   1.401  11.015  0.00  0.00    +0.000 A 
ATOM     15  C   UNL     1       4.984   1.566  10.694  0.00  0.00    +0.000 A 
ATOM     16  C   UNL     1       4.287   2.657  11.206  0.00  0.00    +0.000 A 
ATOM     17  C   UNL     1       4.932   3.587  12.032  0.00  0.00    +0.000 A 
ENDBRANCH  11  12
BRANCH  11  19
ATOM     18  C   UNL     1       9.079   6.030  12.983  0.00  0.00    +0.000 C 
ATOM     19  C   UNL     1       7.746   5.564  12.414  0.00  0.00    +0.000 C 
ENDBRANCH  11  19
ENDBRANCH   7  11
ENDBRANCH   1   8
BRANCH   3  20
ATOM     20  C   UNL     1       1.446   4.661  17.573  0.00  0.00    +0.000 C 
BRANCH  20  21
ATOM     21  O   UNL     1       1.384   3.285  17.933  0.00  0.00    +0.000 OA
BRANCH  21  22
ATOM     22  C   UNL     1       1.829   2.996  19.197  0.00  0.00    +0.000 A 
ATOM     23  C   UNL     1       0.934   3.297  20.226  0.00  0.00    +0.000 A 
ATOM     24  C   UNL     1       1.277   3.052  21.557  0.00  0.00    +0.000 A 
ATOM     25  C   UNL     1       2.512   2.487  21.867  0.00  0.00    +0.000 A 
ATOM     26  C   UNL     1       3.400   2.162  20.845  0.00  0.00    +0.000 A 
ATOM     27  C   UNL     1       3.060   2.412  19.512  0.00  0.00    +0.000 A 
ENDBRANCH  21  22
ENDBRANCH  20  21
ENDBRANCH   3  20
BRANCH   6  28
ATOM     28  C   UNL     1       6.805   6.918  17.063  0.00  0.00    +0.000 C 
BRANCH  28  29
ATOM     29  C   UNL     1       7.723   6.867  18.287  0.00  0.00    +0.000 C 
BRANCH  29  30
ATOM     30  C   UNL     1       7.707   5.528  18.983  0.00  0.00    +0.000 C 
ATOM     31  O   UNL     1       7.366   5.364  20.144  0.00  0.00    +0.000 OA
BRANCH  30  32
ATOM     32  O   UNL     1       8.132   4.507  18.203  0.00  0.00    +0.000 OA
ATOM     33  H   UNL     1       8.094   4.714  17.250  0.00  0.00    +0.000 HD
ENDBRANCH  30  32
ENDBRANCH  29  30
ENDBRANCH  28  29
ENDBRANCH   6  28
TORSDOF 11
ENDMDL
MODEL 4
REMARK VINA RESULT:      -7.9      1.290      1.799
REMARK  Name = 
REMARK  12 active torsions:
REMARK  status: ('A' for Active; 'I' for Inactive)
REMARK    1  A    between atoms: C_1  and  C_2
REMARK    2  A    between atoms: C_2  and  C_3
REMARK    3  A    between atoms: C_3  and  N_4
REMARK    4  A    between atoms: C_3  and  C_26
REMARK    5  A    between atoms: C_5  and  C_7
REMARK    6  A    between atoms: C_9  and  C_10
REMARK    7  A    between atoms: C_10  and  O_11
REMARK    8  A    between atoms: O_11  and  C_12
REMARK    9  A    between atoms: C_20  and  C_21
REMARK   10  A    between atoms: C_21  and  C_22
REMARK   11  A    between atoms: C_22  and  C_23
REMARK   12  A    between atoms: C_23  and  O_25
REMARK                            x       y       z     vdW  Elec       q    Type
REMARK                         _______ _______ _______ _____ _____    ______ ____
ROOT
ATOM      1  C   UNL     1       3.550   5.386  19.600  0.00  0.00    +0.000 A 
ATOM      2  C   UNL     1       3.095   6.718  19.700  0.00  0.00    +0.000 A 
ATOM      3  C   UNL     1       1.860   7.026  20.293  0.00  0.00    +0.000 A 
ATOM      4  C   UNL     1       1.036   5.983  20.720  0.00  0.00    +0.000 A 
ATOM      5  C   UNL     1       1.481   4.666  20.653  0.00  0.00    +0.000 A 
ATOM      6  C   UNL     1       2.754   4.346  20.138  0.00  0.00    +0.000 A 
ENDROOT
BRANCH   1   8
ATOM      7  N   UNL     1       5.263   5.845  17.878  0.00  0.00    +0.000 N 
ATOM      8  C   UNL     1       4.904   5.123  19.004  0.00  0.00    +0.000 C 
ATOM      9  O   UNL     1       5.655   4.309  19.528  0.00  0.00    +0.000 OA
ATOM     10  H   UNL     1       4.588   6.425  17.401  0.00  0.00    +0.000 HD
BRANCH   7  11
ATOM     11  C   UNL     1       6.571   5.686  17.241  0.00  0.00    +0.000 C 
BRANCH  11  12
ATOM     12  C   UNL     1       6.392   5.074  15.851  0.00  0.00    +0.000 A 
ATOM     13  C   UNL     1       5.219   4.354  15.570  0.00  0.00    +0.000 A 
ATOM     14  C   UNL     1       5.017   3.757  14.321  0.00  0.00    +0.000 A 
ATOM     15  C   UNL     1       5.979   3.878  13.323  0.00  0.00    +0.000 A 
ATOM     16  C   UNL     1       7.141   4.603  13.576  0.00  0.00    +0.000 A 
ATOM     17  C   UNL     1       7.345   5.203  14.825  0.00  0.00    +0.000 A 
ENDBRANCH  11  12
BRANCH  11  19
ATOM     18  C   UNL     1       8.155   7.285  18.507  0.00  0.00    +0.000 C 
ATOM     19  C   UNL     1       7.377   7.005  17.228  0.00  0.00    +0.000 C 
ENDBRANCH  11  19
ENDBRANCH   7  11
ENDBRANCH   1   8
BRANCH   3  20
ATOM     20  C   UNL     1       1.433   8.458  20.521  0.00  0.00    +0.000 C 
BRANCH  20  21
ATOM     21  O   UNL     1       1.419   9.160  19.283  0.00  0.00    +0.000 OA
BRANCH  21  22
ATOM     22  C   UNL     1       0.319   9.954  19.079  0.00  0.00    +0.000 A 
ATOM     23  C   UNL     1      -0.413   9.670  17.924  0.00  0.00    +0.000 A 
ATOM     24  C   UNL     1      -1.551  10.414  17.606  0.00  0.00    +0.000 A 
ATOM     25  C   UNL     1      -1.975  11.437  18.452  0.00  0.00    +0.000 A 
ATOM     26  C   UNL     1      -1.264  11.709  19.618  0.00  0.00    +0.000 A 
ATOM     27  C   UNL     1      -0.121  10.969  19.934  0.00  0.00    +0.000 A 
ENDBRANCH  21  22
ENDBRANCH  20  21
ENDBRANCH   3  20
BRANCH   6  28
ATOM     28  C   UNL     1       3.178   2.893  20.262  0.00  0.00    +0.000 C 
BRANCH  28  29
ATOM     29  C   UNL     1       2.505   1.955  19.257  0.00  0.00    +0.000 C 
BRANCH  29  30
ATOM     30  C   UNL     1       2.974   2.172  17.840  0.00  0.00    +0.000 C 
ATOM     31  O   UNL     1       2.315   2.735  16.979  0.00  0.00    +0.000 OA
BRANCH  30  32
ATOM     32  O   UNL     1       4.202   1.660  17.591  0.00  0.00    +0.000 OA
ATOM     33  H   UNL     1       4.687   2.151  16.901  0.00  0.00    +0.000 HD
ENDBRANCH  30  32
ENDBRANCH  29  30
ENDBRANCH  28  29
ENDBRANCH   6  28
TORSDOF 11
ENDMDL
MODEL 5
REMARK VINA RESULT:      -7.8      2.783      8.611
REMARK  Name = 
REMARK  12 active torsions:
REMARK  status: ('A' for Active; 'I' for Inactive)
REMARK    1  A    between atoms: C_1  and  C_2
REMARK    2  A    between atoms: C_2  and  C_3
REMARK    3  A    between atoms: C_3  and  N_4
REMARK    4  A    between atoms: C_3  and  C_26
REMARK    5  A    between atoms: C_5  and  C_7
REMARK    6  A    between atoms: C_9  and  C_10
REMARK    7  A    between atoms: C_10  and  O_11
REMARK    8  A    between atoms: O_11  and  C_12
REMARK    9  A    between atoms: C_20  and  C_21
REMARK   10  A    between atoms: C_21  and  C_22
REMARK   11  A    between atoms: C_22  and  C_23
REMARK   12  A    between atoms: C_23  and  O_25
REMARK                            x       y       z     vdW  Elec       q    Type
REMARK                         _______ _______ _______ _____ _____    ______ ____
ROOT
ATOM      1  C   UNL     1       2.011   8.033  18.831  0.00  0.00    +0.000 A 
ATOM      2  C   UNL     1       2.795   7.276  17.936  0.00  0.00    +0.000 A 
ATOM      3  C   UNL     1       3.234   5.982  18.265  0.00  0.00    +0.000 A 
ATOM      4  C   UNL     1       2.951   5.474  19.533  0.00  0.00    +0.000 A 
ATOM      5  C   UNL     1       2.156   6.197  20.417  0.00  0.00    +0.000 A 
ATOM      6  C   UNL     1       1.637   7.461  20.071  0.00  0.00    +0.000 A 
ENDROOT
BRANCH   1   8
ATOM      7  N   UNL     1       0.351   9.860  18.967  0.00  0.00    +0.000 N 
ATOM      8  C   UNL     1       1.525   9.389  18.403  0.00  0.00    +0.000 C 
ATOM      9  O   UNL     1       2.174  10.045  17.597  0.00  0.00    +0.000 OA
ATOM     10  H   UNL     1      -0.223   9.258  19.539  0.00  0.00    +0.000 HD
BRANCH   7  11
ATOM     11  C   UNL     1      -0.189  11.180  18.640  0.00  0.00    +0.000 C 
BRANCH  11  12
ATOM     12  C   UNL     1      -1.619  11.033  18.118  0.00  0.00    +0.000 A 
ATOM     13  C   UNL     1      -1.869  10.146  17.057  0.00  0.00    +0.000 A 
ATOM     14  C   UNL     1      -3.155   9.992  16.530  0.00  0.00    +0.000 A 
ATOM     15  C   UNL     1      -4.221  10.713  17.059  0.00  0.00    +0.000 A 
ATOM     16  C   UNL     1      -3.998  11.584  18.123  0.00  0.00    +0.000 A 
ATOM     17  C   UNL     1      -2.711  11.739  18.654  0.00  0.00    +0.000 A 
ENDBRANCH  11  12
BRANCH  11  19
ATOM     18  C   UNL     1       1.297  12.195  20.492  0.00  0.00    +0.000 C 
ATOM     19  C   UNL     1      -0.071  12.168  19.825  0.00  0.00    +0.000 C 
ENDBRANCH  11  19
ENDBRANCH   7  11
ENDBRANCH   1   8
BRANCH   3  20
ATOM     20  C   UNL     1       3.959   5.120  17.257  0.00  0.00    +0.000 C 
BRANCH  20  21
ATOM     21  O   UNL     1       5.170   4.630  17.822  0.00  0.00    +0.000 OA
BRANCH  21  22
ATOM     22  C   UNL     1       6.161   5.566  17.969  0.00  0.00    +0.000 A 
ATOM     23  C   UNL     1       7.006   5.371  19.064  0.00  0.00    +0.000 A 
ATOM     24  C   UNL     1       8.050   6.262  19.321  0.00  0.00    +0.000 A 
ATOM     25  C   UNL     1       8.267   7.346  18.473  0.00  0.00    +0.000 A 
ATOM     26  C   UNL     1       7.444   7.533  17.365  0.00  0.00    +0.000 A 
ATOM     27  C   UNL     1       6.394   6.645  17.111  0.00  0.00    +0.000 A 
ENDBRANCH  21  22
ENDBRANCH  20  21
ENDBRANCH   3  20
BRANCH   6  28
ATOM     28  C   UNL     1       0.662   8.076  21.061  0.00  0.00    +0.000 C 
BRANCH  28  29
ATOM     29  C   UNL     1       1.323   8.940  22.138  0.00  0.00    +0.000 C 
BRANCH  29  30
ATOM     30  C   UNL     1       0.336   9.513  23.124  0.00  0.00    +0.000 C 
ATOM     31  O   UNL     1       0.499   9.512  24.335  0.00  0.00    +0.000 OA
BRANCH  30  32
ATOM     32  O   UNL     1      -0.778  10.018  22.545  0.00  0.00    +0.000 OA
ATOM     33  H   UNL     1      -0.581  10.613  21.796  0.00  0.00    +0.000 HD
ENDBRANCH  30  32
ENDBRANCH  29  30
ENDBRANCH  28  29
ENDBRANCH   6  28
TORSDOF 11
ENDMDL
MODEL 6
REMARK VINA RESULT:      -7.8      2.361      8.518
REMARK  Name = 
REMARK  12 active torsions:
REMARK  status: ('A' for Active; 'I' for Inactive)
REMARK    1  A    between atoms: C_1  and  C_2
REMARK    2  A    between atoms: C_2  and  C_3
REMARK    3  A    between atoms: C_3  and  N_4
REMARK    4  A    between atoms: C_3  and  C_26
REMARK    5  A    between atoms: C_5  and  C_7
REMARK    6  A    between atoms: C_9  and  C_10
REMARK    7  A    between atoms: C_10  and  O_11
REMARK    8  A    between atoms: O_11  and  C_12
REMARK    9  A    between atoms: C_20  and  C_21
REMARK   10  A    between atoms: C_21  and  C_22
REMARK   11  A    between atoms: C_22  and  C_23
REMARK   12  A    between atoms: C_23  and  O_25
REMARK                            x       y       z     vdW  Elec       q    Type
REMARK                         _______ _______ _______ _____ _____    ______ ____
ROOT
ATOM      1  C   UNL     1       2.926   6.879  18.871  0.00  0.00    +0.000 A 
ATOM      2  C   UNL     1       3.672   7.184  17.714  0.00  0.00    +0.000 A 
ATOM      3  C   UNL     1       4.549   6.248  17.141  0.00  0.00    +0.000 A 
ATOM      4  C   UNL     1       4.739   5.022  17.778  0.00  0.00    +0.000 A 
ATOM      5  C   UNL     1       3.991   4.694  18.906  0.00  0.00    +0.000 A 
ATOM      6  C   UNL     1       3.045   5.589  19.445  0.00  0.00    +0.000 A 
ENDROOT
BRANCH   1   8
ATOM      7  N   UNL     1       1.497   8.866  18.530  0.00  0.00    +0.000 N 
ATOM      8  C   UNL     1       1.964   7.901  19.407  0.00  0.00    +0.000 C 
ATOM      9  O   UNL     1       1.604   7.848  20.577  0.00  0.00    +0.000 OA
ATOM     10  H   UNL     1       1.892   8.957  17.606  0.00  0.00    +0.000 HD
BRANCH   7  11
ATOM     11  C   UNL     1       0.533   9.886  18.946  0.00  0.00    +0.000 C 
BRANCH  11  12
ATOM     12  C   UNL     1       1.259  11.213  19.172  0.00  0.00    +0.000 A 
ATOM     13  C   UNL     1       2.034  11.751  18.130  0.00  0.00    +0.000 A 
ATOM     14  C   UNL     1       2.734  12.951  18.295  0.00  0.00    +0.000 A 
ATOM     15  C   UNL     1       2.665  13.644  19.500  0.00  0.00    +0.000 A 
ATOM     16  C   UNL     1       1.888  13.136  20.538  0.00  0.00    +0.000 A 
ATOM     17  C   UNL     1       1.185  11.936  20.376  0.00  0.00    +0.000 A 
ENDBRANCH  11  12
BRANCH  11  19
ATOM     18  C   UNL     1      -1.830  10.818  18.482  0.00  0.00    +0.000 C 
ATOM     19  C   UNL     1      -0.655  10.002  17.961  0.00  0.00    +0.000 C 
ENDBRANCH  11  19
ENDBRANCH   7  11
ENDBRANCH   1   8
BRANCH   3  20
ATOM     20  C   UNL     1       5.245   6.525  15.829  0.00  0.00    +0.000 C 
BRANCH  20  21
ATOM     21  O   UNL     1       6.393   5.692  15.705  0.00  0.00    +0.000 OA
BRANCH  21  22
ATOM     22  C   UNL     1       6.525   5.063  14.494  0.00  0.00    +0.000 A 
ATOM     23  C   UNL     1       5.521   4.141  14.191  0.00  0.00    +0.000 A 
ATOM     24  C   UNL     1       5.550   3.432  12.988  0.00  0.00    +0.000 A 
ATOM     25  C   UNL     1       6.574   3.655  12.071  0.00  0.00    +0.000 A 
ATOM     26  C   UNL     1       7.565   4.592  12.355  0.00  0.00    +0.000 A 
ATOM     27  C   UNL     1       7.541   5.297  13.562  0.00  0.00    +0.000 A 
ENDBRANCH  21  22
ENDBRANCH  20  21
ENDBRANCH   3  20
BRANCH   6  28
ATOM     28  C   UNL     1       2.190   5.053  20.579  0.00  0.00    +0.000 C 
BRANCH  28  29
ATOM     29  C   UNL     1       0.908   4.352  20.121  0.00  0.00    +0.000 C 
BRANCH  29  30
ATOM     30  C   UNL     1       1.086   2.869  19.913  0.00  0.00    +0.000 C 
ATOM     31  O   UNL     1       1.919   2.191  20.495  0.00  0.00    +0.000 OA
BRANCH  30  32
ATOM     32  O   UNL     1       0.244   2.345  18.993  0.00  0.00    +0.000 OA
ATOM     33  H   UNL     1       0.363   2.732  18.104  0.00  0.00    +0.000 HD
ENDBRANCH  30  32
ENDBRANCH  29  30
ENDBRANCH  28  29
ENDBRANCH   6  28
TORSDOF 11
ENDMDL
MODEL 7
REMARK VINA RESULT:      -7.8      1.650      2.072
REMARK  Name = 
REMARK  12 active torsions:
REMARK  status: ('A' for Active; 'I' for Inactive)
REMARK    1  A    between atoms: C_1  and  C_2
REMARK    2  A    between atoms: C_2  and  C_3
REMARK    3  A    between atoms: C_3  and  N_4
REMARK    4  A    between atoms: C_3  and  C_26
REMARK    5  A    between atoms: C_5  and  C_7
REMARK    6  A    between atoms: C_9  and  C_10
REMARK    7  A    between atoms: C_10  and  O_11
REMARK    8  A    between atoms: O_11  and  C_12
REMARK    9  A    between atoms: C_20  and  C_21
REMARK   10  A    between atoms: C_21  and  C_22
REMARK   11  A    between atoms: C_22  and  C_23
REMARK   12  A    between atoms: C_23  and  O_25
REMARK                            x       y       z     vdW  Elec       q    Type
REMARK                         _______ _______ _______ _____ _____    ______ ____
ROOT
ATOM      1  C   UNL     1       3.571   5.422  19.469  0.00  0.00    +0.000 A 
ATOM      2  C   UNL     1       3.119   6.757  19.432  0.00  0.00    +0.000 A 
ATOM      3  C   UNL     1       1.897   7.132  20.016  0.00  0.00    +0.000 A 
ATOM      4  C   UNL     1       1.083   6.145  20.572  0.00  0.00    +0.000 A 
ATOM      5  C   UNL     1       1.526   4.827  20.641  0.00  0.00    +0.000 A 
ATOM      6  C   UNL     1       2.786   4.449  20.136  0.00  0.00    +0.000 A 
ENDROOT
BRANCH   1   8
ATOM      7  N   UNL     1       5.330   5.829  17.781  0.00  0.00    +0.000 N 
ATOM      8  C   UNL     1       4.911   5.091  18.876  0.00  0.00    +0.000 C 
ATOM      9  O   UNL     1       5.601   4.210  19.376  0.00  0.00    +0.000 OA
ATOM     10  H   UNL     1       4.700   6.469  17.320  0.00  0.00    +0.000 HD
BRANCH   7  11
ATOM     11  C   UNL     1       6.631   5.606  17.150  0.00  0.00    +0.000 C 
BRANCH  11  12
ATOM     12  C   UNL     1       6.430   5.002  15.760  0.00  0.00    +0.000 A 
ATOM     13  C   UNL     1       7.409   5.218  14.776  0.00  0.00    +0.000 A 
ATOM     14  C   UNL     1       7.262   4.705  13.483  0.00  0.00    +0.000 A 
ATOM     15  C   UNL     1       6.137   3.955  13.151  0.00  0.00    +0.000 A 
ATOM     16  C   UNL     1       5.164   3.714  14.117  0.00  0.00    +0.000 A 
ATOM     17  C   UNL     1       5.310   4.226  15.413  0.00  0.00    +0.000 A 
ENDBRANCH  11  12
BRANCH  11  19
ATOM     18  C   UNL     1       8.092   7.262  18.490  0.00  0.00    +0.000 C 
ATOM     19  C   UNL     1       7.500   6.886  17.138  0.00  0.00    +0.000 C 
ENDBRANCH  11  19
ENDBRANCH   7  11
ENDBRANCH   1   8
BRANCH   3  20
ATOM     20  C   UNL     1       1.476   8.581  20.094  0.00  0.00    +0.000 C 
BRANCH  20  21
ATOM     21  O   UNL     1       1.437   9.145  18.788  0.00  0.00    +0.000 OA
BRANCH  21  22
ATOM     22  C   UNL     1       0.783  10.346  18.694  0.00  0.00    +0.000 A 
ATOM     23  C   UNL     1      -0.566  10.262  18.343  0.00  0.00    +0.000 A 
ATOM     24  C   UNL     1      -1.338  11.418  18.211  0.00  0.00    +0.000 A 
ATOM     25  C   UNL     1      -0.769  12.667  18.446  0.00  0.00    +0.000 A 
ATOM     26  C   UNL     1       0.570  12.758  18.821  0.00  0.00    +0.000 A 
ATOM     27  C   UNL     1       1.345  11.601  18.947  0.00  0.00    +0.000 A 
ENDBRANCH  21  22
ENDBRANCH  20  21
ENDBRANCH   3  20
BRANCH   6  28
ATOM     28  C   UNL     1       3.213   3.018  20.409  0.00  0.00    +0.000 C 
BRANCH  28  29
ATOM     29  C   UNL     1       2.546   1.980  19.502  0.00  0.00    +0.000 C 
BRANCH  29  30
ATOM     30  C   UNL     1       2.957   2.108  18.056  0.00  0.00    +0.000 C 
ATOM     31  O   UNL     1       2.202   2.439  17.155  0.00  0.00    +0.000 OA
BRANCH  30  32
ATOM     32  O   UNL     1       4.255   1.795  17.832  0.00  0.00    +0.000 OA
ATOM     33  H   UNL     1       4.481   1.760  16.883  0.00  0.00    +0.000 HD
ENDBRANCH  30  32
ENDBRANCH  29  30
ENDBRANCH  28  29
ENDBRANCH   6  28
TORSDOF 11
ENDMDL
MODEL 8
REMARK VINA RESULT:      -7.8      2.740      7.784
REMARK  Name = 
REMARK  12 active torsions:
REMARK  status: ('A' for Active; 'I' for Inactive)
REMARK    1  A    between atoms: C_1  and  C_2
REMARK    2  A    between atoms: C_2  and  C_3
REMARK    3  A    between atoms: C_3  and  N_4
REMARK    4  A    between atoms: C_3  and  C_26
REMARK    5  A    between atoms: C_5  and  C_7
REMARK    6  A    between atoms: C_9  and  C_10
REMARK    7  A    between atoms: C_10  and  O_11
REMARK    8  A    between atoms: O_11  and  C_12
REMARK    9  A    between atoms: C_20  and  C_21
REMARK   10  A    between atoms: C_21  and  C_22
REMARK   11  A    between atoms: C_22  and  C_23
REMARK   12  A    between atoms: C_23  and  O_25
REMARK                            x       y       z     vdW  Elec       q    Type
REMARK                         _______ _______ _______ _____ _____    ______ ____
ROOT
ATOM      1  C   UNL     1       2.595   6.929  18.957  0.00  0.00    +0.000 A 
ATOM      2  C   UNL     1       3.419   7.222  17.851  0.00  0.00    +0.000 A 
ATOM      3  C   UNL     1       4.119   6.210  17.173  0.00  0.00    +0.000 A 
ATOM      4  C   UNL     1       4.055   4.903  17.656  0.00  0.00    +0.000 A 
ATOM      5  C   UNL     1       3.225   4.592  18.730  0.00  0.00    +0.000 A 
ATOM      6  C   UNL     1       2.450   5.581  19.368  0.00  0.00    +0.000 A 
ENDROOT
BRANCH   1   8
ATOM      7  N   UNL     1       1.219   8.975  18.782  0.00  0.00    +0.000 N 
ATOM      8  C   UNL     1       1.828   8.045  19.608  0.00  0.00    +0.000 C 
ATOM      9  O   UNL     1       1.741   8.097  20.829  0.00  0.00    +0.000 OA
ATOM     10  H   UNL     1       1.398   8.976  17.788  0.00  0.00    +0.000 HD
BRANCH   7  11
ATOM     11  C   UNL     1       0.424  10.081  19.316  0.00  0.00    +0.000 C 
BRANCH  11  12
ATOM     12  C   UNL     1       1.269  11.355  19.338  0.00  0.00    +0.000 A 
ATOM     13  C   UNL     1       1.352  12.096  20.529  0.00  0.00    +0.000 A 
ATOM     14  C   UNL     1       2.094  13.280  20.595  0.00  0.00    +0.000 A 
ATOM     15  C   UNL     1       2.777  13.742  19.474  0.00  0.00    +0.000 A 
ATOM     16  C   UNL     1       2.722  13.013  18.289  0.00  0.00    +0.000 A 
ATOM     17  C   UNL     1       1.981  11.827  18.221  0.00  0.00    +0.000 A 
ENDBRANCH  11  12
BRANCH  11  19
ATOM     18  C   UNL     1      -1.717  11.482  18.968  0.00  0.00    +0.000 C 
ATOM     19  C   UNL     1      -0.917  10.252  18.563  0.00  0.00    +0.000 C 
ENDBRANCH  11  19
ENDBRANCH   7  11
ENDBRANCH   1   8
BRANCH   3  20
ATOM     20  C   UNL     1       4.895   6.503  15.909  0.00  0.00    +0.000 C 
BRANCH  20  21
ATOM     21  O   UNL     1       6.210   5.967  16.013  0.00  0.00    +0.000 OA
BRANCH  21  22
ATOM     22  C   UNL     1       6.970   6.490  17.027  0.00  0.00    +0.000 A 
ATOM     23  C   UNL     1       7.350   5.579  18.015  0.00  0.00    +0.000 A 
ATOM     24  C   UNL     1       8.122   5.993  19.103  0.00  0.00    +0.000 A 
ATOM     25  C   UNL     1       8.535   7.320  19.199  0.00  0.00    +0.000 A 
ATOM     26  C   UNL     1       8.182   8.229  18.205  0.00  0.00    +0.000 A 
ATOM     27  C   UNL     1       7.403   7.816  17.119  0.00  0.00    +0.000 A 
ENDBRANCH  21  22
ENDBRANCH  20  21
ENDBRANCH   3  20
BRANCH   6  28
ATOM     28  C   UNL     1       1.475   5.087  20.423  0.00  0.00    +0.000 C 
BRANCH  28  29
ATOM     29  C   UNL     1       1.227   3.577  20.390  0.00  0.00    +0.000 C 
BRANCH  29  30
ATOM     30  C   UNL     1       1.765   2.862  21.605  0.00  0.00    +0.000 C 
ATOM     31  O   UNL     1       2.952   2.666  21.814  0.00  0.00    +0.000 OA
BRANCH  30  32
ATOM     32  O   UNL     1       0.801   2.429  22.449  0.00  0.00    +0.000 OA
ATOM     33  H   UNL     1       0.790   1.457  22.549  0.00  0.00    +0.000 HD
ENDBRANCH  30  32
ENDBRANCH  29  30
ENDBRANCH  28  29
ENDBRANCH   6  28
TORSDOF 11
ENDMDL
MODEL 9
REMARK VINA RESULT:      -7.8      2.713      7.748
REMARK  Name = 
REMARK  12 active torsions:
REMARK  status: ('A' for Active; 'I' for Inactive)
REMARK    1  A    between atoms: C_1  and  C_2
REMARK    2  A    between atoms: C_2  and  C_3
REMARK    3  A    between atoms: C_3  and  N_4
REMARK    4  A    between atoms: C_3  and  C_26
REMARK    5  A    between atoms: C_5  and  C_7
REMARK    6  A    between atoms: C_9  and  C_10
REMARK    7  A    between atoms: C_10  and  O_11
REMARK    8  A    between atoms: O_11  and  C_12
REMARK    9  A    between atoms: C_20  and  C_21
REMARK   10  A    between atoms: C_21  and  C_22
REMARK   11  A    between atoms: C_22  and  C_23
REMARK   12  A    between atoms: C_23  and  O_25
REMARK                            x       y       z     vdW  Elec       q    Type
REMARK                         _______ _______ _______ _____ _____    ______ ____
ROOT
ATOM      1  C   UNL     1       2.556   6.923  18.919  0.00  0.00    +0.000 A 
ATOM      2  C   UNL     1       3.409   7.268  17.851  0.00  0.00    +0.000 A 
ATOM      3  C   UNL     1       4.057   6.284  17.085  0.00  0.00    +0.000 A 
ATOM      4  C   UNL     1       3.911   4.944  17.444  0.00  0.00    +0.000 A 
ATOM      5  C   UNL     1       3.051   4.585  18.477  0.00  0.00    +0.000 A 
ATOM      6  C   UNL     1       2.328   5.554  19.201  0.00  0.00    +0.000 A 
ENDROOT
BRANCH   1   8
ATOM      7  N   UNL     1       1.319   9.063  18.929  0.00  0.00    +0.000 N 
ATOM      8  C   UNL     1       1.848   8.017  19.667  0.00  0.00    +0.000 C 
ATOM      9  O   UNL     1       1.737   7.952  20.886  0.00  0.00    +0.000 OA
ATOM     10  H   UNL     1       1.520   9.151  17.944  0.00  0.00    +0.000 HD
BRANCH   7  11
ATOM     11  C   UNL     1       0.584  10.160  19.559  0.00  0.00    +0.000 C 
BRANCH  11  12
ATOM     12  C   UNL     1       1.197  11.496  19.137  0.00  0.00    +0.000 A 
ATOM     13  C   UNL     1       2.275  11.495  18.235  0.00  0.00    +0.000 A 
ATOM     14  C   UNL     1       2.884  12.689  17.834  0.00  0.00    +0.000 A 
ATOM     15  C   UNL     1       2.422  13.908  18.318  0.00  0.00    +0.000 A 
ATOM     16  C   UNL     1       1.343  13.932  19.198  0.00  0.00    +0.000 A 
ATOM     17  C   UNL     1       0.730  12.739  19.600  0.00  0.00    +0.000 A 
ENDBRANCH  11  12
BRANCH  11  19
ATOM     18  C   UNL     1      -1.322  10.131  17.817  0.00  0.00    +0.000 C 
ATOM     19  C   UNL     1      -0.937  10.075  19.289  0.00  0.00    +0.000 C 
ENDBRANCH  11  19
ENDBRANCH   7  11
ENDBRANCH   1   8
BRANCH   3  20
ATOM     20  C   UNL     1       4.864   6.648  15.860  0.00  0.00    +0.000 C 
BRANCH  20  21
ATOM     21  O   UNL     1       6.156   6.056  15.939  0.00  0.00    +0.000 OA
BRANCH  21  22
ATOM     22  C   UNL     1       6.925   6.480  16.992  0.00  0.00    +0.000 A 
ATOM     23  C   UNL     1       7.239   5.496  17.932  0.00  0.00    +0.000 A 
ATOM     24  C   UNL     1       8.012   5.807  19.052  0.00  0.00    +0.000 A 
ATOM     25  C   UNL     1       8.492   7.103  19.230  0.00  0.00    +0.000 A 
ATOM     26  C   UNL     1       8.205   8.083  18.284  0.00  0.00    +0.000 A 
ATOM     27  C   UNL     1       7.425   7.774  17.165  0.00  0.00    +0.000 A 
ENDBRANCH  21  22
ENDBRANCH  20  21
ENDBRANCH   3  20
BRANCH   6  28
ATOM     28  C   UNL     1       1.313   5.022  20.198  0.00  0.00    +0.000 C 
BRANCH  28  29
ATOM     29  C   UNL     1       1.153   3.500  20.179  0.00  0.00    +0.000 C 
BRANCH  29  30
ATOM     30  C   UNL     1       1.780   2.824  21.373  0.00  0.00    +0.000 C 
ATOM     31  O   UNL     1       1.182   2.562  22.405  0.00  0.00    +0.000 OA
BRANCH  30  32
ATOM     32  O   UNL     1       3.095   2.548  21.210  0.00  0.00    +0.000 OA
ATOM     33  H   UNL     1       3.671   3.316  21.389  0.00  0.00    +0.000 HD
ENDBRANCH  30  32
ENDBRANCH  29  30
ENDBRANCH  28  29
ENDBRANCH   6  28
TORSDOF 11
ENDMDL
