MODEL 1
REMARK VINA RESULT:      -7.7      0.000      0.000
REMARK  Name = 
REMARK  5 active torsions:
REMARK  status: ('A' for Active; 'I' for Inactive)
REMARK    1  A    between atoms: C_1  and  C_2
REMARK    2  A    between atoms: C_4  and  O_5
REMARK    3  A    between atoms: C_8  and  C_9
REMARK    4  A    between atoms: C_12  and  C_13
REMARK    5  A    between atoms: C_16  and  O_17
REMARK                            x       y       z     vdW  Elec       q    Type
REMARK                         _______ _______ _______ _____ _____    ______ ____
ROOT
ATOM      1  C   UNL     1       1.482   8.113  19.957  0.00  0.00    +0.000 A 
ATOM      2  C   UNL     1       2.172   8.303  18.774  0.00  0.00    +0.000 A 
ATOM      3  C   UNL     1       2.783   7.112  18.281  0.00  0.00    +0.000 A 
ATOM      4  C   UNL     1       2.502   6.005  19.054  0.00  0.00    +0.000 A 
ATOM      5  S   UNL     1       1.584   6.457  20.431  0.00  0.00    +0.000 S 
ENDROOT
BRANCH   1  12
ATOM      6  C   UNL     1      -0.186  10.393  18.788  0.00  0.00    +0.000 C 
ATOM      7  C   UNL     1      -0.027  10.150  20.265  0.00  0.00    +0.000 A 
ATOM      8  C   UNL     1      -0.684  11.045  21.137  0.00  0.00    +0.000 A 
ATOM      9  C   UNL     1      -0.584  10.900  22.514  0.00  0.00    +0.000 A 
ATOM     10  C   UNL     1       0.147   9.858  23.057  0.00  0.00    +0.000 A 
ATOM     11  C   UNL     1       0.794   8.958  22.207  0.00  0.00    +0.000 A 
ATOM     12  C   UNL     1       0.737   9.085  20.801  0.00  0.00    +0.000 A 
BRANCH   9  13
ATOM     13  O   UNL     1      -1.190  11.768  23.371  0.00  0.00    +0.000 OA
ATOM     14  H   UNL     1      -0.596  11.924  24.124  0.00  0.00    +0.000 HD
ENDBRANCH   9  13
ENDBRANCH   1  12
BRANCH   4  15
ATOM     15  C   UNL     1       2.911   4.604  18.847  0.00  0.00    +0.000 A 
ATOM     16  C   UNL     1       4.023   4.057  19.511  0.00  0.00    +0.000 A 
ATOM     17  C   UNL     1       4.401   2.723  19.309  0.00  0.00    +0.000 A 
ATOM     18  C   UNL     1       3.661   1.925  18.445  0.00  0.00    +0.000 A 
ATOM     19  C   UNL     1       2.548   2.432  17.791  0.00  0.00    +0.000 A 
ATOM     20  C   UNL     1       2.180   3.760  17.996  0.00  0.00    +0.000 A 
ATOM     21  F   UNL     1       1.102   4.218  17.341  0.00  0.00    +0.000 F 
BRANCH  18  22
ATOM     22  O   UNL     1       4.000   0.626  18.212  0.00  0.00    +0.000 OA
ATOM     23  H   UNL     1       4.463   0.568  17.359  0.00  0.00    +0.000 HD
ENDBRANCH  18  22
ENDBRANCH   4  15
TORSDOF 4
ENDMDL
MODEL 2
REMARK VINA RESULT:      -7.6      2.610      8.209
REMARK  Name = 
REMARK  5 active torsions:
REMARK  status: ('A' for Active; 'I' for Inactive)
REMARK    1  A    between atoms: C_1  and  C_2
REMARK    2  A    between atoms: C_4  and  O_5
REMARK    3  A    between atoms: C_8  and  C_9
REMARK    4  A    between atoms: C_12  and  C_13
REMARK    5  A    between atoms: C_16  and  O_17
REMARK                            x       y       z     vdW  Elec       q    Type
REMARK                         _______ _______ _______ _____ _____    ______ ____
ROOT
ATOM      1  C   UNL     1       2.624   7.069  18.721  0.00  0.00    +0.000 A 
ATOM      2  C   UNL     1       2.154   7.054  20.022  0.00  0.00    +0.000 A 
ATOM      3  C   UNL     1       1.440   8.236  20.376  0.00  0.00    +0.000 A 
ATOM      4  C   UNL     1       1.312   9.121  19.325  0.00  0.00    +0.000 A 
ATOM      5  S   UNL     1       2.158   8.541  17.951  0.00  0.00    +0.000 S 
ENDROOT
BRANCH   1  12
ATOM      6  C   UNL     1       1.575   4.274  18.062  0.00  0.00    +0.000 C 
ATOM      7  C   UNL     1       2.948   4.761  17.680  0.00  0.00    +0.000 A 
ATOM      8  C   UNL     1       3.781   3.853  16.990  0.00  0.00    +0.000 A 
ATOM      9  C   UNL     1       5.065   4.214  16.608  0.00  0.00    +0.000 A 
ATOM     10  C   UNL     1       5.544   5.484  16.878  0.00  0.00    +0.000 A 
ATOM     11  C   UNL     1       4.727   6.397  17.549  0.00  0.00    +0.000 A 
ATOM     12  C   UNL     1       3.424   6.060  17.977  0.00  0.00    +0.000 A 
BRANCH   9  13
ATOM     13  O   UNL     1       5.892   3.345  15.965  0.00  0.00    +0.000 OA
ATOM     14  H   UNL     1       5.858   3.532  15.012  0.00  0.00    +0.000 HD
ENDBRANCH   9  13
ENDBRANCH   1  12
BRANCH   4  15
ATOM     15  C   UNL     1       0.611  10.418  19.289  0.00  0.00    +0.000 A 
ATOM     16  C   UNL     1       1.022  11.499  20.090  0.00  0.00    +0.000 A 
ATOM     17  C   UNL     1       0.351  12.727  20.044  0.00  0.00    +0.000 A 
ATOM     18  C   UNL     1      -0.733  12.885  19.189  0.00  0.00    +0.000 A 
ATOM     19  C   UNL     1      -1.149  11.842  18.374  0.00  0.00    +0.000 A 
ATOM     20  C   UNL     1      -0.477  10.623  18.427  0.00  0.00    +0.000 A 
ATOM     21  F   UNL     1      -0.912   9.635  17.629  0.00  0.00    +0.000 F 
BRANCH  18  22
ATOM     22  O   UNL     1      -1.420  14.059  19.121  0.00  0.00    +0.000 OA
ATOM     23  H   UNL     1      -2.344  13.900  19.379  0.00  0.00    +0.000 HD
ENDBRANCH  18  22
ENDBRANCH   4  15
TORSDOF 4
ENDMDL
MODEL 3
REMARK VINA RESULT:      -7.5      2.825      8.334
REMARK  Name = 
REMARK  5 active torsions:
REMARK  status: ('A' for Active; 'I' for Inactive)
REMARK    1  A    between atoms: C_1  and  C_2
REMARK    2  A    between atoms: C_4  and  O_5
REMARK    3  A    between atoms: C_8  and  C_9
REMARK    4  A    between atoms: C_12  and  C_13
REMARK    5  A    between atoms: C_16  and  O_17
REMARK                            x       y       z     vdW  Elec       q    Type
REMARK                         _______ _______ _______ _____ _____    ______ ____
ROOT
ATOM      1  C   UNL     1       2.657   7.087  18.680  0.00  0.00    +0.000 A 
ATOM      2  C   UNL     1       2.229   7.101  19.994  0.00  0.00    +0.000 A 
ATOM      3  C   UNL     1       1.502   8.279  20.339  0.00  0.00    +0.000 A 
ATOM      4  C   UNL     1       1.322   9.130  19.268  0.00  0.00    +0.000 A 
ATOM      5  S   UNL     1       2.137   8.527  17.884  0.00  0.00    +0.000 S 
ENDROOT
BRANCH   1  12
ATOM      6  C   UNL     1       1.606   4.287  18.047  0.00  0.00    +0.000 C 
ATOM      7  C   UNL     1       2.976   4.772  17.654  0.00  0.00    +0.000 A 
ATOM      8  C   UNL     1       3.806   3.859  16.967  0.00  0.00    +0.000 A 
ATOM      9  C   UNL     1       5.088   4.219  16.574  0.00  0.00    +0.000 A 
ATOM     10  C   UNL     1       5.568   5.491  16.832  0.00  0.00    +0.000 A 
ATOM     11  C   UNL     1       4.754   6.408  17.501  0.00  0.00    +0.000 A 
ATOM     12  C   UNL     1       3.454   6.074  17.939  0.00  0.00    +0.000 A 
BRANCH   9  13
ATOM     13  O   UNL     1       5.912   3.345  15.933  0.00  0.00    +0.000 OA
ATOM     14  H   UNL     1       5.589   3.224  15.025  0.00  0.00    +0.000 HD
ENDBRANCH   9  13
ENDBRANCH   1  12
BRANCH   4  15
ATOM     15  C   UNL     1       0.594  10.411  19.218  0.00  0.00    +0.000 A 
ATOM     16  C   UNL     1      -0.754  10.506  19.609  0.00  0.00    +0.000 A 
ATOM     17  C   UNL     1      -1.435  11.729  19.561  0.00  0.00    +0.000 A 
ATOM     18  C   UNL     1      -0.767  12.869  19.129  0.00  0.00    +0.000 A 
ATOM     19  C   UNL     1       0.568  12.809  18.755  0.00  0.00    +0.000 A 
ATOM     20  C   UNL     1       1.237  11.588  18.804  0.00  0.00    +0.000 A 
ATOM     21  F   UNL     1       2.526  11.566  18.429  0.00  0.00    +0.000 F 
BRANCH  18  22
ATOM     22  O   UNL     1      -1.394  14.076  19.057  0.00  0.00    +0.000 OA
ATOM     23  H   UNL     1      -0.908  14.648  18.438  0.00  0.00    +0.000 HD
ENDBRANCH  18  22
ENDBRANCH   4  15
TORSDOF 4
ENDMDL
MODEL 4
REMARK VINA RESULT:      -7.5      2.454      3.140
REMARK  Name = 
REMARK  5 active torsions:
REMARK  status: ('A' for Active; 'I' for Inactive)
REMARK    1  A    between atoms: C_1  and  C_2
REMARK    2  A    between atoms: C_4  and  O_5
REMARK    3  A    between atoms: C_8  and  C_9
REMARK    4  A    between atoms: C_12  and  C_13
REMARK    5  A    between atoms: C_16  and  O_17
REMARK                            x       y       z     vdW  Elec       q    Type
REMARK                         _______ _______ _______ _____ _____    ______ ____
ROOT
ATOM      1  C   UNL     1       1.276   9.597  19.139  0.00  0.00    +0.000 A 
ATOM      2  C   UNL     1       1.286   8.730  20.216  0.00  0.00    +0.000 A 
ATOM      3  C   UNL     1       1.948   7.497  19.942  0.00  0.00    +0.000 A 
ATOM      4  C   UNL     1       2.498   7.453  18.677  0.00  0.00    +0.000 A 
ATOM      5  S   UNL     1       2.105   8.877  17.807  0.00  0.00    +0.000 S 
ENDROOT
BRANCH   1  12
ATOM      6  C   UNL     1      -1.538  10.068  18.043  0.00  0.00    +0.000 C 
ATOM      7  C   UNL     1      -0.619  11.176  18.483  0.00  0.00    +0.000 A 
ATOM      8  C   UNL     1      -1.103  12.497  18.360  0.00  0.00    +0.000 A 
ATOM      9  C   UNL     1      -0.319  13.580  18.733  0.00  0.00    +0.000 A 
ATOM     10  C   UNL     1       0.948  13.380  19.253  0.00  0.00    +0.000 A 
ATOM     11  C   UNL     1       1.436  12.079  19.391  0.00  0.00    +0.000 A 
ATOM     12  C   UNL     1       0.679  10.952  19.001  0.00  0.00    +0.000 A 
BRANCH   9  13
ATOM     13  O   UNL     1      -0.758  14.861  18.599  0.00  0.00    +0.000 OA
ATOM     14  H   UNL     1      -0.723  15.104  17.658  0.00  0.00    +0.000 HD
ENDBRANCH   9  13
ENDBRANCH   1  12
BRANCH   4  15
ATOM     15  C   UNL     1       3.287   6.378  18.050  0.00  0.00    +0.000 A 
ATOM     16  C   UNL     1       4.583   6.609  17.556  0.00  0.00    +0.000 A 
ATOM     17  C   UNL     1       5.326   5.580  16.964  0.00  0.00    +0.000 A 
ATOM     18  C   UNL     1       4.777   4.306  16.871  0.00  0.00    +0.000 A 
ATOM     19  C   UNL     1       3.509   4.043  17.367  0.00  0.00    +0.000 A 
ATOM     20  C   UNL     1       2.776   5.074  17.952  0.00  0.00    +0.000 A 
ATOM     21  F   UNL     1       1.550   4.785  18.415  0.00  0.00    +0.000 F 
BRANCH  18  22
ATOM     22  O   UNL     1       5.460   3.278  16.295  0.00  0.00    +0.000 OA
ATOM     23  H   UNL     1       6.025   3.632  15.586  0.00  0.00    +0.000 HD
ENDBRANCH  18  22
ENDBRANCH   4  15
TORSDOF 4
ENDMDL
MODEL 5
REMARK VINA RESULT:      -7.3      1.636      1.854
REMARK  Name = 
REMARK  5 active torsions:
REMARK  status: ('A' for Active; 'I' for Inactive)
REMARK    1  A    between atoms: C_1  and  C_2
REMARK    2  A    between atoms: C_4  and  O_5
REMARK    3  A    between atoms: C_8  and  C_9
REMARK    4  A    between atoms: C_12  and  C_13
REMARK    5  A    between atoms: C_16  and  O_17
REMARK                            x       y       z     vdW  Elec       q    Type
REMARK                         _______ _______ _______ _____ _____    ______ ____
ROOT
ATOM      1  C   UNL     1       1.266   9.162  19.190  0.00  0.00    +0.000 A 
ATOM      2  C   UNL     1       1.858   9.056  17.945  0.00  0.00    +0.000 A 
ATOM      3  C   UNL     1       2.659   7.884  17.799  0.00  0.00    +0.000 A 
ATOM      4  C   UNL     1       2.623   7.068  18.911  0.00  0.00    +0.000 A 
ATOM      5  S   UNL     1       1.696   7.798  20.156  0.00  0.00    +0.000 S 
ENDROOT
BRANCH   1  12
ATOM      6  C   UNL     1      -1.314  10.077  17.828  0.00  0.00    +0.000 C 
ATOM      7  C   UNL     1      -0.800  10.660  19.118  0.00  0.00    +0.000 A 
ATOM      8  C   UNL     1      -1.563  11.693  19.703  0.00  0.00    +0.000 A 
ATOM      9  C   UNL     1      -1.159  12.294  20.887  0.00  0.00    +0.000 A 
ATOM     10  C   UNL     1      -0.006  11.873  21.527  0.00  0.00    +0.000 A 
ATOM     11  C   UNL     1       0.753  10.844  20.966  0.00  0.00    +0.000 A 
ATOM     12  C   UNL     1       0.389  10.224  19.750  0.00  0.00    +0.000 A 
BRANCH   9  13
ATOM     13  O   UNL     1      -1.868  13.309  21.453  0.00  0.00    +0.000 OA
ATOM     14  H   UNL     1      -1.284  13.795  22.059  0.00  0.00    +0.000 HD
ENDBRANCH   9  13
ENDBRANCH   1  12
BRANCH   4  15
ATOM     15  C   UNL     1       3.278   5.765  19.121  0.00  0.00    +0.000 A 
ATOM     16  C   UNL     1       4.662   5.598  18.933  0.00  0.00    +0.000 A 
ATOM     17  C   UNL     1       5.274   4.356  19.140  0.00  0.00    +0.000 A 
ATOM     18  C   UNL     1       4.506   3.272  19.546  0.00  0.00    +0.000 A 
ATOM     19  C   UNL     1       3.142   3.411  19.758  0.00  0.00    +0.000 A 
ATOM     20  C   UNL     1       2.540   4.650  19.548  0.00  0.00    +0.000 A 
ATOM     21  F   UNL     1       1.217   4.746  19.757  0.00  0.00    +0.000 F 
BRANCH  18  22
ATOM     22  O   UNL     1       5.059   2.043  19.748  0.00  0.00    +0.000 OA
ATOM     23  H   UNL     1       5.229   1.628  18.886  0.00  0.00    +0.000 HD
ENDBRANCH  18  22
ENDBRANCH   4  15
TORSDOF 4
ENDMDL
MODEL 6
REMARK VINA RESULT:      -7.3      1.232      1.613
REMARK  Name = 
REMARK  5 active torsions:
REMARK  status: ('A' for Active; 'I' for Inactive)
REMARK    1  A    between atoms: C_1  and  C_2
REMARK    2  A    between atoms: C_4  and  O_5
REMARK    3  A    between atoms: C_8  and  C_9
REMARK    4  A    between atoms: C_12  and  C_13
REMARK    5  A    between atoms: C_16  and  O_17
REMARK                            x       y       z     vdW  Elec       q    Type
REMARK                         _______ _______ _______ _____ _____    ______ ____
ROOT
ATOM      1  C   UNL     1       1.424   8.553  19.819  0.00  0.00    +0.000 A 
ATOM      2  C   UNL     1       1.979   8.719  18.563  0.00  0.00    +0.000 A 
ATOM      3  C   UNL     1       2.578   7.531  18.049  0.00  0.00    +0.000 A 
ATOM      4  C   UNL     1       2.422   6.446  18.887  0.00  0.00    +0.000 A 
ATOM      5  S   UNL     1       1.638   6.921  20.337  0.00  0.00    +0.000 S 
ENDROOT
BRANCH   1  12
ATOM      6  C   UNL     1       1.135  11.513  19.112  0.00  0.00    +0.000 C 
ATOM      7  C   UNL     1       0.611  10.905  20.386  0.00  0.00    +0.000 A 
ATOM      8  C   UNL     1      -0.035  11.774  21.293  0.00  0.00    +0.000 A 
ATOM      9  C   UNL     1      -0.541  11.300  22.495  0.00  0.00    +0.000 A 
ATOM     10  C   UNL     1      -0.439   9.958  22.817  0.00  0.00    +0.000 A 
ATOM     11  C   UNL     1       0.187   9.085  21.925  0.00  0.00    +0.000 A 
ATOM     12  C   UNL     1       0.737   9.531  20.702  0.00  0.00    +0.000 A 
BRANCH   9  13
ATOM     13  O   UNL     1      -1.144  12.127  23.393  0.00  0.00    +0.000 OA
ATOM     14  H   UNL     1      -2.066  11.842  23.505  0.00  0.00    +0.000 HD
ENDBRANCH   9  13
ENDBRANCH   1  12
BRANCH   4  15
ATOM     15  C   UNL     1       2.859   5.053  18.687  0.00  0.00    +0.000 A 
ATOM     16  C   UNL     1       2.056   4.121  18.005  0.00  0.00    +0.000 A 
ATOM     17  C   UNL     1       2.483   2.800  17.817  0.00  0.00    +0.000 A 
ATOM     18  C   UNL     1       3.723   2.405  18.304  0.00  0.00    +0.000 A 
ATOM     19  C   UNL     1       4.545   3.308  18.963  0.00  0.00    +0.000 A 
ATOM     20  C   UNL     1       4.112   4.619  19.147  0.00  0.00    +0.000 A 
ATOM     21  F   UNL     1       4.931   5.463  19.795  0.00  0.00    +0.000 F 
BRANCH  18  22
ATOM     22  O   UNL     1       4.173   1.129  18.152  0.00  0.00    +0.000 OA
ATOM     23  H   UNL     1       5.139   1.118  18.269  0.00  0.00    +0.000 HD
ENDBRANCH  18  22
ENDBRANCH   4  15
TORSDOF 4
ENDMDL
MODEL 7
REMARK VINA RESULT:      -7.3      2.653      3.377
REMARK  Name = 
REMARK  5 active torsions:
REMARK  status: ('A' for Active; 'I' for Inactive)
REMARK    1  A    between atoms: C_1  and  C_2
REMARK    2  A    between atoms: C_4  and  O_5
REMARK    3  A    between atoms: C_8  and  C_9
REMARK    4  A    between atoms: C_12  and  C_13
REMARK    5  A    between atoms: C_16  and  O_17
REMARK                            x       y       z     vdW  Elec       q    Type
REMARK                         _______ _______ _______ _____ _____    ______ ____
ROOT
ATOM      1  C   UNL     1       1.279   9.538  19.146  0.00  0.00    +0.000 A 
ATOM      2  C   UNL     1       1.314   8.718  20.259  0.00  0.00    +0.000 A 
ATOM      3  C   UNL     1       1.937   7.459  20.012  0.00  0.00    +0.000 A 
ATOM      4  C   UNL     1       2.433   7.348  18.730  0.00  0.00    +0.000 A 
ATOM      5  S   UNL     1       2.035   8.743  17.814  0.00  0.00    +0.000 S 
ENDROOT
BRANCH   1  12
ATOM      6  C   UNL     1      -1.573  10.027  18.159  0.00  0.00    +0.000 C 
ATOM      7  C   UNL     1      -0.610  11.131  18.504  0.00  0.00    +0.000 A 
ATOM      8  C   UNL     1      -1.070  12.456  18.343  0.00  0.00    +0.000 A 
ATOM      9  C   UNL     1      -0.246  13.536  18.630  0.00  0.00    +0.000 A 
ATOM     10  C   UNL     1       1.039  13.330  19.101  0.00  0.00    +0.000 A 
ATOM     11  C   UNL     1       1.504  12.024  19.276  0.00  0.00    +0.000 A 
ATOM     12  C   UNL     1       0.705  10.899  18.973  0.00  0.00    +0.000 A 
BRANCH   9  13
ATOM     13  O   UNL     1      -0.663  14.820  18.457  0.00  0.00    +0.000 OA
ATOM     14  H   UNL     1      -1.626  14.819  18.328  0.00  0.00    +0.000 HD
ENDBRANCH   9  13
ENDBRANCH   1  12
BRANCH   4  15
ATOM     15  C   UNL     1       3.172   6.229  18.118  0.00  0.00    +0.000 A 
ATOM     16  C   UNL     1       2.618   4.939  18.035  0.00  0.00    +0.000 A 
ATOM     17  C   UNL     1       3.327   3.884  17.449  0.00  0.00    +0.000 A 
ATOM     18  C   UNL     1       4.597   4.115  16.933  0.00  0.00    +0.000 A 
ATOM     19  C   UNL     1       5.162   5.381  16.984  0.00  0.00    +0.000 A 
ATOM     20  C   UNL     1       4.450   6.425  17.570  0.00  0.00    +0.000 A 
ATOM     21  F   UNL     1       5.030   7.635  17.607  0.00  0.00    +0.000 F 
BRANCH  18  22
ATOM     22  O   UNL     1       5.326   3.116  16.364  0.00  0.00    +0.000 OA
ATOM     23  H   UNL     1       5.806   3.472  15.596  0.00  0.00    +0.000 HD
ENDBRANCH  18  22
ENDBRANCH   4  15
TORSDOF 4
ENDMDL
MODEL 8
REMARK VINA RESULT:      -7.3      1.964      2.251
REMARK  Name = 
REMARK  5 active torsions:
REMARK  status: ('A' for Active; 'I' for Inactive)
REMARK    1  A    between atoms: C_1  and  C_2
REMARK    2  A    between atoms: C_4  and  O_5
REMARK    3  A    between atoms: C_8  and  C_9
REMARK    4  A    between atoms: C_12  and  C_13
REMARK    5  A    between atoms: C_16  and  O_17
REMARK                            x       y       z     vdW  Elec       q    Type
REMARK                         _______ _______ _______ _____ _____    ______ ____
ROOT
ATOM      1  C   UNL     1       1.292   9.225  19.134  0.00  0.00    +0.000 A 
ATOM      2  C   UNL     1       1.918   9.095  17.908  0.00  0.00    +0.000 A 
ATOM      3  C   UNL     1       2.698   7.906  17.796  0.00  0.00    +0.000 A 
ATOM      4  C   UNL     1       2.612   7.101  18.914  0.00  0.00    +0.000 A 
ATOM      5  S   UNL     1       1.664   7.861  20.124  0.00  0.00    +0.000 S 
ENDROOT
BRANCH   1  12
ATOM      6  C   UNL     1      -1.322  10.057  17.784  0.00  0.00    +0.000 C 
ATOM      7  C   UNL     1      -0.783  10.708  19.031  0.00  0.00    +0.000 A 
ATOM      8  C   UNL     1      -1.540  11.766  19.579  0.00  0.00    +0.000 A 
ATOM      9  C   UNL     1      -1.113  12.428  20.722  0.00  0.00    +0.000 A 
ATOM     10  C   UNL     1       0.055  12.046  21.357  0.00  0.00    +0.000 A 
ATOM     11  C   UNL     1       0.808  10.993  20.833  0.00  0.00    +0.000 A 
ATOM     12  C   UNL     1       0.422  10.310  19.658  0.00  0.00    +0.000 A 
BRANCH   9  13
ATOM     13  O   UNL     1      -1.816  13.468  21.251  0.00  0.00    +0.000 OA
ATOM     14  H   UNL     1      -1.504  14.292  20.843  0.00  0.00    +0.000 HD
ENDBRANCH   9  13
ENDBRANCH   1  12
BRANCH   4  15
ATOM     15  C   UNL     1       3.232   5.786  19.155  0.00  0.00    +0.000 A 
ATOM     16  C   UNL     1       2.532   4.749  19.799  0.00  0.00    +0.000 A 
ATOM     17  C   UNL     1       3.130   3.502  20.020  0.00  0.00    +0.000 A 
ATOM     18  C   UNL     1       4.433   3.281  19.590  0.00  0.00    +0.000 A 
ATOM     19  C   UNL     1       5.141   4.278  18.935  0.00  0.00    +0.000 A 
ATOM     20  C   UNL     1       4.539   5.517  18.721  0.00  0.00    +0.000 A 
ATOM     21  F   UNL     1       5.257   6.460  18.090  0.00  0.00    +0.000 F 
BRANCH  18  22
ATOM     22  O   UNL     1       5.056   2.087  19.793  0.00  0.00    +0.000 OA
ATOM     23  H   UNL     1       4.398   1.374  19.738  0.00  0.00    +0.000 HD
ENDBRANCH  18  22
ENDBRANCH   4  15
TORSDOF 4
ENDMDL
MODEL 9
REMARK VINA RESULT:      -7.2      2.397      7.939
REMARK  Name = 
REMARK  5 active torsions:
REMARK  status: ('A' for Active; 'I' for Inactive)
REMARK    1  A    between atoms: C_1  and  C_2
REMARK    2  A    between atoms: C_4  and  O_5
REMARK    3  A    between atoms: C_8  and  C_9
REMARK    4  A    between atoms: C_12  and  C_13
REMARK    5  A    between atoms: C_16  and  O_17
REMARK                            x       y       z     vdW  Elec       q    Type
REMARK                         _______ _______ _______ _____ _____    ______ ____
ROOT
ATOM      1  C   UNL     1       2.613   7.656  18.229  0.00  0.00    +0.000 A 
ATOM      2  C   UNL     1       2.109   8.716  17.499  0.00  0.00    +0.000 A 
ATOM      3  C   UNL     1       1.222   9.546  18.247  0.00  0.00    +0.000 A 
ATOM      4  C   UNL     1       1.102   9.152  19.564  0.00  0.00    +0.000 A 
ATOM      5  S   UNL     1       1.993   7.712  19.838  0.00  0.00    +0.000 S 
ENDROOT
BRANCH   1  12
ATOM      6  C   UNL     1       1.717   4.746  17.953  0.00  0.00    +0.000 C 
ATOM      7  C   UNL     1       3.128   5.211  17.707  0.00  0.00    +0.000 A 
ATOM      8  C   UNL     1       4.073   4.227  17.341  0.00  0.00    +0.000 A 
ATOM      9  C   UNL     1       5.398   4.566  17.104  0.00  0.00    +0.000 A 
ATOM     10  C   UNL     1       5.812   5.882  17.201  0.00  0.00    +0.000 A 
ATOM     11  C   UNL     1       4.886   6.868  17.550  0.00  0.00    +0.000 A 
ATOM     12  C   UNL     1       3.534   6.562  17.824  0.00  0.00    +0.000 A 
BRANCH   9  13
ATOM     13  O   UNL     1       6.328   3.628  16.775  0.00  0.00    +0.000 OA
ATOM     14  H   UNL     1       7.208   4.039  16.810  0.00  0.00    +0.000 HD
ENDBRANCH   9  13
ENDBRANCH   1  12
BRANCH   4  15
ATOM     15  C   UNL     1       0.321   9.775  20.647  0.00  0.00    +0.000 A 
ATOM     16  C   UNL     1       0.258   9.204  21.931  0.00  0.00    +0.000 A 
ATOM     17  C   UNL     1      -0.485   9.807  22.954  0.00  0.00    +0.000 A 
ATOM     18  C   UNL     1      -1.163  10.993  22.701  0.00  0.00    +0.000 A 
ATOM     19  C   UNL     1      -1.103  11.590  21.450  0.00  0.00    +0.000 A 
ATOM     20  C   UNL     1      -0.364  10.982  20.437  0.00  0.00    +0.000 A 
ATOM     21  F   UNL     1      -0.333  11.585  19.238  0.00  0.00    +0.000 F 
BRANCH  18  22
ATOM     22  O   UNL     1      -1.905  11.608  23.664  0.00  0.00    +0.000 OA
ATOM     23  H   UNL     1      -2.798  11.224  23.667  0.00  0.00    +0.000 HD
ENDBRANCH  18  22
ENDBRANCH   4  15
TORSDOF 4
ENDMDL
