MODEL 1
REMARK VINA RESULT:      -7.7      0.000      0.000
REMARK  Name = 
REMARK  3 active torsions:
REMARK  status: ('A' for Active; 'I' for Inactive)
REMARK    1  A    between atoms: N_8  and  C_9
REMARK    2  A    between atoms: C_9  and  C_10
REMARK    3  A    between atoms: N_15  and  C_16
REMARK                            x       y       z     vdW  Elec       q    Type
REMARK                         _______ _______ _______ _____ _____    ______ ____
ROOT
ATOM      1  C   UNL     1       2.200   7.879  18.941  0.00  0.00    +0.000 C 
ATOM      2  O   UNL     1       2.652   8.224  17.844  0.00  0.00    +0.000 OA
ATOM      3  N   UNL     1       1.347   8.704  19.669  0.00  0.00    +0.000 N 
ATOM      4  C   UNL     1       1.003  10.010  19.096  0.00  0.00    +0.000 C 
ATOM      5  C   UNL     1      -0.403  10.459  19.522  0.00  0.00    +0.000 C 
ATOM      6  N   UNL     1      -0.537  10.429  20.986  0.00  0.00    +0.000 N 
ATOM      7  C   UNL     1      -0.200   9.143  21.616  0.00  0.00    +0.000 C 
ATOM      8  C   UNL     1       1.177   8.627  21.133  0.00  0.00    +0.000 C 
ENDROOT
BRANCH   6   9
ATOM      9  C   UNL     1      -0.692  11.580  21.733  0.00  0.00    +0.000 A 
ATOM     10  C   UNL     1      -1.644  11.652  22.764  0.00  0.00    +0.000 A 
ATOM     11  C   UNL     1      -1.851  12.828  23.496  0.00  0.00    +0.000 A 
ATOM     12  C   UNL     1      -1.099  13.963  23.220  0.00  0.00    +0.000 A 
ATOM     13  C   UNL     1      -0.138  13.918  22.215  0.00  0.00    +0.000 A 
ATOM     14  C   UNL     1       0.055  12.740  21.484  0.00  0.00    +0.000 A 
ENDBRANCH   6   9
BRANCH   1  15
ATOM     15  C   UNL     1       2.490   6.491  19.462  0.00  0.00    +0.000 C 
BRANCH  15  23
ATOM     16  O   UNL     1       7.819   5.189  19.081  0.00  0.00    +0.000 OA
ATOM     17  C   UNL     1       7.047   4.971  18.149  0.00  0.00    +0.000 C 
ATOM     18  C   UNL     1       7.551   4.403  16.833  0.00  0.00    +0.000 C 
ATOM     19  C   UNL     1       6.533   4.062  15.728  0.00  0.00    +0.000 C 
ATOM     20  C   UNL     1       5.058   4.464  15.881  0.00  0.00    +0.000 C 
ATOM     21  C   UNL     1       4.723   5.037  17.200  0.00  0.00    +0.000 A 
ATOM     22  N   UNL     1       3.486   5.425  17.526  0.00  0.00    +0.000 NA
ATOM     23  N   UNL     1       3.619   5.881  18.794  0.00  0.00    +0.000 N 
ATOM     24  C   UNL     1       4.905   5.815  19.254  0.00  0.00    +0.000 A 
ATOM     25  C   UNL     1       5.642   5.265  18.231  0.00  0.00    +0.000 A 
ENDBRANCH  15  23
ENDBRANCH   1  15
TORSDOF 3
ENDMDL
MODEL 2
REMARK VINA RESULT:      -7.5      2.384      3.635
REMARK  Name = 
REMARK  3 active torsions:
REMARK  status: ('A' for Active; 'I' for Inactive)
REMARK    1  A    between atoms: N_8  and  C_9
REMARK    2  A    between atoms: C_9  and  C_10
REMARK    3  A    between atoms: N_15  and  C_16
REMARK                            x       y       z     vdW  Elec       q    Type
REMARK                         _______ _______ _______ _____ _____    ______ ____
ROOT
ATOM      1  C   UNL     1       2.115   3.352  18.881  0.00  0.00    +0.000 C 
ATOM      2  O   UNL     1       1.478   2.468  19.465  0.00  0.00    +0.000 OA
ATOM      3  N   UNL     1       2.015   4.689  19.253  0.00  0.00    +0.000 N 
ATOM      4  C   UNL     1       1.117   5.026  20.364  0.00  0.00    +0.000 C 
ATOM      5  C   UNL     1       1.618   6.253  21.141  0.00  0.00    +0.000 C 
ATOM      6  N   UNL     1       1.846   7.386  20.232  0.00  0.00    +0.000 N 
ATOM      7  C   UNL     1       2.736   7.104  19.095  0.00  0.00    +0.000 C 
ATOM      8  C   UNL     1       2.301   5.820  18.349  0.00  0.00    +0.000 C 
ENDROOT
BRANCH   6   9
ATOM      9  C   UNL     1       1.075   8.530  20.278  0.00  0.00    +0.000 A 
ATOM     10  C   UNL     1       0.375   8.887  21.443  0.00  0.00    +0.000 A 
ATOM     11  C   UNL     1      -0.454  10.015  21.490  0.00  0.00    +0.000 A 
ATOM     12  C   UNL     1      -0.596  10.823  20.370  0.00  0.00    +0.000 A 
ATOM     13  C   UNL     1       0.095  10.505  19.206  0.00  0.00    +0.000 A 
ATOM     14  C   UNL     1       0.915   9.371  19.166  0.00  0.00    +0.000 A 
ENDBRANCH   6   9
BRANCH   1  15
ATOM     15  C   UNL     1       3.106   2.967  17.808  0.00  0.00    +0.000 C 
BRANCH  15  23
ATOM     16  O   UNL     1       7.410   5.263  20.345  0.00  0.00    +0.000 OA
ATOM     17  C   UNL     1       7.120   5.569  19.190  0.00  0.00    +0.000 C 
ATOM     18  C   UNL     1       7.895   6.646  18.449  0.00  0.00    +0.000 C 
ATOM     19  C   UNL     1       7.554   6.931  16.974  0.00  0.00    +0.000 C 
ATOM     20  C   UNL     1       6.329   6.273  16.320  0.00  0.00    +0.000 C 
ATOM     21  C   UNL     1       5.653   5.274  17.173  0.00  0.00    +0.000 A 
ATOM     22  N   UNL     1       4.584   4.583  16.769  0.00  0.00    +0.000 NA
ATOM     23  N   UNL     1       4.289   3.799  17.832  0.00  0.00    +0.000 N 
ATOM     24  C   UNL     1       5.124   4.003  18.895  0.00  0.00    +0.000 A 
ATOM     25  C   UNL     1       6.025   4.960  18.486  0.00  0.00    +0.000 A 
ENDBRANCH  15  23
ENDBRANCH   1  15
TORSDOF 3
ENDMDL
MODEL 3
REMARK VINA RESULT:      -7.5      2.218      3.400
REMARK  Name = 
REMARK  3 active torsions:
REMARK  status: ('A' for Active; 'I' for Inactive)
REMARK    1  A    between atoms: N_8  and  C_9
REMARK    2  A    between atoms: C_9  and  C_10
REMARK    3  A    between atoms: N_15  and  C_16
REMARK                            x       y       z     vdW  Elec       q    Type
REMARK                         _______ _______ _______ _____ _____    ______ ____
ROOT
ATOM      1  C   UNL     1       2.179   4.055  19.404  0.00  0.00    +0.000 C 
ATOM      2  O   UNL     1       1.701   3.254  20.214  0.00  0.00    +0.000 OA
ATOM      3  N   UNL     1       1.972   5.426  19.527  0.00  0.00    +0.000 N 
ATOM      4  C   UNL     1       1.156   5.898  20.652  0.00  0.00    +0.000 C 
ATOM      5  C   UNL     1       1.595   7.293  21.120  0.00  0.00    +0.000 C 
ATOM      6  N   UNL     1       1.611   8.239  19.994  0.00  0.00    +0.000 N 
ATOM      7  C   UNL     1       2.410   7.815  18.835  0.00  0.00    +0.000 C 
ATOM      8  C   UNL     1       2.046   6.375  18.400  0.00  0.00    +0.000 C 
ENDROOT
BRANCH   6   9
ATOM      9  C   UNL     1       0.729   9.298  19.914  0.00  0.00    +0.000 A 
ATOM     10  C   UNL     1       0.428   9.899  18.679  0.00  0.00    +0.000 A 
ATOM     11  C   UNL     1      -0.422  11.007  18.585  0.00  0.00    +0.000 A 
ATOM     12  C   UNL     1      -1.005  11.538  19.729  0.00  0.00    +0.000 A 
ATOM     13  C   UNL     1      -0.738  10.957  20.964  0.00  0.00    +0.000 A 
ATOM     14  C   UNL     1       0.119   9.854  21.048  0.00  0.00    +0.000 A 
ENDBRANCH   6   9
BRANCH   1  15
ATOM     15  C   UNL     1       3.096   3.553  18.314  0.00  0.00    +0.000 C 
BRANCH  15  23
ATOM     16  O   UNL     1       7.852   5.337  20.420  0.00  0.00    +0.000 OA
ATOM     17  C   UNL     1       7.435   5.767  19.347  0.00  0.00    +0.000 C 
ATOM     18  C   UNL     1       8.182   6.861  18.600  0.00  0.00    +0.000 C 
ATOM     19  C   UNL     1       7.670   7.303  17.216  0.00  0.00    +0.000 C 
ATOM     20  C   UNL     1       6.325   6.784  16.683  0.00  0.00    +0.000 C 
ATOM     21  C   UNL     1       5.697   5.752  17.533  0.00  0.00    +0.000 A 
ATOM     22  N   UNL     1       4.537   5.167  17.222  0.00  0.00    +0.000 NA
ATOM     23  N   UNL     1       4.329   4.306  18.246  0.00  0.00    +0.000 N 
ATOM     24  C   UNL     1       5.310   4.359  19.197  0.00  0.00    +0.000 A 
ATOM     25  C   UNL     1       6.216   5.294  18.751  0.00  0.00    +0.000 A 
ENDBRANCH  15  23
ENDBRANCH   1  15
TORSDOF 3
ENDMDL
MODEL 4
REMARK VINA RESULT:      -7.3      3.293      9.471
REMARK  Name = 
REMARK  3 active torsions:
REMARK  status: ('A' for Active; 'I' for Inactive)
REMARK    1  A    between atoms: N_8  and  C_9
REMARK    2  A    between atoms: C_9  and  C_10
REMARK    3  A    between atoms: N_15  and  C_16
REMARK                            x       y       z     vdW  Elec       q    Type
REMARK                         _______ _______ _______ _____ _____    ______ ____
ROOT
ATOM      1  C   UNL     1       1.084  10.900  19.443  0.00  0.00    +0.000 C 
ATOM      2  O   UNL     1       0.994  11.475  18.353  0.00  0.00    +0.000 OA
ATOM      3  N   UNL     1       1.405   9.548  19.529  0.00  0.00    +0.000 N 
ATOM      4  C   UNL     1       1.629   8.817  18.277  0.00  0.00    +0.000 C 
ATOM      5  C   UNL     1       2.644   7.679  18.463  0.00  0.00    +0.000 C 
ATOM      6  N   UNL     1       2.242   6.800  19.571  0.00  0.00    +0.000 N 
ATOM      7  C   UNL     1       1.999   7.481  20.852  0.00  0.00    +0.000 C 
ATOM      8  C   UNL     1       1.046   8.687  20.671  0.00  0.00    +0.000 C 
ENDROOT
BRANCH   6   9
ATOM      9  C   UNL     1       1.852   5.491  19.364  0.00  0.00    +0.000 A 
ATOM     10  C   UNL     1       1.321   4.719  20.412  0.00  0.00    +0.000 A 
ATOM     11  C   UNL     1       0.969   3.376  20.233  0.00  0.00    +0.000 A 
ATOM     12  C   UNL     1       1.131   2.771  18.993  0.00  0.00    +0.000 A 
ATOM     13  C   UNL     1       1.640   3.513  17.933  0.00  0.00    +0.000 A 
ATOM     14  C   UNL     1       1.996   4.853  18.123  0.00  0.00    +0.000 A 
ENDBRANCH   6   9
BRANCH   1  15
ATOM     15  C   UNL     1       0.946  11.698  20.719  0.00  0.00    +0.000 C 
BRANCH  15  23
ATOM     16  O   UNL     1      -4.332  12.724  19.567  0.00  0.00    +0.000 OA
ATOM     17  C   UNL     1      -3.939  12.665  20.730  0.00  0.00    +0.000 C 
ATOM     18  C   UNL     1      -4.882  12.945  21.889  0.00  0.00    +0.000 C 
ATOM     19  C   UNL     1      -4.367  12.769  23.330  0.00  0.00    +0.000 C 
ATOM     20  C   UNL     1      -2.878  12.499  23.594  0.00  0.00    +0.000 C 
ATOM     21  C   UNL     1      -2.077  12.283  22.371  0.00  0.00    +0.000 A 
ATOM     22  N   UNL     1      -0.769  12.013  22.402  0.00  0.00    +0.000 NA
ATOM     23  N   UNL     1      -0.438  11.892  21.095  0.00  0.00    +0.000 N 
ATOM     24  C   UNL     1      -1.493  12.107  20.253  0.00  0.00    +0.000 A 
ATOM     25  C   UNL     1      -2.575  12.361  21.065  0.00  0.00    +0.000 A 
ENDBRANCH  15  23
ENDBRANCH   1  15
TORSDOF 3
ENDMDL
MODEL 5
REMARK VINA RESULT:      -7.3      2.362      3.771
REMARK  Name = 
REMARK  3 active torsions:
REMARK  status: ('A' for Active; 'I' for Inactive)
REMARK    1  A    between atoms: N_8  and  C_9
REMARK    2  A    between atoms: C_9  and  C_10
REMARK    3  A    between atoms: N_15  and  C_16
REMARK                            x       y       z     vdW  Elec       q    Type
REMARK                         _______ _______ _______ _____ _____    ______ ____
ROOT
ATOM      1  C   UNL     1       1.827   3.184  19.182  0.00  0.00    +0.000 C 
ATOM      2  O   UNL     1       1.215   2.414  19.931  0.00  0.00    +0.000 OA
ATOM      3  N   UNL     1       1.825   4.560  19.392  0.00  0.00    +0.000 N 
ATOM      4  C   UNL     1       1.062   5.077  20.534  0.00  0.00    +0.000 C 
ATOM      5  C   UNL     1       1.693   6.358  21.100  0.00  0.00    +0.000 C 
ATOM      6  N   UNL     1       1.877   7.359  20.039  0.00  0.00    +0.000 N 
ATOM      7  C   UNL     1       2.631   6.894  18.866  0.00  0.00    +0.000 C 
ATOM      8  C   UNL     1       2.066   5.556  18.331  0.00  0.00    +0.000 C 
ENDROOT
BRANCH   6   9
ATOM      9  C   UNL     1       1.165   8.543  20.016  0.00  0.00    +0.000 A 
ATOM     10  C   UNL     1       1.208   9.392  18.898  0.00  0.00    +0.000 A 
ATOM     11  C   UNL     1       0.535  10.621  18.878  0.00  0.00    +0.000 A 
ATOM     12  C   UNL     1      -0.209  11.026  19.978  0.00  0.00    +0.000 A 
ATOM     13  C   UNL     1      -0.283  10.200  21.095  0.00  0.00    +0.000 A 
ATOM     14  C   UNL     1       0.399   8.978  21.108  0.00  0.00    +0.000 A 
ENDBRANCH   6   9
BRANCH   1  15
ATOM     15  C   UNL     1       2.684   2.618  18.074  0.00  0.00    +0.000 C 
BRANCH  15  23
ATOM     16  O   UNL     1       7.132   5.232  19.977  0.00  0.00    +0.000 OA
ATOM     17  C   UNL     1       6.846   5.260  18.782  0.00  0.00    +0.000 C 
ATOM     18  C   UNL     1       7.669   6.078  17.800  0.00  0.00    +0.000 C 
ATOM     19  C   UNL     1       7.326   6.009  16.300  0.00  0.00    +0.000 C 
ATOM     20  C   UNL     1       6.061   5.277  15.825  0.00  0.00    +0.000 C 
ATOM     21  C   UNL     1       5.343   4.557  16.897  0.00  0.00    +0.000 A 
ATOM     22  N   UNL     1       4.234   3.847  16.672  0.00  0.00    +0.000 NA
ATOM     23  N   UNL     1       3.910   3.366  17.896  0.00  0.00    +0.000 N 
ATOM     24  C   UNL     1       4.767   3.780  18.877  0.00  0.00    +0.000 A 
ATOM     25  C   UNL     1       5.712   4.557  18.248  0.00  0.00    +0.000 A 
ENDBRANCH  15  23
ENDBRANCH   1  15
TORSDOF 3
ENDMDL
MODEL 6
REMARK VINA RESULT:      -7.3      3.252      4.717
REMARK  Name = 
REMARK  3 active torsions:
REMARK  status: ('A' for Active; 'I' for Inactive)
REMARK    1  A    between atoms: N_8  and  C_9
REMARK    2  A    between atoms: C_9  and  C_10
REMARK    3  A    between atoms: N_15  and  C_16
REMARK                            x       y       z     vdW  Elec       q    Type
REMARK                         _______ _______ _______ _____ _____    ______ ____
ROOT
ATOM      1  C   UNL     1       0.862  10.817  19.242  0.00  0.00    +0.000 C 
ATOM      2  O   UNL     1       1.436  11.121  20.294  0.00  0.00    +0.000 OA
ATOM      3  N   UNL     1      -0.473  11.141  19.022  0.00  0.00    +0.000 N 
ATOM      4  C   UNL     1      -1.191  11.852  20.086  0.00  0.00    +0.000 C 
ATOM      5  C   UNL     1      -2.281  12.770  19.514  0.00  0.00    +0.000 C 
ATOM      6  N   UNL     1      -3.182  12.018  18.627  0.00  0.00    +0.000 N 
ATOM      7  C   UNL     1      -2.516  11.280  17.543  0.00  0.00    +0.000 C 
ATOM      8  C   UNL     1      -1.354  10.415  18.086  0.00  0.00    +0.000 C 
ENDROOT
BRANCH   6   9
ATOM      9  C   UNL     1      -4.506  11.791  18.947  0.00  0.00    +0.000 A 
ATOM     10  C   UNL     1      -5.077  12.348  20.104  0.00  0.00    +0.000 A 
ATOM     11  C   UNL     1      -6.403  12.085  20.471  0.00  0.00    +0.000 A 
ATOM     12  C   UNL     1      -7.196  11.264  19.681  0.00  0.00    +0.000 A 
ATOM     13  C   UNL     1      -6.664  10.710  18.521  0.00  0.00    +0.000 A 
ATOM     14  C   UNL     1      -5.335  10.972  18.167  0.00  0.00    +0.000 A 
ENDBRANCH   6   9
BRANCH   1  15
ATOM     15  C   UNL     1       1.649  10.174  18.124  0.00  0.00    +0.000 C 
BRANCH  15  23
ATOM     16  O   UNL     1       4.224   5.447  17.002  0.00  0.00    +0.000 OA
ATOM     17  C   UNL     1       3.568   5.580  18.033  0.00  0.00    +0.000 C 
ATOM     18  C   UNL     1       3.384   4.419  18.997  0.00  0.00    +0.000 C 
ATOM     19  C   UNL     1       2.630   4.659  20.319  0.00  0.00    +0.000 C 
ATOM     20  C   UNL     1       1.915   5.995  20.573  0.00  0.00    +0.000 C 
ATOM     21  C   UNL     1       2.155   7.016  19.532  0.00  0.00    +0.000 A 
ATOM     22  N   UNL     1       1.635   8.245  19.592  0.00  0.00    +0.000 NA
ATOM     23  N   UNL     1       2.094   8.840  18.466  0.00  0.00    +0.000 N 
ATOM     24  C   UNL     1       2.858   8.009  17.695  0.00  0.00    +0.000 A 
ATOM     25  C   UNL     1       2.915   6.814  18.373  0.00  0.00    +0.000 A 
ENDBRANCH  15  23
ENDBRANCH   1  15
TORSDOF 3
ENDMDL
MODEL 7
REMARK VINA RESULT:      -7.3      3.253      9.027
REMARK  Name = 
REMARK  3 active torsions:
REMARK  status: ('A' for Active; 'I' for Inactive)
REMARK    1  A    between atoms: N_8  and  C_9
REMARK    2  A    between atoms: C_9  and  C_10
REMARK    3  A    between atoms: N_15  and  C_16
REMARK                            x       y       z     vdW  Elec       q    Type
REMARK                         _______ _______ _______ _____ _____    ______ ____
ROOT
ATOM      1  C   UNL     1       1.672  10.146  18.513  0.00  0.00    +0.000 C 
ATOM      2  O   UNL     1       2.002  10.469  17.368  0.00  0.00    +0.000 OA
ATOM      3  N   UNL     1       1.821   8.840  18.974  0.00  0.00    +0.000 N 
ATOM      4  C   UNL     1       2.380   7.848  18.049  0.00  0.00    +0.000 C 
ATOM      5  C   UNL     1       3.166   6.761  18.797  0.00  0.00    +0.000 C 
ATOM      6  N   UNL     1       2.340   6.153  19.851  0.00  0.00    +0.000 N 
ATOM      7  C   UNL     1       1.748   7.103  20.805  0.00  0.00    +0.000 C 
ATOM      8  C   UNL     1       1.025   8.257  20.070  0.00  0.00    +0.000 C 
ENDROOT
BRANCH   6   9
ATOM      9  C   UNL     1       1.922   4.839  19.788  0.00  0.00    +0.000 A 
ATOM     10  C   UNL     1       1.716   4.088  20.958  0.00  0.00    +0.000 A 
ATOM     11  C   UNL     1       1.344   2.738  20.913  0.00  0.00    +0.000 A 
ATOM     12  C   UNL     1       1.157   2.107  19.690  0.00  0.00    +0.000 A 
ATOM     13  C   UNL     1       1.338   2.828  18.514  0.00  0.00    +0.000 A 
ATOM     14  C   UNL     1       1.718   4.174  18.570  0.00  0.00    +0.000 A 
ENDBRANCH   6   9
BRANCH   1  15
ATOM     15  C   UNL     1       1.192  11.206  19.476  0.00  0.00    +0.000 C 
BRANCH  15  23
ATOM     16  O   UNL     1      -3.733  10.550  17.121  0.00  0.00    +0.000 OA
ATOM     17  C   UNL     1      -3.601  11.249  18.123  0.00  0.00    +0.000 C 
ATOM     18  C   UNL     1      -4.778  12.014  18.705  0.00  0.00    +0.000 C 
ATOM     19  C   UNL     1      -4.584  12.803  20.013  0.00  0.00    +0.000 C 
ATOM     20  C   UNL     1      -3.181  12.967  20.619  0.00  0.00    +0.000 C 
ATOM     21  C   UNL     1      -2.130  12.194  19.927  0.00  0.00    +0.000 A 
ATOM     22  N   UNL     1      -0.854  12.194  20.322  0.00  0.00    +0.000 NA
ATOM     23  N   UNL     1      -0.245  11.376  19.432  0.00  0.00    +0.000 N 
ATOM     24  C   UNL     1      -1.097  10.891  18.479  0.00  0.00    +0.000 A 
ATOM     25  C   UNL     1      -2.335  11.410  18.785  0.00  0.00    +0.000 A 
ENDBRANCH  15  23
ENDBRANCH   1  15
TORSDOF 3
ENDMDL
MODEL 8
REMARK VINA RESULT:      -7.3      3.126      9.179
REMARK  Name = 
REMARK  3 active torsions:
REMARK  status: ('A' for Active; 'I' for Inactive)
REMARK    1  A    between atoms: N_8  and  C_9
REMARK    2  A    between atoms: C_9  and  C_10
REMARK    3  A    between atoms: N_15  and  C_16
REMARK                            x       y       z     vdW  Elec       q    Type
REMARK                         _______ _______ _______ _____ _____    ______ ____
ROOT
ATOM      1  C   UNL     1       1.833   9.342  18.386  0.00  0.00    +0.000 C 
ATOM      2  O   UNL     1       2.169   9.943  17.360  0.00  0.00    +0.000 OA
ATOM      3  N   UNL     1       2.309   8.066  18.672  0.00  0.00    +0.000 N 
ATOM      4  C   UNL     1       3.226   7.445  17.709  0.00  0.00    +0.000 C 
ATOM      5  C   UNL     1       4.215   6.497  18.403  0.00  0.00    +0.000 C 
ATOM      6  N   UNL     1       3.500   5.509  19.224  0.00  0.00    +0.000 N 
ATOM      7  C   UNL     1       2.562   6.076  20.206  0.00  0.00    +0.000 C 
ATOM      8  C   UNL     1       1.611   7.102  19.544  0.00  0.00    +0.000 C 
ENDROOT
BRANCH   6   9
ATOM      9  C   UNL     1       3.493   4.164  18.914  0.00  0.00    +0.000 A 
ATOM     10  C   UNL     1       2.644   3.655  17.916  0.00  0.00    +0.000 A 
ATOM     11  C   UNL     1       2.585   2.286  17.625  0.00  0.00    +0.000 A 
ATOM     12  C   UNL     1       3.386   1.390  18.321  0.00  0.00    +0.000 A 
ATOM     13  C   UNL     1       4.248   1.865  19.304  0.00  0.00    +0.000 A 
ATOM     14  C   UNL     1       4.293   3.234  19.593  0.00  0.00    +0.000 A 
ENDBRANCH   6   9
BRANCH   1  15
ATOM     15  C   UNL     1       0.968  10.042  19.408  0.00  0.00    +0.000 C 
BRANCH  15  23
ATOM     16  O   UNL     1      -3.910  12.560  19.732  0.00  0.00    +0.000 OA
ATOM     17  C   UNL     1      -3.621  11.865  18.760  0.00  0.00    +0.000 C 
ATOM     18  C   UNL     1      -4.628  11.617  17.649  0.00  0.00    +0.000 C 
ATOM     19  C   UNL     1      -4.189  10.815  16.409  0.00  0.00    +0.000 C 
ATOM     20  C   UNL     1      -2.820  10.118  16.379  0.00  0.00    +0.000 C 
ATOM     21  C   UNL     1      -1.963  10.423  17.544  0.00  0.00    +0.000 A 
ATOM     22  N   UNL     1      -0.730   9.927  17.683  0.00  0.00    +0.000 NA
ATOM     23  N   UNL     1      -0.309  10.444  18.861  0.00  0.00    +0.000 N 
ATOM     24  C   UNL     1      -1.254  11.221  19.472  0.00  0.00    +0.000 A 
ATOM     25  C   UNL     1      -2.341  11.225  18.628  0.00  0.00    +0.000 A 
ENDBRANCH  15  23
ENDBRANCH   1  15
TORSDOF 3
ENDMDL
MODEL 9
REMARK VINA RESULT:      -7.3      3.258      8.922
REMARK  Name = 
REMARK  3 active torsions:
REMARK  status: ('A' for Active; 'I' for Inactive)
REMARK    1  A    between atoms: N_8  and  C_9
REMARK    2  A    between atoms: C_9  and  C_10
REMARK    3  A    between atoms: N_15  and  C_16
REMARK                            x       y       z     vdW  Elec       q    Type
REMARK                         _______ _______ _______ _____ _____    ______ ____
ROOT
ATOM      1  C   UNL     1       1.665  10.152  18.453  0.00  0.00    +0.000 C 
ATOM      2  O   UNL     1       2.038  10.442  17.310  0.00  0.00    +0.000 OA
ATOM      3  N   UNL     1       1.808   8.864  18.960  0.00  0.00    +0.000 N 
ATOM      4  C   UNL     1       2.411   7.848  18.090  0.00  0.00    +0.000 C 
ATOM      5  C   UNL     1       3.177   6.793  18.903  0.00  0.00    +0.000 C 
ATOM      6  N   UNL     1       2.316   6.212  19.943  0.00  0.00    +0.000 N 
ATOM      7  C   UNL     1       1.680   7.186  20.843  0.00  0.00    +0.000 C 
ATOM      8  C   UNL     1       0.975   8.308  20.044  0.00  0.00    +0.000 C 
ENDROOT
BRANCH   6   9
ATOM      9  C   UNL     1       1.912   4.891  19.908  0.00  0.00    +0.000 A 
ATOM     10  C   UNL     1       1.891   4.108  21.075  0.00  0.00    +0.000 A 
ATOM     11  C   UNL     1       1.535   2.754  21.048  0.00  0.00    +0.000 A 
ATOM     12  C   UNL     1       1.180   2.150  19.849  0.00  0.00    +0.000 A 
ATOM     13  C   UNL     1       1.177   2.902  18.679  0.00  0.00    +0.000 A 
ATOM     14  C   UNL     1       1.541   4.253  18.715  0.00  0.00    +0.000 A 
ENDBRANCH   6   9
BRANCH   1  15
ATOM     15  C   UNL     1       1.139  11.238  19.362  0.00  0.00    +0.000 C 
BRANCH  15  23
ATOM     16  O   UNL     1      -3.703  13.362  20.870  0.00  0.00    +0.000 OA
ATOM     17  C   UNL     1      -3.621  12.590  19.917  0.00  0.00    +0.000 C 
ATOM     18  C   UNL     1      -4.864  12.138  19.168  0.00  0.00    +0.000 C 
ATOM     19  C   UNL     1      -4.703  11.243  17.925  0.00  0.00    +0.000 C 
ATOM     20  C   UNL     1      -3.327  10.664  17.559  0.00  0.00    +0.000 C 
ATOM     21  C   UNL     1      -2.219  11.165  18.397  0.00  0.00    +0.000 A 
ATOM     22  N   UNL     1      -0.949  10.792  18.215  0.00  0.00    +0.000 NA
ATOM     23  N   UNL     1      -0.277  11.469  19.175  0.00  0.00    +0.000 N 
ATOM     24  C   UNL     1      -1.093  12.228  19.966  0.00  0.00    +0.000 A 
ATOM     25  C   UNL     1      -2.366  12.048  19.474  0.00  0.00    +0.000 A 
ENDBRANCH  15  23
ENDBRANCH   1  15
TORSDOF 3
ENDMDL
