MODEL 1
REMARK VINA RESULT:      -8.5      0.000      0.000
REMARK  Name = 
REMARK  6 active torsions:
REMARK  status: ('A' for Active; 'I' for Inactive)
REMARK    1  A    between atoms: C_1  and  C_2
REMARK    2  A    between atoms: C_4  and  C_5
REMARK    3  A    between atoms: C_10  and  C_11
REMARK    4  A    between atoms: N_13  and  C_14
REMARK    5  A    between atoms: C_19  and  C_20
REMARK    6  A    between atoms: C_20  and  C_21
REMARK                            x       y       z     vdW  Elec       q    Type
REMARK                         _______ _______ _______ _____ _____    ______ ____
ROOT
ATOM      1  C   UNL     1       2.601   7.269  18.816  0.00  0.00    +0.000 A 
ATOM      2  C   UNL     1       3.557   7.349  17.812  0.00  0.00    +0.000 A 
ATOM      3  C   UNL     1       4.056   6.187  17.226  0.00  0.00    +0.000 A 
ATOM      4  C   UNL     1       3.601   4.925  17.626  0.00  0.00    +0.000 A 
ATOM      5 CL   UNL     1       4.381   3.591  16.841  0.00  0.00    +0.000 Cl
ATOM      6  C   UNL     1       2.615   4.792  18.629  0.00  0.00    +0.000 A 
ATOM      7  C   UNL     1       2.155   6.000  19.223  0.00  0.00    +0.000 A 
ENDROOT
BRANCH   6   8
ATOM      8  C   UNL     1       2.107   3.405  19.116  0.00  0.00    +0.000 C 
ATOM      9  N   UNL     1       3.259   2.482  19.192  0.00  0.00    +0.000 NA
ATOM     10  C   UNL     1       3.976   2.482  20.256  0.00  0.00    +0.000 C 
ATOM     11  N   UNL     1       5.153   1.824  20.346  0.00  0.00    +0.000 N 
ATOM     12  O   UNL     1       3.648   3.069  21.433  0.00  0.00    +0.000 OA
ATOM     13  C   UNL     1       2.273   3.411  21.674  0.00  0.00    +0.000 C 
ATOM     14  C   UNL     1       1.262   2.324  21.420  0.00  0.00    +0.000 C 
ATOM     15  C   UNL     1       1.407   3.491  20.462  0.00  0.00    +0.000 C 
ATOM     16  H   UNL     1       5.283   1.115  19.637  0.00  0.00    +0.000 HD
ATOM     17  H   UNL     1       5.436   1.572  21.283  0.00  0.00    +0.000 HD
BRANCH   8  18
ATOM     18  C   UNL     1       1.061   2.800  18.136  0.00  0.00    +0.000 C 
ATOM     19  F   UNL     1      -0.073   2.455  18.814  0.00  0.00    +0.000 F 
ENDBRANCH   8  18
ENDBRANCH   6   8
BRANCH   1  22
ATOM     20  C   UNL     1       1.155   9.315  18.920  0.00  0.00    +0.000 C 
ATOM     21  O   UNL     1       0.686   9.279  17.790  0.00  0.00    +0.000 OA
ATOM     22  N   UNL     1       2.055   8.403  19.454  0.00  0.00    +0.000 N 
ATOM     23  H   UNL     1       2.284   8.566  20.433  0.00  0.00    +0.000 HD
BRANCH  20  30
ATOM     24  C   UNL     1      -0.294   8.739  21.552  0.00  0.00    +0.000 C 
ATOM     25  C   UNL     1       0.074  10.120  21.097  0.00  0.00    +0.000 A 
ATOM     26  C   UNL     1      -0.260  11.212  21.911  0.00  0.00    +0.000 A 
ATOM     27  C   UNL     1       0.072  12.516  21.533  0.00  0.00    +0.000 A 
ATOM     28  C   UNL     1       0.724  12.682  20.321  0.00  0.00    +0.000 A 
ATOM     29  N   UNL     1       1.072  11.665  19.498  0.00  0.00    +0.000 NA
ATOM     30  C   UNL     1       0.738  10.397  19.894  0.00  0.00    +0.000 A 
BRANCH  27  31
ATOM     31  C   UNL     1      -0.294  13.694  22.381  0.00  0.00    +0.000 C 
ATOM     32  F   UNL     1      -1.035  14.621  21.710  0.00  0.00    +0.000 F 
ATOM     33  F   UNL     1      -1.035  13.352  23.472  0.00  0.00    +0.000 F 
ENDBRANCH  27  31
ENDBRANCH  20  30
ENDBRANCH   1  22
TORSDOF 5
ENDMDL
MODEL 2
REMARK VINA RESULT:      -8.4      0.858      1.501
REMARK  Name = 
REMARK  6 active torsions:
REMARK  status: ('A' for Active; 'I' for Inactive)
REMARK    1  A    between atoms: C_1  and  C_2
REMARK    2  A    between atoms: C_4  and  C_5
REMARK    3  A    between atoms: C_10  and  C_11
REMARK    4  A    between atoms: N_13  and  C_14
REMARK    5  A    between atoms: C_19  and  C_20
REMARK    6  A    between atoms: C_20  and  C_21
REMARK                            x       y       z     vdW  Elec       q    Type
REMARK                         _______ _______ _______ _____ _____    ______ ____
ROOT
ATOM      1  C   UNL     1       2.661   7.391  18.681  0.00  0.00    +0.000 A 
ATOM      2  C   UNL     1       3.666   7.426  17.722  0.00  0.00    +0.000 A 
ATOM      3  C   UNL     1       4.177   6.240  17.200  0.00  0.00    +0.000 A 
ATOM      4  C   UNL     1       3.685   4.997  17.618  0.00  0.00    +0.000 A 
ATOM      5 CL   UNL     1       4.484   3.629  16.915  0.00  0.00    +0.000 Cl
ATOM      6  C   UNL     1       2.650   4.909  18.574  0.00  0.00    +0.000 A 
ATOM      7  C   UNL     1       2.178   6.141  19.106  0.00  0.00    +0.000 A 
ENDROOT
BRANCH   6   8
ATOM      8  C   UNL     1       2.099   3.545  19.081  0.00  0.00    +0.000 C 
ATOM      9  N   UNL     1       3.216   2.578  19.135  0.00  0.00    +0.000 NA
ATOM     10  C   UNL     1       3.957   2.555  20.182  0.00  0.00    +0.000 C 
ATOM     11  N   UNL     1       5.108   1.852  20.250  0.00  0.00    +0.000 N 
ATOM     12  O   UNL     1       3.678   3.160  21.363  0.00  0.00    +0.000 OA
ATOM     13  C   UNL     1       2.324   3.556  21.634  0.00  0.00    +0.000 C 
ATOM     14  C   UNL     1       1.266   2.508  21.408  0.00  0.00    +0.000 C 
ATOM     15  C   UNL     1       1.434   3.665  20.441  0.00  0.00    +0.000 C 
ATOM     16  H   UNL     1       5.195   1.135  19.542  0.00  0.00    +0.000 HD
ATOM     17  H   UNL     1       5.403   1.594  21.181  0.00  0.00    +0.000 HD
BRANCH   8  18
ATOM     18  C   UNL     1       1.008   2.977  18.127  0.00  0.00    +0.000 C 
ATOM     19  F   UNL     1       0.651   3.922  17.208  0.00  0.00    +0.000 F 
ENDBRANCH   8  18
ENDBRANCH   6   8
BRANCH   1  22
ATOM     20  C   UNL     1       1.175   9.411  18.678  0.00  0.00    +0.000 C 
ATOM     21  O   UNL     1       0.692   9.295  17.559  0.00  0.00    +0.000 OA
ATOM     22  N   UNL     1       2.101   8.551  19.255  0.00  0.00    +0.000 N 
ATOM     23  H   UNL     1       2.339   8.780  20.217  0.00  0.00    +0.000 HD
BRANCH  20  30
ATOM     24  C   UNL     1       2.248  12.264  18.424  0.00  0.00    +0.000 C 
ATOM     25  C   UNL     1       1.248  11.847  19.462  0.00  0.00    +0.000 A 
ATOM     26  C   UNL     1       0.775  12.806  20.369  0.00  0.00    +0.000 A 
ATOM     27  C   UNL     1      -0.165  12.465  21.346  0.00  0.00    +0.000 A 
ATOM     28  C   UNL     1      -0.591  11.147  21.389  0.00  0.00    +0.000 A 
ATOM     29  N   UNL     1      -0.170  10.182  20.538  0.00  0.00    +0.000 NA
ATOM     30  C   UNL     1       0.748  10.544  19.588  0.00  0.00    +0.000 A 
BRANCH  27  31
ATOM     31  C   UNL     1      -0.666  13.472  22.335  0.00  0.00    +0.000 C 
ATOM     32  F   UNL     1      -1.044  12.910  23.517  0.00  0.00    +0.000 F 
ATOM     33  F   UNL     1       0.268  14.410  22.655  0.00  0.00    +0.000 F 
ENDBRANCH  27  31
ENDBRANCH  20  30
ENDBRANCH   1  22
TORSDOF 5
ENDMDL
MODEL 3
REMARK VINA RESULT:      -8.1      1.998      2.617
REMARK  Name = 
REMARK  6 active torsions:
REMARK  status: ('A' for Active; 'I' for Inactive)
REMARK    1  A    between atoms: C_1  and  C_2
REMARK    2  A    between atoms: C_4  and  C_5
REMARK    3  A    between atoms: C_10  and  C_11
REMARK    4  A    between atoms: N_13  and  C_14
REMARK    5  A    between atoms: C_19  and  C_20
REMARK    6  A    between atoms: C_20  and  C_21
REMARK                            x       y       z     vdW  Elec       q    Type
REMARK                         _______ _______ _______ _____ _____    ______ ____
ROOT
ATOM      1  C   UNL     1       2.529   7.753  18.699  0.00  0.00    +0.000 A 
ATOM      2  C   UNL     1       3.094   8.147  17.494  0.00  0.00    +0.000 A 
ATOM      3  C   UNL     1       3.888   7.260  16.770  0.00  0.00    +0.000 A 
ATOM      4  C   UNL     1       4.123   5.959  17.233  0.00  0.00    +0.000 A 
ATOM      5 CL   UNL     1       5.189   5.019  16.241  0.00  0.00    +0.000 Cl
ATOM      6  C   UNL     1       3.554   5.504  18.443  0.00  0.00    +0.000 A 
ATOM      7  C   UNL     1       2.776   6.450  19.167  0.00  0.00    +0.000 A 
ENDROOT
BRANCH   6   8
ATOM      8  C   UNL     1       3.816   4.076  19.000  0.00  0.00    +0.000 C 
ATOM      9  N   UNL     1       2.844   3.808  20.080  0.00  0.00    +0.000 NA
ATOM     10  C   UNL     1       1.682   3.364  19.765  0.00  0.00    +0.000 C 
ATOM     11  N   UNL     1       0.667   3.272  20.651  0.00  0.00    +0.000 N 
ATOM     12  O   UNL     1       1.323   2.876  18.551  0.00  0.00    +0.000 OA
ATOM     13  C   UNL     1       2.355   2.470  17.638  0.00  0.00    +0.000 C 
ATOM     14  C   UNL     1       3.412   1.551  18.193  0.00  0.00    +0.000 C 
ATOM     15  C   UNL     1       3.716   3.012  17.920  0.00  0.00    +0.000 C 
ATOM     16  H   UNL     1       0.960   3.304  21.618  0.00  0.00    +0.000 HD
ATOM     17  H   UNL     1      -0.044   2.591  20.425  0.00  0.00    +0.000 HD
BRANCH   8  18
ATOM     18  C   UNL     1       5.250   3.944  19.590  0.00  0.00    +0.000 C 
ATOM     19  F   UNL     1       5.813   5.179  19.733  0.00  0.00    +0.000 F 
ENDBRANCH   8  18
ENDBRANCH   6   8
BRANCH   1  22
ATOM     20  C   UNL     1       0.748   9.486  19.037  0.00  0.00    +0.000 C 
ATOM     21  O   UNL     1       0.439   9.677  17.868  0.00  0.00    +0.000 OA
ATOM     22  N   UNL     1       1.718   8.599  19.485  0.00  0.00    +0.000 N 
ATOM     23  H   UNL     1       1.789   8.535  20.498  0.00  0.00    +0.000 HD
BRANCH  20  30
ATOM     24  C   UNL     1       1.120   8.808  21.997  0.00  0.00    +0.000 C 
ATOM     25  C   UNL     1       0.208   9.894  21.507  0.00  0.00    +0.000 A 
ATOM     26  C   UNL     1      -0.518  10.643  22.444  0.00  0.00    +0.000 A 
ATOM     27  C   UNL     1      -1.371  11.671  22.034  0.00  0.00    +0.000 A 
ATOM     28  C   UNL     1      -1.480  11.904  20.672  0.00  0.00    +0.000 A 
ATOM     29  N   UNL     1      -0.802  11.215  19.724  0.00  0.00    +0.000 NA
ATOM     30  C   UNL     1       0.029  10.214  20.154  0.00  0.00    +0.000 A 
BRANCH  27  31
ATOM     31  C   UNL     1      -2.167  12.467  23.021  0.00  0.00    +0.000 C 
ATOM     32  F   UNL     1      -2.920  11.687  23.846  0.00  0.00    +0.000 F 
ATOM     33  F   UNL     1      -1.388  13.226  23.841  0.00  0.00    +0.000 F 
ENDBRANCH  27  31
ENDBRANCH  20  30
ENDBRANCH   1  22
TORSDOF 5
ENDMDL
MODEL 4
REMARK VINA RESULT:      -8.1      0.943      1.057
REMARK  Name = 
REMARK  6 active torsions:
REMARK  status: ('A' for Active; 'I' for Inactive)
REMARK    1  A    between atoms: C_1  and  C_2
REMARK    2  A    between atoms: C_4  and  C_5
REMARK    3  A    between atoms: C_10  and  C_11
REMARK    4  A    between atoms: N_13  and  C_14
REMARK    5  A    between atoms: C_19  and  C_20
REMARK    6  A    between atoms: C_20  and  C_21
REMARK                            x       y       z     vdW  Elec       q    Type
REMARK                         _______ _______ _______ _____ _____    ______ ____
ROOT
ATOM      1  C   UNL     1       2.390   7.386  18.696  0.00  0.00    +0.000 A 
ATOM      2  C   UNL     1       3.443   7.448  17.792  0.00  0.00    +0.000 A 
ATOM      3  C   UNL     1       4.036   6.277  17.326  0.00  0.00    +0.000 A 
ATOM      4  C   UNL     1       3.582   5.021  17.748  0.00  0.00    +0.000 A 
ATOM      5 CL   UNL     1       4.481   3.678  17.122  0.00  0.00    +0.000 Cl
ATOM      6  C   UNL     1       2.502   4.904  18.651  0.00  0.00    +0.000 A 
ATOM      7  C   UNL     1       1.944   6.124  19.127  0.00  0.00    +0.000 A 
ENDROOT
BRANCH   6   8
ATOM      8  C   UNL     1       1.990   3.527  19.161  0.00  0.00    +0.000 C 
ATOM      9  N   UNL     1       3.120   2.575  19.160  0.00  0.00    +0.000 NA
ATOM     10  C   UNL     1       3.901   2.549  20.178  0.00  0.00    +0.000 C 
ATOM     11  N   UNL     1       5.064   1.861  20.192  0.00  0.00    +0.000 N 
ATOM     12  O   UNL     1       3.660   3.136  21.376  0.00  0.00    +0.000 OA
ATOM     13  C   UNL     1       2.313   3.510  21.703  0.00  0.00    +0.000 C 
ATOM     14  C   UNL     1       1.260   2.451  21.505  0.00  0.00    +0.000 C 
ATOM     15  C   UNL     1       1.376   3.621  20.547  0.00  0.00    +0.000 C 
ATOM     16  H   UNL     1       5.133   1.155  19.472  0.00  0.00    +0.000 HD
ATOM     17  H   UNL     1       5.397   1.596  21.108  0.00  0.00    +0.000 HD
BRANCH   8  18
ATOM     18  C   UNL     1       0.871   2.955  18.243  0.00  0.00    +0.000 C 
ATOM     19  F   UNL     1       0.663   1.635  18.523  0.00  0.00    +0.000 F 
ENDBRANCH   8  18
ENDBRANCH   6   8
BRANCH   1  22
ATOM     20  C   UNL     1       1.505   9.728  18.550  0.00  0.00    +0.000 C 
ATOM     21  O   UNL     1       1.823   9.983  17.396  0.00  0.00    +0.000 OA
ATOM     22  N   UNL     1       1.746   8.530  19.211  0.00  0.00    +0.000 N 
ATOM     23  H   UNL     1       1.353   8.485  20.149  0.00  0.00    +0.000 HD
BRANCH  20  30
ATOM     24  C   UNL     1      -1.510  10.185  18.313  0.00  0.00    +0.000 C 
ATOM     25  C   UNL     1      -0.633  10.941  19.266  0.00  0.00    +0.000 A 
ATOM     26  C   UNL     1      -1.214  11.911  20.095  0.00  0.00    +0.000 A 
ATOM     27  C   UNL     1      -0.437  12.632  21.006  0.00  0.00    +0.000 A 
ATOM     28  C   UNL     1       0.922  12.361  21.042  0.00  0.00    +0.000 A 
ATOM     29  N   UNL     1       1.534  11.435  20.267  0.00  0.00    +0.000 NA
ATOM     30  C   UNL     1       0.749  10.740  19.385  0.00  0.00    +0.000 A 
BRANCH  27  31
ATOM     31  C   UNL     1      -1.038  13.685  21.886  0.00  0.00    +0.000 C 
ATOM     32  F   UNL     1      -2.385  13.810  21.718  0.00  0.00    +0.000 F 
ATOM     33  F   UNL     1      -0.854  13.436  23.212  0.00  0.00    +0.000 F 
ENDBRANCH  27  31
ENDBRANCH  20  30
ENDBRANCH   1  22
TORSDOF 5
ENDMDL
MODEL 5
REMARK VINA RESULT:      -8.1      2.277      2.867
REMARK  Name = 
REMARK  6 active torsions:
REMARK  status: ('A' for Active; 'I' for Inactive)
REMARK    1  A    between atoms: C_1  and  C_2
REMARK    2  A    between atoms: C_4  and  C_5
REMARK    3  A    between atoms: C_10  and  C_11
REMARK    4  A    between atoms: N_13  and  C_14
REMARK    5  A    between atoms: C_19  and  C_20
REMARK    6  A    between atoms: C_20  and  C_21
REMARK                            x       y       z     vdW  Elec       q    Type
REMARK                         _______ _______ _______ _____ _____    ______ ____
ROOT
ATOM      1  C   UNL     1       2.072   8.177  18.961  0.00  0.00    +0.000 A 
ATOM      2  C   UNL     1       2.611   8.671  17.781  0.00  0.00    +0.000 A 
ATOM      3  C   UNL     1       3.460   7.878  17.013  0.00  0.00    +0.000 A 
ATOM      4  C   UNL     1       3.779   6.572  17.405  0.00  0.00    +0.000 A 
ATOM      5 CL   UNL     1       4.903   5.758  16.367  0.00  0.00    +0.000 Cl
ATOM      6  C   UNL     1       3.240   6.016  18.586  0.00  0.00    +0.000 A 
ATOM      7  C   UNL     1       2.402   6.869  19.358  0.00  0.00    +0.000 A 
ENDROOT
BRANCH   6   8
ATOM      8  C   UNL     1       3.594   4.580  19.065  0.00  0.00    +0.000 C 
ATOM      9  N   UNL     1       2.594   4.160  20.070  0.00  0.00    +0.000 NA
ATOM     10  C   UNL     1       1.492   3.645  19.661  0.00  0.00    +0.000 C 
ATOM     11  N   UNL     1       0.444   3.412  20.481  0.00  0.00    +0.000 N 
ATOM     12  O   UNL     1       1.238   3.214  18.401  0.00  0.00    +0.000 OA
ATOM     13  C   UNL     1       2.347   2.956  17.524  0.00  0.00    +0.000 C 
ATOM     14  C   UNL     1       3.448   2.091  18.079  0.00  0.00    +0.000 C 
ATOM     15  C   UNL     1       3.640   3.586  17.916  0.00  0.00    +0.000 C 
ATOM     16  H   UNL     1       0.684   3.401  21.463  0.00  0.00    +0.000 HD
ATOM     17  H   UNL     1      -0.194   2.692  20.172  0.00  0.00    +0.000 HD
BRANCH   8  18
ATOM     18  C   UNL     1       5.001   4.525  19.726  0.00  0.00    +0.000 C 
ATOM     19  F   UNL     1       5.939   4.156  18.804  0.00  0.00    +0.000 F 
ENDBRANCH   8  18
ENDBRANCH   6   8
BRANCH   1  22
ATOM     20  C   UNL     1       1.018  10.300  19.779  0.00  0.00    +0.000 C 
ATOM     21  O   UNL     1       1.581  11.095  19.037  0.00  0.00    +0.000 OA
ATOM     22  N   UNL     1       1.208   8.925  19.789  0.00  0.00    +0.000 N 
ATOM     23  H   UNL     1       0.603   8.425  20.437  0.00  0.00    +0.000 HD
BRANCH  20  30
ATOM     24  C   UNL     1       0.854   9.271  22.655  0.00  0.00    +0.000 C 
ATOM     25  C   UNL     1      -0.083  10.297  22.091  0.00  0.00    +0.000 A 
ATOM     26  C   UNL     1      -1.092  10.817  22.914  0.00  0.00    +0.000 A 
ATOM     27  C   UNL     1      -1.981  11.782  22.435  0.00  0.00    +0.000 A 
ATOM     28  C   UNL     1      -1.835  12.187  21.116  0.00  0.00    +0.000 A 
ATOM     29  N   UNL     1      -0.879  11.720  20.279  0.00  0.00    +0.000 NA
ATOM     30  C   UNL     1      -0.018  10.777  20.775  0.00  0.00    +0.000 A 
BRANCH  27  31
ATOM     31  C   UNL     1      -3.076  12.335  23.295  0.00  0.00    +0.000 C 
ATOM     32  F   UNL     1      -4.231  12.555  22.606  0.00  0.00    +0.000 F 
ATOM     33  F   UNL     1      -3.412  11.505  24.321  0.00  0.00    +0.000 F 
ENDBRANCH  27  31
ENDBRANCH  20  30
ENDBRANCH   1  22
TORSDOF 5
ENDMDL
MODEL 6
REMARK VINA RESULT:      -8.0      3.103      4.261
REMARK  Name = 
REMARK  6 active torsions:
REMARK  status: ('A' for Active; 'I' for Inactive)
REMARK    1  A    between atoms: C_1  and  C_2
REMARK    2  A    between atoms: C_4  and  C_5
REMARK    3  A    between atoms: C_10  and  C_11
REMARK    4  A    between atoms: N_13  and  C_14
REMARK    5  A    between atoms: C_19  and  C_20
REMARK    6  A    between atoms: C_20  and  C_21
REMARK                            x       y       z     vdW  Elec       q    Type
REMARK                         _______ _______ _______ _____ _____    ______ ____
ROOT
ATOM      1  C   UNL     1       2.455   7.484  18.991  0.00  0.00    +0.000 A 
ATOM      2  C   UNL     1       2.021   6.518  19.889  0.00  0.00    +0.000 A 
ATOM      3  C   UNL     1       2.619   5.259  19.907  0.00  0.00    +0.000 A 
ATOM      4  C   UNL     1       3.668   4.947  19.035  0.00  0.00    +0.000 A 
ATOM      5 CL   UNL     1       4.243   3.316  19.148  0.00  0.00    +0.000 Cl
ATOM      6  C   UNL     1       4.159   5.901  18.116  0.00  0.00    +0.000 A 
ATOM      7  C   UNL     1       3.502   7.163  18.108  0.00  0.00    +0.000 A 
ENDROOT
BRANCH   6   8
ATOM      8  C   UNL     1       5.305   5.579  17.115  0.00  0.00    +0.000 C 
ATOM      9  N   UNL     1       5.969   6.845  16.738  0.00  0.00    +0.000 NA
ATOM     10  C   UNL     1       6.897   7.301  17.498  0.00  0.00    +0.000 C 
ATOM     11  N   UNL     1       7.426   8.535  17.349  0.00  0.00    +0.000 N 
ATOM     12  O   UNL     1       7.512   6.618  18.495  0.00  0.00    +0.000 OA
ATOM     13  C   UNL     1       7.419   5.184  18.508  0.00  0.00    +0.000 C 
ATOM     14  C   UNL     1       7.750   4.483  17.216  0.00  0.00    +0.000 C 
ATOM     15  C   UNL     1       6.314   4.602  17.692  0.00  0.00    +0.000 C 
ATOM     16  H   UNL     1       7.250   8.952  16.445  0.00  0.00    +0.000 HD
ATOM     17  H   UNL     1       8.358   8.653  17.718  0.00  0.00    +0.000 HD
BRANCH   8  18
ATOM     18  C   UNL     1       4.763   4.909  15.819  0.00  0.00    +0.000 C 
ATOM     19  F   UNL     1       5.469   5.345  14.735  0.00  0.00    +0.000 F 
ENDBRANCH   8  18
ENDBRANCH   6   8
BRANCH   1  22
ATOM     20  C   UNL     1       0.992   9.353  19.799  0.00  0.00    +0.000 C 
ATOM     21  O   UNL     1       0.532   8.820  20.801  0.00  0.00    +0.000 OA
ATOM     22  N   UNL     1       1.894   8.776  18.915  0.00  0.00    +0.000 N 
ATOM     23  H   UNL     1       2.207   9.399  18.174  0.00  0.00    +0.000 HD
BRANCH  20  30
ATOM     24  C   UNL     1      -1.373  10.076  17.998  0.00  0.00    +0.000 C 
ATOM     25  C   UNL     1      -0.465  11.096  18.618  0.00  0.00    +0.000 A 
ATOM     26  C   UNL     1      -0.701  12.455  18.364  0.00  0.00    +0.000 A 
ATOM     27  C   UNL     1       0.113  13.441  18.929  0.00  0.00    +0.000 A 
ATOM     28  C   UNL     1       1.164  13.020  19.729  0.00  0.00    +0.000 A 
ATOM     29  N   UNL     1       1.436  11.724  20.009  0.00  0.00    +0.000 NA
ATOM     30  C   UNL     1       0.621  10.778  19.445  0.00  0.00    +0.000 A 
BRANCH  27  31
ATOM     31  C   UNL     1      -0.114  14.895  18.653  0.00  0.00    +0.000 C 
ATOM     32  F   UNL     1      -1.061  15.447  19.463  0.00  0.00    +0.000 F 
ATOM     33  F   UNL     1       1.007  15.649  18.832  0.00  0.00    +0.000 F 
ENDBRANCH  27  31
ENDBRANCH  20  30
ENDBRANCH   1  22
TORSDOF 5
ENDMDL
MODEL 7
REMARK VINA RESULT:      -8.0      1.738      2.118
REMARK  Name = 
REMARK  6 active torsions:
REMARK  status: ('A' for Active; 'I' for Inactive)
REMARK    1  A    between atoms: C_1  and  C_2
REMARK    2  A    between atoms: C_4  and  C_5
REMARK    3  A    between atoms: C_10  and  C_11
REMARK    4  A    between atoms: N_13  and  C_14
REMARK    5  A    between atoms: C_19  and  C_20
REMARK    6  A    between atoms: C_20  and  C_21
REMARK                            x       y       z     vdW  Elec       q    Type
REMARK                         _______ _______ _______ _____ _____    ______ ____
ROOT
ATOM      1  C   UNL     1       2.707   7.227  18.460  0.00  0.00    +0.000 A 
ATOM      2  C   UNL     1       3.803   7.532  17.663  0.00  0.00    +0.000 A 
ATOM      3  C   UNL     1       4.598   6.511  17.145  0.00  0.00    +0.000 A 
ATOM      4  C   UNL     1       4.306   5.167  17.406  0.00  0.00    +0.000 A 
ATOM      5 CL   UNL     1       5.440   4.037  16.741  0.00  0.00    +0.000 Cl
ATOM      6  C   UNL     1       3.191   4.804  18.194  0.00  0.00    +0.000 A 
ATOM      7  C   UNL     1       2.424   5.876  18.729  0.00  0.00    +0.000 A 
ENDROOT
BRANCH   6   8
ATOM      8  C   UNL     1       2.854   3.323  18.526  0.00  0.00    +0.000 C 
ATOM      9  N   UNL     1       3.118   3.091  19.962  0.00  0.00    +0.000 NA
ATOM     10  C   UNL     1       2.201   3.386  20.810  0.00  0.00    +0.000 C 
ATOM     11  N   UNL     1       2.413   3.395  22.144  0.00  0.00    +0.000 N 
ATOM     12  O   UNL     1       0.908   3.664  20.514  0.00  0.00    +0.000 OA
ATOM     13  C   UNL     1       0.391   3.264  19.234  0.00  0.00    +0.000 C 
ATOM     14  C   UNL     1       0.645   1.835  18.831  0.00  0.00    +0.000 C 
ATOM     15  C   UNL     1       1.415   2.973  18.188  0.00  0.00    +0.000 C 
ATOM     16  H   UNL     1       3.238   2.887  22.434  0.00  0.00    +0.000 HD
ATOM     17  H   UNL     1       1.589   3.264  22.713  0.00  0.00    +0.000 HD
BRANCH   8  18
ATOM     18  C   UNL     1       3.732   2.336  17.704  0.00  0.00    +0.000 C 
ATOM     19  F   UNL     1       3.802   1.129  18.340  0.00  0.00    +0.000 F 
ENDBRANCH   8  18
ENDBRANCH   6   8
BRANCH   1  22
ATOM     20  C   UNL     1       1.536   9.444  18.476  0.00  0.00    +0.000 C 
ATOM     21  O   UNL     1       1.940   9.885  17.407  0.00  0.00    +0.000 OA
ATOM     22  N   UNL     1       1.862   8.208  19.019  0.00  0.00    +0.000 N 
ATOM     23  H   UNL     1       1.379   7.994  19.889  0.00  0.00    +0.000 HD
BRANCH  20  30
ATOM     24  C   UNL     1      -1.329  10.068  17.604  0.00  0.00    +0.000 C 
ATOM     25  C   UNL     1      -0.747  10.521  18.910  0.00  0.00    +0.000 A 
ATOM     26  C   UNL     1      -1.546  11.271  19.784  0.00  0.00    +0.000 A 
ATOM     27  C   UNL     1      -1.049  11.705  21.015  0.00  0.00    +0.000 A 
ATOM     28  C   UNL     1       0.263  11.380  21.325  0.00  0.00    +0.000 A 
ATOM     29  N   UNL     1       1.077  10.657  20.521  0.00  0.00    +0.000 NA
ATOM     30  C   UNL     1       0.564  10.241  19.321  0.00  0.00    +0.000 A 
BRANCH  27  31
ATOM     31  C   UNL     1      -1.884  12.523  21.952  0.00  0.00    +0.000 C 
ATOM     32  F   UNL     1      -3.221  12.339  21.767  0.00  0.00    +0.000 F 
ATOM     33  F   UNL     1      -1.650  12.231  23.262  0.00  0.00    +0.000 F 
ENDBRANCH  27  31
ENDBRANCH  20  30
ENDBRANCH   1  22
TORSDOF 5
ENDMDL
MODEL 8
REMARK VINA RESULT:      -8.0      2.260      2.924
REMARK  Name = 
REMARK  6 active torsions:
REMARK  status: ('A' for Active; 'I' for Inactive)
REMARK    1  A    between atoms: C_1  and  C_2
REMARK    2  A    between atoms: C_4  and  C_5
REMARK    3  A    between atoms: C_10  and  C_11
REMARK    4  A    between atoms: N_13  and  C_14
REMARK    5  A    between atoms: C_19  and  C_20
REMARK    6  A    between atoms: C_20  and  C_21
REMARK                            x       y       z     vdW  Elec       q    Type
REMARK                         _______ _______ _______ _____ _____    ______ ____
ROOT
ATOM      1  C   UNL     1       2.544   7.700  18.668  0.00  0.00    +0.000 A 
ATOM      2  C   UNL     1       3.154   8.125  17.495  0.00  0.00    +0.000 A 
ATOM      3  C   UNL     1       3.996   7.265  16.793  0.00  0.00    +0.000 A 
ATOM      4  C   UNL     1       4.236   5.962  17.245  0.00  0.00    +0.000 A 
ATOM      5 CL   UNL     1       5.362   5.058  16.286  0.00  0.00    +0.000 Cl
ATOM      6  C   UNL     1       3.623   5.476  18.421  0.00  0.00    +0.000 A 
ATOM      7  C   UNL     1       2.796   6.395  19.125  0.00  0.00    +0.000 A 
ENDROOT
BRANCH   6   8
ATOM      8  C   UNL     1       3.888   4.043  18.966  0.00  0.00    +0.000 C 
ATOM      9  N   UNL     1       2.935   3.775  20.063  0.00  0.00    +0.000 NA
ATOM     10  C   UNL     1       1.766   3.338  19.767  0.00  0.00    +0.000 C 
ATOM     11  N   UNL     1       0.766   3.247  20.672  0.00  0.00    +0.000 N 
ATOM     12  O   UNL     1       1.381   2.859  18.558  0.00  0.00    +0.000 OA
ATOM     13  C   UNL     1       2.394   2.452  17.624  0.00  0.00    +0.000 C 
ATOM     14  C   UNL     1       3.456   1.525  18.155  0.00  0.00    +0.000 C 
ATOM     15  C   UNL     1       3.763   2.985  17.883  0.00  0.00    +0.000 C 
ATOM     16  H   UNL     1       1.078   3.272  21.633  0.00  0.00    +0.000 HD
ATOM     17  H   UNL     1       0.048   2.571  20.456  0.00  0.00    +0.000 HD
BRANCH   8  18
ATOM     18  C   UNL     1       5.332   3.901  19.528  0.00  0.00    +0.000 C 
ATOM     19  F   UNL     1       5.897   5.134  19.687  0.00  0.00    +0.000 F 
ENDBRANCH   8  18
ENDBRANCH   6   8
BRANCH   1  22
ATOM     20  C   UNL     1       1.082   8.203  20.642  0.00  0.00    +0.000 C 
ATOM     21  O   UNL     1       1.204   7.146  21.248  0.00  0.00    +0.000 OA
ATOM     22  N   UNL     1       1.684   8.518  19.431  0.00  0.00    +0.000 N 
ATOM     23  H   UNL     1       1.510   9.469  19.114  0.00  0.00    +0.000 HD
BRANCH  20  30
ATOM     24  C   UNL     1      -0.130  10.433  18.936  0.00  0.00    +0.000 C 
ATOM     25  C   UNL     1      -0.303  10.346  20.423  0.00  0.00    +0.000 A 
ATOM     26  C   UNL     1      -1.055  11.332  21.076  0.00  0.00    +0.000 A 
ATOM     27  C   UNL     1      -1.251  11.285  22.459  0.00  0.00    +0.000 A 
ATOM     28  C   UNL     1      -0.660  10.240  23.152  0.00  0.00    +0.000 A 
ATOM     29  N   UNL     1       0.073   9.260  22.573  0.00  0.00    +0.000 NA
ATOM     30  C   UNL     1       0.247   9.329  21.216  0.00  0.00    +0.000 A 
BRANCH  27  31
ATOM     31  C   UNL     1      -2.036  12.341  23.175  0.00  0.00    +0.000 C 
ATOM     32  F   UNL     1      -2.618  13.235  22.327  0.00  0.00    +0.000 F 
ATOM     33  F   UNL     1      -3.051  11.830  23.924  0.00  0.00    +0.000 F 
ENDBRANCH  27  31
ENDBRANCH  20  30
ENDBRANCH   1  22
TORSDOF 5
ENDMDL
MODEL 9
REMARK VINA RESULT:      -8.0      2.165      2.767
REMARK  Name = 
REMARK  6 active torsions:
REMARK  status: ('A' for Active; 'I' for Inactive)
REMARK    1  A    between atoms: C_1  and  C_2
REMARK    2  A    between atoms: C_4  and  C_5
REMARK    3  A    between atoms: C_10  and  C_11
REMARK    4  A    between atoms: N_13  and  C_14
REMARK    5  A    between atoms: C_19  and  C_20
REMARK    6  A    between atoms: C_20  and  C_21
REMARK                            x       y       z     vdW  Elec       q    Type
REMARK                         _______ _______ _______ _____ _____    ______ ____
ROOT
ATOM      1  C   UNL     1       2.739   7.585  18.233  0.00  0.00    +0.000 A 
ATOM      2  C   UNL     1       3.496   7.898  17.111  0.00  0.00    +0.000 A 
ATOM      3  C   UNL     1       4.376   6.960  16.576  0.00  0.00    +0.000 A 
ATOM      4  C   UNL     1       4.509   5.688  17.147  0.00  0.00    +0.000 A 
ATOM      5 CL   UNL     1       5.699   4.678  16.395  0.00  0.00    +0.000 Cl
ATOM      6  C   UNL     1       3.748   5.315  18.276  0.00  0.00    +0.000 A 
ATOM      7  C   UNL     1       2.884   6.312  18.811  0.00  0.00    +0.000 A 
ENDROOT
BRANCH   6   8
ATOM      8  C   UNL     1       3.890   3.921  18.952  0.00  0.00    +0.000 C 
ATOM      9  N   UNL     1       2.854   3.798  19.998  0.00  0.00    +0.000 NA
ATOM     10  C   UNL     1       1.682   3.402  19.657  0.00  0.00    +0.000 C 
ATOM     11  N   UNL     1       0.622   3.442  20.494  0.00  0.00    +0.000 N 
ATOM     12  O   UNL     1       1.349   2.844  18.467  0.00  0.00    +0.000 OA
ATOM     13  C   UNL     1       2.394   2.305  17.641  0.00  0.00    +0.000 C 
ATOM     14  C   UNL     1       3.363   1.370  18.318  0.00  0.00    +0.000 C 
ATOM     15  C   UNL     1       3.773   2.784  17.952  0.00  0.00    +0.000 C 
ATOM     16  H   UNL     1       0.872   3.531  21.470  0.00  0.00    +0.000 HD
ATOM     17  H   UNL     1      -0.119   2.790  20.283  0.00  0.00    +0.000 HD
BRANCH   8  18
ATOM     18  C   UNL     1       5.284   3.749  19.624  0.00  0.00    +0.000 C 
ATOM     19  F   UNL     1       5.892   4.964  19.760  0.00  0.00    +0.000 F 
ENDBRANCH   8  18
ENDBRANCH   6   8
BRANCH   1  22
ATOM     20  C   UNL     1       1.590   9.803  18.458  0.00  0.00    +0.000 C 
ATOM     21  O   UNL     1       2.137  10.399  17.539  0.00  0.00    +0.000 OA
ATOM     22  N   UNL     1       1.832   8.487  18.829  0.00  0.00    +0.000 N 
ATOM     23  H   UNL     1       1.235   8.148  19.580  0.00  0.00    +0.000 HD
BRANCH  20  30
ATOM     24  C   UNL     1      -1.321  10.055  17.553  0.00  0.00    +0.000 C 
ATOM     25  C   UNL     1      -0.814  10.589  18.860  0.00  0.00    +0.000 A 
ATOM     26  C   UNL     1      -1.710  11.240  19.718  0.00  0.00    +0.000 A 
ATOM     27  C   UNL     1      -1.284  11.744  20.950  0.00  0.00    +0.000 A 
ATOM     28  C   UNL     1       0.055  11.589  21.275  0.00  0.00    +0.000 A 
ATOM     29  N   UNL     1       0.962  10.967  20.486  0.00  0.00    +0.000 NA
ATOM     30  C   UNL     1       0.517  10.479  19.286  0.00  0.00    +0.000 A 
BRANCH  27  31
ATOM     31  C   UNL     1      -2.224  12.460  21.871  0.00  0.00    +0.000 C 
ATOM     32  F   UNL     1      -1.881  13.764  22.070  0.00  0.00    +0.000 F 
ATOM     33  F   UNL     1      -3.504  12.484  21.406  0.00  0.00    +0.000 F 
ENDBRANCH  27  31
ENDBRANCH  20  30
ENDBRANCH   1  22
TORSDOF 5
ENDMDL
