MODEL 1
REMARK VINA RESULT:      -6.9      0.000      0.000
REMARK  Name = 
REMARK  5 active torsions:
REMARK  status: ('A' for Active; 'I' for Inactive)
REMARK    1  A    between atoms: C_2  and  C_3
REMARK    2  A    between atoms: C_3  and  N_4
REMARK    3  A    between atoms: C_5  and  C_7
REMARK    4  A    between atoms: N_12  and  N_13
REMARK    5  A    between atoms: C_14  and  C_15
REMARK                            x       y       z     vdW  Elec       q    Type
REMARK                         _______ _______ _______ _____ _____    ______ ____
ROOT
ATOM      1  O   UNL     1       6.389   5.700  19.784  0.00  0.00    +0.000 OA
ATOM      2  C   UNL     1       6.704   4.999  18.824  0.00  0.00    +0.000 C 
ATOM      3  N   UNL     1       6.066   3.828  18.434  0.00  0.00    +0.000 N 
ATOM      4  H   UNL     1       6.279   3.413  17.527  0.00  0.00    +0.000 HD
ENDROOT
BRANCH   3   5
ATOM      5  N   UNL     1       5.048   3.337  19.200  0.00  0.00    +0.000 NA
ATOM      6  C   UNL     1       3.913   3.959  19.119  0.00  0.00    +0.000 C 
BRANCH   6   7
ATOM      7  C   UNL     1       2.781   3.505  19.889  0.00  0.00    +0.000 A 
ATOM      8  C   UNL     1       2.743   3.063  21.196  0.00  0.00    +0.000 A 
ATOM      9  C   UNL     1       1.430   2.681  21.601  0.00  0.00    +0.000 A 
ATOM     10  C   UNL     1       0.512   2.845  20.589  0.00  0.00    +0.000 A 
ATOM     11  S   UNL     1       1.231   3.465  19.165  0.00  0.00    +0.000 S 
ENDBRANCH   6   7
ENDBRANCH   3   5
BRANCH   2  12
ATOM     12  C   UNL     1       7.830   5.409  17.880  0.00  0.00    +0.000 C 
BRANCH  12  13
ATOM     13  N   UNL     1       7.609   4.877  16.554  0.00  0.00    +0.000 N 
ATOM     14  C   UNL     1       6.778   5.500  15.651  0.00  0.00    +0.000 C 
ATOM     15  O   UNL     1       6.179   6.534  15.941  0.00  0.00    +0.000 OA
ATOM     16  H   UNL     1       8.213   4.140  16.205  0.00  0.00    +0.000 HD
BRANCH  14  17
ATOM     17  C   UNL     1       6.697   4.842  14.363  0.00  0.00    +0.000 A 
ATOM     18  C   UNL     1       5.887   3.817  13.911  0.00  0.00    +0.000 A 
ATOM     19  C   UNL     1       6.247   3.574  12.563  0.00  0.00    +0.000 A 
ATOM     20  C   UNL     1       7.256   4.461  12.271  0.00  0.00    +0.000 A 
ATOM     21  O   UNL     1       7.541   5.231  13.353  0.00  0.00    +0.000 OA
ENDBRANCH  14  17
ENDBRANCH  12  13
ENDBRANCH   2  12
TORSDOF 5
ENDMDL
MODEL 2
REMARK VINA RESULT:      -6.8      0.943      1.116
REMARK  Name = 
REMARK  5 active torsions:
REMARK  status: ('A' for Active; 'I' for Inactive)
REMARK    1  A    between atoms: C_2  and  C_3
REMARK    2  A    between atoms: C_3  and  N_4
REMARK    3  A    between atoms: C_5  and  C_7
REMARK    4  A    between atoms: N_12  and  N_13
REMARK    5  A    between atoms: C_14  and  C_15
REMARK                            x       y       z     vdW  Elec       q    Type
REMARK                         _______ _______ _______ _____ _____    ______ ____
ROOT
ATOM      1  O   UNL     1       5.921   6.098  18.535  0.00  0.00    +0.000 OA
ATOM      2  C   UNL     1       6.532   5.068  18.259  0.00  0.00    +0.000 C 
ATOM      3  N   UNL     1       6.161   3.783  18.638  0.00  0.00    +0.000 N 
ATOM      4  H   UNL     1       6.621   2.977  18.215  0.00  0.00    +0.000 HD
ENDROOT
BRANCH   3   5
ATOM      5  N   UNL     1       5.077   3.615  19.451  0.00  0.00    +0.000 NA
ATOM      6  C   UNL     1       3.938   3.421  18.863  0.00  0.00    +0.000 C 
BRANCH   6   7
ATOM      7  C   UNL     1       2.741   3.227  19.644  0.00  0.00    +0.000 A 
ATOM      8  C   UNL     1       1.425   3.421  19.277  0.00  0.00    +0.000 A 
ATOM      9  C   UNL     1       0.517   3.137  20.339  0.00  0.00    +0.000 A 
ATOM     10  C   UNL     1       1.173   2.734  21.481  0.00  0.00    +0.000 A 
ATOM     11  S   UNL     1       2.871   2.693  21.265  0.00  0.00    +0.000 S 
ENDBRANCH   6   7
ENDBRANCH   3   5
BRANCH   2  12
ATOM     12  C   UNL     1       7.769   5.094  17.368  0.00  0.00    +0.000 C 
BRANCH  12  13
ATOM     13  N   UNL     1       7.478   4.536  16.067  0.00  0.00    +0.000 N 
ATOM     14  C   UNL     1       6.681   5.193  15.157  0.00  0.00    +0.000 C 
ATOM     15  O   UNL     1       6.173   6.281  15.421  0.00  0.00    +0.000 OA
ATOM     16  H   UNL     1       8.013   3.740  15.734  0.00  0.00    +0.000 HD
BRANCH  14  17
ATOM     17  C   UNL     1       6.520   4.499  13.896  0.00  0.00    +0.000 A 
ATOM     18  C   UNL     1       5.563   3.600  13.464  0.00  0.00    +0.000 A 
ATOM     19  C   UNL     1       5.905   3.242  12.137  0.00  0.00    +0.000 A 
ATOM     20  C   UNL     1       7.051   3.939  11.837  0.00  0.00    +0.000 A 
ATOM     21  O   UNL     1       7.436   4.701  12.894  0.00  0.00    +0.000 OA
ENDBRANCH  14  17
ENDBRANCH  12  13
ENDBRANCH   2  12
TORSDOF 5
ENDMDL
MODEL 3
REMARK VINA RESULT:      -6.8      4.902      7.772
REMARK  Name = 
REMARK  5 active torsions:
REMARK  status: ('A' for Active; 'I' for Inactive)
REMARK    1  A    between atoms: C_2  and  C_3
REMARK    2  A    between atoms: C_3  and  N_4
REMARK    3  A    between atoms: C_5  and  C_7
REMARK    4  A    between atoms: N_12  and  N_13
REMARK    5  A    between atoms: C_14  and  C_15
REMARK                            x       y       z     vdW  Elec       q    Type
REMARK                         _______ _______ _______ _____ _____    ______ ____
ROOT
ATOM      1  O   UNL     1       7.533   6.213  18.601  0.00  0.00    +0.000 OA
ATOM      2  C   UNL     1       7.134   6.898  17.662  0.00  0.00    +0.000 C 
ATOM      3  N   UNL     1       7.566   8.184  17.360  0.00  0.00    +0.000 N 
ATOM      4  H   UNL     1       7.318   8.605  16.464  0.00  0.00    +0.000 HD
ENDROOT
BRANCH   3   5
ATOM      5  N   UNL     1       8.447   8.805  18.197  0.00  0.00    +0.000 NA
ATOM      6  C   UNL     1       8.556  10.091  18.070  0.00  0.00    +0.000 C 
BRANCH   6   7
ATOM      7  C   UNL     1       9.460  10.830  18.917  0.00  0.00    +0.000 A 
ATOM      8  C   UNL     1       9.416  11.005  20.286  0.00  0.00    +0.000 A 
ATOM      9  C   UNL     1      10.484  11.821  20.763  0.00  0.00    +0.000 A 
ATOM     10  C   UNL     1      11.306  12.240  19.741  0.00  0.00    +0.000 A 
ATOM     11  S   UNL     1      10.794  11.643  18.220  0.00  0.00    +0.000 S 
ENDBRANCH   6   7
ENDBRANCH   3   5
BRANCH   2  12
ATOM     12  C   UNL     1       6.139   6.347  16.645  0.00  0.00    +0.000 C 
BRANCH  12  13
ATOM     13  N   UNL     1       4.977   5.800  17.308  0.00  0.00    +0.000 N 
ATOM     14  C   UNL     1       4.586   4.493  17.127  0.00  0.00    +0.000 C 
ATOM     15  O   UNL     1       5.208   3.737  16.382  0.00  0.00    +0.000 OA
ATOM     16  H   UNL     1       4.543   6.320  18.064  0.00  0.00    +0.000 HD
BRANCH  14  17
ATOM     17  C   UNL     1       3.417   4.110  17.890  0.00  0.00    +0.000 A 
ATOM     18  C   UNL     1       2.075   4.381  17.703  0.00  0.00    +0.000 A 
ATOM     19  C   UNL     1       1.376   3.752  18.761  0.00  0.00    +0.000 A 
ATOM     20  C   UNL     1       2.330   3.137  19.535  0.00  0.00    +0.000 A 
ATOM     21  O   UNL     1       3.570   3.348  19.022  0.00  0.00    +0.000 OA
ENDBRANCH  14  17
ENDBRANCH  12  13
ENDBRANCH   2  12
TORSDOF 5
ENDMDL
MODEL 4
REMARK VINA RESULT:      -6.8      4.820      7.760
REMARK  Name = 
REMARK  5 active torsions:
REMARK  status: ('A' for Active; 'I' for Inactive)
REMARK    1  A    between atoms: C_2  and  C_3
REMARK    2  A    between atoms: C_3  and  N_4
REMARK    3  A    between atoms: C_5  and  C_7
REMARK    4  A    between atoms: N_12  and  N_13
REMARK    5  A    between atoms: C_14  and  C_15
REMARK                            x       y       z     vdW  Elec       q    Type
REMARK                         _______ _______ _______ _____ _____    ______ ____
ROOT
ATOM      1  O   UNL     1       7.845   6.293  18.487  0.00  0.00    +0.000 OA
ATOM      2  C   UNL     1       7.299   7.032  17.670  0.00  0.00    +0.000 C 
ATOM      3  N   UNL     1       7.629   8.361  17.437  0.00  0.00    +0.000 N 
ATOM      4  H   UNL     1       7.250   8.842  16.621  0.00  0.00    +0.000 HD
ENDROOT
BRANCH   3   5
ATOM      5  N   UNL     1       8.581   8.959  18.212  0.00  0.00    +0.000 NA
ATOM      6  C   UNL     1       8.704  10.244  18.089  0.00  0.00    +0.000 C 
BRANCH   6   7
ATOM      7  C   UNL     1       9.680  10.958  18.874  0.00  0.00    +0.000 A 
ATOM      8  C   UNL     1      10.901  11.471  18.482  0.00  0.00    +0.000 A 
ATOM      9  C   UNL     1      11.594  12.102  19.556  0.00  0.00    +0.000 A 
ATOM     10  C   UNL     1      10.878  12.048  20.732  0.00  0.00    +0.000 A 
ATOM     11  S   UNL     1       9.377  11.249  20.532  0.00  0.00    +0.000 S 
ENDBRANCH   6   7
ENDBRANCH   3   5
BRANCH   2  12
ATOM     12  C   UNL     1       6.209   6.514  16.738  0.00  0.00    +0.000 C 
BRANCH  12  13
ATOM     13  N   UNL     1       5.655   5.274  17.234  0.00  0.00    +0.000 N 
ATOM     14  C   UNL     1       4.347   5.179  17.651  0.00  0.00    +0.000 C 
ATOM     15  O   UNL     1       3.596   6.153  17.628  0.00  0.00    +0.000 OA
ATOM     16  H   UNL     1       6.170   4.409  17.103  0.00  0.00    +0.000 HD
BRANCH  14  17
ATOM     17  C   UNL     1       3.957   3.855  18.091  0.00  0.00    +0.000 A 
ATOM     18  C   UNL     1       3.049   2.951  17.572  0.00  0.00    +0.000 A 
ATOM     19  C   UNL     1       3.074   1.814  18.415  0.00  0.00    +0.000 A 
ATOM     20  C   UNL     1       3.991   2.089  19.400  0.00  0.00    +0.000 A 
ATOM     21  O   UNL     1       4.530   3.323  19.219  0.00  0.00    +0.000 OA
ENDBRANCH  14  17
ENDBRANCH  12  13
ENDBRANCH   2  12
TORSDOF 5
ENDMDL
MODEL 5
REMARK VINA RESULT:      -6.8      5.114      7.381
REMARK  Name = 
REMARK  5 active torsions:
REMARK  status: ('A' for Active; 'I' for Inactive)
REMARK    1  A    between atoms: C_2  and  C_3
REMARK    2  A    between atoms: C_3  and  N_4
REMARK    3  A    between atoms: C_5  and  C_7
REMARK    4  A    between atoms: N_12  and  N_13
REMARK    5  A    between atoms: C_14  and  C_15
REMARK                            x       y       z     vdW  Elec       q    Type
REMARK                         _______ _______ _______ _____ _____    ______ ____
ROOT
ATOM      1  O   UNL     1       8.170   6.689  18.366  0.00  0.00    +0.000 OA
ATOM      2  C   UNL     1       7.364   7.473  17.870  0.00  0.00    +0.000 C 
ATOM      3  N   UNL     1       7.537   8.847  17.759  0.00  0.00    +0.000 N 
ATOM      4  H   UNL     1       6.904   9.393  17.175  0.00  0.00    +0.000 HD
ENDROOT
BRANCH   3   5
ATOM      5  N   UNL     1       8.647   9.425  18.306  0.00  0.00    +0.000 NA
ATOM      6  C   UNL     1       8.877  10.659  17.978  0.00  0.00    +0.000 C 
BRANCH   6   7
ATOM      7  C   UNL     1      10.024  11.350  18.513  0.00  0.00    +0.000 A 
ATOM      8  C   UNL     1      10.653  11.173  19.729  0.00  0.00    +0.000 A 
ATOM      9  C   UNL     1      11.752  12.064  19.906  0.00  0.00    +0.000 A 
ATOM     10  C   UNL     1      11.924  12.890  18.817  0.00  0.00    +0.000 A 
ATOM     11  S   UNL     1      10.771  12.582  17.590  0.00  0.00    +0.000 S 
ENDBRANCH   6   7
ENDBRANCH   3   5
BRANCH   2  12
ATOM     12  C   UNL     1       6.071   6.981  17.228  0.00  0.00    +0.000 C 
BRANCH  12  13
ATOM     13  N   UNL     1       6.324   6.436  15.914  0.00  0.00    +0.000 N 
ATOM     14  C   UNL     1       6.446   5.082  15.700  0.00  0.00    +0.000 C 
ATOM     15  O   UNL     1       6.354   4.277  16.626  0.00  0.00    +0.000 OA
ATOM     16  H   UNL     1       6.226   7.032  15.099  0.00  0.00    +0.000 HD
BRANCH  14  17
ATOM     17  C   UNL     1       6.671   4.714  14.317  0.00  0.00    +0.000 A 
ATOM     18  C   UNL     1       6.073   3.760  13.517  0.00  0.00    +0.000 A 
ATOM     19  C   UNL     1       6.694   3.840  12.247  0.00  0.00    +0.000 A 
ATOM     20  C   UNL     1       7.636   4.836  12.346  0.00  0.00    +0.000 A 
ATOM     21  O   UNL     1       7.636   5.371  13.594  0.00  0.00    +0.000 OA
ENDBRANCH  14  17
ENDBRANCH  12  13
ENDBRANCH   2  12
TORSDOF 5
ENDMDL
MODEL 6
REMARK VINA RESULT:      -6.8      4.708      5.953
REMARK  Name = 
REMARK  5 active torsions:
REMARK  status: ('A' for Active; 'I' for Inactive)
REMARK    1  A    between atoms: C_2  and  C_3
REMARK    2  A    between atoms: C_3  and  N_4
REMARK    3  A    between atoms: C_5  and  C_7
REMARK    4  A    between atoms: N_12  and  N_13
REMARK    5  A    between atoms: C_14  and  C_15
REMARK                            x       y       z     vdW  Elec       q    Type
REMARK                         _______ _______ _______ _____ _____    ______ ____
ROOT
ATOM      1  O   UNL     1       0.992   4.414  20.690  0.00  0.00    +0.000 OA
ATOM      2  C   UNL     1       1.900   5.010  20.115  0.00  0.00    +0.000 C 
ATOM      3  N   UNL     1       2.181   6.365  20.237  0.00  0.00    +0.000 N 
ATOM      4  H   UNL     1       3.057   6.736  19.869  0.00  0.00    +0.000 HD
ENDROOT
BRANCH   3   5
ATOM      5  N   UNL     1       1.356   7.152  20.989  0.00  0.00    +0.000 NA
ATOM      6  C   UNL     1       1.453   8.432  20.803  0.00  0.00    +0.000 C 
BRANCH   6   7
ATOM      7  C   UNL     1       0.616   9.338  21.550  0.00  0.00    +0.000 A 
ATOM      8  C   UNL     1      -0.135   9.091  22.683  0.00  0.00    +0.000 A 
ATOM      9  C   UNL     1      -0.848  10.245  23.122  0.00  0.00    +0.000 A 
ATOM     10  C   UNL     1      -0.618  11.332  22.310  0.00  0.00    +0.000 A 
ATOM     11  S   UNL     1       0.460  10.961  21.033  0.00  0.00    +0.000 S 
ENDBRANCH   6   7
ENDBRANCH   3   5
BRANCH   2  12
ATOM     12  C   UNL     1       2.898   4.269  19.231  0.00  0.00    +0.000 C 
BRANCH  12  13
ATOM     13  N   UNL     1       4.027   5.114  18.911  0.00  0.00    +0.000 N 
ATOM     14  C   UNL     1       5.325   4.679  19.057  0.00  0.00    +0.000 C 
ATOM     15  O   UNL     1       5.577   3.551  19.478  0.00  0.00    +0.000 OA
ATOM     16  H   UNL     1       3.876   5.974  18.393  0.00  0.00    +0.000 HD
BRANCH  14  17
ATOM     17  C   UNL     1       6.326   5.648  18.663  0.00  0.00    +0.000 A 
ATOM     18  C   UNL     1       7.585   5.916  19.167  0.00  0.00    +0.000 A 
ATOM     19  C   UNL     1       8.120   6.974  18.393  0.00  0.00    +0.000 A 
ATOM     20  C   UNL     1       7.158   7.292  17.465  0.00  0.00    +0.000 A 
ATOM     21  O   UNL     1       6.066   6.500  17.619  0.00  0.00    +0.000 OA
ENDBRANCH  14  17
ENDBRANCH  12  13
ENDBRANCH   2  12
TORSDOF 5
ENDMDL
MODEL 7
REMARK VINA RESULT:      -6.8      1.013      1.194
REMARK  Name = 
REMARK  5 active torsions:
REMARK  status: ('A' for Active; 'I' for Inactive)
REMARK    1  A    between atoms: C_2  and  C_3
REMARK    2  A    between atoms: C_3  and  N_4
REMARK    3  A    between atoms: C_5  and  C_7
REMARK    4  A    between atoms: N_12  and  N_13
REMARK    5  A    between atoms: C_14  and  C_15
REMARK                            x       y       z     vdW  Elec       q    Type
REMARK                         _______ _______ _______ _____ _____    ______ ____
ROOT
ATOM      1  O   UNL     1       7.171   5.281  19.893  0.00  0.00    +0.000 OA
ATOM      2  C   UNL     1       6.709   5.615  18.804  0.00  0.00    +0.000 C 
ATOM      3  N   UNL     1       5.375   5.516  18.428  0.00  0.00    +0.000 N 
ATOM      4  H   UNL     1       5.051   5.981  17.581  0.00  0.00    +0.000 HD
ENDROOT
BRANCH   3   5
ATOM      5  N   UNL     1       4.483   4.931  19.282  0.00  0.00    +0.000 NA
ATOM      6  C   UNL     1       3.422   4.417  18.744  0.00  0.00    +0.000 C 
BRANCH   6   7
ATOM      7  C   UNL     1       2.429   3.774  19.569  0.00  0.00    +0.000 A 
ATOM      8  C   UNL     1       1.170   3.327  19.222  0.00  0.00    +0.000 A 
ATOM      9  C   UNL     1       0.473   2.755  20.327  0.00  0.00    +0.000 A 
ATOM     10  C   UNL     1       1.226   2.785  21.479  0.00  0.00    +0.000 A 
ATOM     11  S   UNL     1       2.764   3.490  21.223  0.00  0.00    +0.000 S 
ENDBRANCH   6   7
ENDBRANCH   3   5
BRANCH   2  12
ATOM     12  C   UNL     1       7.583   6.272  17.741  0.00  0.00    +0.000 C 
BRANCH  12  13
ATOM     13  N   UNL     1       7.495   5.556  16.488  0.00  0.00    +0.000 N 
ATOM     14  C   UNL     1       6.522   5.837  15.557  0.00  0.00    +0.000 C 
ATOM     15  O   UNL     1       5.676   6.707  15.759  0.00  0.00    +0.000 OA
ATOM     16  H   UNL     1       8.267   4.965  16.197  0.00  0.00    +0.000 HD
BRANCH  14  17
ATOM     17  C   UNL     1       6.603   5.039  14.351  0.00  0.00    +0.000 A 
ATOM     18  C   UNL     1       5.870   3.946  13.928  0.00  0.00    +0.000 A 
ATOM     19  C   UNL     1       6.388   3.569  12.665  0.00  0.00    +0.000 A 
ATOM     20  C   UNL     1       7.407   4.450  12.391  0.00  0.00    +0.000 A 
ATOM     21  O   UNL     1       7.551   5.343  13.405  0.00  0.00    +0.000 OA
ENDBRANCH  14  17
ENDBRANCH  12  13
ENDBRANCH   2  12
TORSDOF 5
ENDMDL
MODEL 8
REMARK VINA RESULT:      -6.7      5.025      7.771
REMARK  Name = 
REMARK  5 active torsions:
REMARK  status: ('A' for Active; 'I' for Inactive)
REMARK    1  A    between atoms: C_2  and  C_3
REMARK    2  A    between atoms: C_3  and  N_4
REMARK    3  A    between atoms: C_5  and  C_7
REMARK    4  A    between atoms: N_12  and  N_13
REMARK    5  A    between atoms: C_14  and  C_15
REMARK                            x       y       z     vdW  Elec       q    Type
REMARK                         _______ _______ _______ _____ _____    ______ ____
ROOT
ATOM      1  O   UNL     1       8.077   6.426  18.951  0.00  0.00    +0.000 OA
ATOM      2  C   UNL     1       7.650   6.958  17.928  0.00  0.00    +0.000 C 
ATOM      3  N   UNL     1       7.864   8.280  17.557  0.00  0.00    +0.000 N 
ATOM      4  H   UNL     1       7.629   8.585  16.612  0.00  0.00    +0.000 HD
ENDROOT
BRANCH   3   5
ATOM      5  N   UNL     1       8.531   9.113  18.409  0.00  0.00    +0.000 NA
ATOM      6  C   UNL     1       8.789  10.304  17.966  0.00  0.00    +0.000 C 
BRANCH   6   7
ATOM      7  C   UNL     1       9.485  11.253  18.801  0.00  0.00    +0.000 A 
ATOM      8  C   UNL     1       9.909  11.110  20.108  0.00  0.00    +0.000 A 
ATOM      9  C   UNL     1      10.551  12.283  20.600  0.00  0.00    +0.000 A 
ATOM     10  C   UNL     1      10.595  13.282  19.653  0.00  0.00    +0.000 A 
ATOM     11  S   UNL     1       9.873  12.798  18.178  0.00  0.00    +0.000 S 
ENDBRANCH   6   7
ENDBRANCH   3   5
BRANCH   2  12
ATOM     12  C   UNL     1       6.877   6.161  16.883  0.00  0.00    +0.000 C 
BRANCH  12  13
ATOM     13  N   UNL     1       6.241   5.009  17.483  0.00  0.00    +0.000 N 
ATOM     14  C   UNL     1       4.872   4.903  17.580  0.00  0.00    +0.000 C 
ATOM     15  O   UNL     1       4.132   5.795  17.167  0.00  0.00    +0.000 OA
ATOM     16  H   UNL     1       6.790   4.176  17.669  0.00  0.00    +0.000 HD
BRANCH  14  17
ATOM     17  C   UNL     1       4.411   3.670  18.183  0.00  0.00    +0.000 A 
ATOM     18  C   UNL     1       3.448   2.763  17.784  0.00  0.00    +0.000 A 
ATOM     19  C   UNL     1       3.415   1.741  18.764  0.00  0.00    +0.000 A 
ATOM     20  C   UNL     1       4.356   2.085  19.705  0.00  0.00    +0.000 A 
ATOM     21  O   UNL     1       4.964   3.252  19.368  0.00  0.00    +0.000 OA
ENDBRANCH  14  17
ENDBRANCH  12  13
ENDBRANCH   2  12
TORSDOF 5
ENDMDL
MODEL 9
REMARK VINA RESULT:      -6.7      1.349      1.815
REMARK  Name = 
REMARK  5 active torsions:
REMARK  status: ('A' for Active; 'I' for Inactive)
REMARK    1  A    between atoms: C_2  and  C_3
REMARK    2  A    between atoms: C_3  and  N_4
REMARK    3  A    between atoms: C_5  and  C_7
REMARK    4  A    between atoms: N_12  and  N_13
REMARK    5  A    between atoms: C_14  and  C_15
REMARK                            x       y       z     vdW  Elec       q    Type
REMARK                         _______ _______ _______ _____ _____    ______ ____
ROOT
ATOM      1  O   UNL     1       7.267   4.905  18.469  0.00  0.00    +0.000 OA
ATOM      2  C   UNL     1       6.733   4.561  17.417  0.00  0.00    +0.000 C 
ATOM      3  N   UNL     1       5.521   3.891  17.308  0.00  0.00    +0.000 N 
ATOM      4  H   UNL     1       5.067   3.807  16.399  0.00  0.00    +0.000 HD
ENDROOT
BRANCH   3   5
ATOM      5  N   UNL     1       4.875   3.492  18.444  0.00  0.00    +0.000 NA
ATOM      6  C   UNL     1       3.606   3.748  18.506  0.00  0.00    +0.000 C 
BRANCH   6   7
ATOM      7  C   UNL     1       2.843   3.357  19.666  0.00  0.00    +0.000 A 
ATOM      8  C   UNL     1       3.284   2.769  20.835  0.00  0.00    +0.000 A 
ATOM      9  C   UNL     1       2.219   2.516  21.749  0.00  0.00    +0.000 A 
ATOM     10  C   UNL     1       1.003   2.920  21.246  0.00  0.00    +0.000 A 
ATOM     11  S   UNL     1       1.151   3.608  19.686  0.00  0.00    +0.000 S 
ENDBRANCH   6   7
ENDBRANCH   3   5
BRANCH   2  12
ATOM     12  C   UNL     1       7.339   4.924  16.065  0.00  0.00    +0.000 C 
BRANCH  12  13
ATOM     13  N   UNL     1       6.657   4.232  14.994  0.00  0.00    +0.000 N 
ATOM     14  C   UNL     1       6.915   4.509  13.671  0.00  0.00    +0.000 C 
ATOM     15  O   UNL     1       7.733   5.368  13.345  0.00  0.00    +0.000 OA
ATOM     16  H   UNL     1       6.117   3.398  15.202  0.00  0.00    +0.000 HD
BRANCH  14  17
ATOM     17  C   UNL     1       6.161   3.701  12.735  0.00  0.00    +0.000 A 
ATOM     18  C   UNL     1       4.821   3.707  12.398  0.00  0.00    +0.000 A 
ATOM     19  C   UNL     1       4.639   2.695  11.424  0.00  0.00    +0.000 A 
ATOM     20  C   UNL     1       5.875   2.129  11.225  0.00  0.00    +0.000 A 
ATOM     21  O   UNL     1       6.805   2.726  12.015  0.00  0.00    +0.000 OA
ENDBRANCH  14  17
ENDBRANCH  12  13
ENDBRANCH   2  12
TORSDOF 5
ENDMDL
