MODEL 1
REMARK VINA RESULT:      -7.3      0.000      0.000
REMARK  Name = 
REMARK  3 active torsions:
REMARK  status: ('A' for Active; 'I' for Inactive)
REMARK    1  A    between atoms: C_2  and  C_3
REMARK    2  A    between atoms: C_3  and  C_4
REMARK    3  A    between atoms: C_15  and  C_17
REMARK                            x       y       z     vdW  Elec       q    Type
REMARK                         _______ _______ _______ _____ _____    ______ ____
ROOT
ATOM      1  O   UNL     1      -0.478   9.896  23.553  0.00  0.00    +0.000 OA
ATOM      2  C   UNL     1      -0.538  10.480  22.469  0.00  0.00    +0.000 C 
ATOM      3  N   UNL     1      -0.327   9.814  21.271  0.00  0.00    +0.000 N 
ATOM      4  C   UNL     1      -0.312  10.421  19.927  0.00  0.00    +0.000 C 
ATOM      5  C   UNL     1       1.101  10.360  19.313  0.00  0.00    +0.000 C 
ATOM      6  N   UNL     1       1.645   8.996  19.396  0.00  0.00    +0.000 N 
ATOM      7  C   UNL     1       2.041   8.363  18.214  0.00  0.00    +0.000 C 
ATOM      8  O   UNL     1       2.024   8.939  17.130  0.00  0.00    +0.000 OA
ATOM      9  C   UNL     1       1.653   8.465  20.773  0.00  0.00    +0.000 C 
ATOM     10  C   UNL     1       0.214   8.449  21.316  0.00  0.00    +0.000 C 
ENDROOT
BRANCH   7  11
ATOM     11  C   UNL     1       2.540   6.961  18.221  0.00  0.00    +0.000 A 
ATOM     12  C   UNL     1       3.902   6.635  18.309  0.00  0.00    +0.000 A 
ATOM     13  C   UNL     1       4.325   5.311  18.192  0.00  0.00    +0.000 A 
ATOM     14  C   UNL     1       3.382   4.291  18.099  0.00  0.00    +0.000 A 
ATOM     15  C   UNL     1       2.028   4.605  18.132  0.00  0.00    +0.000 A 
ATOM     16  F   UNL     1       1.126   3.616  18.105  0.00  0.00    +0.000 F 
ATOM     17  C   UNL     1       1.598   5.926  18.184  0.00  0.00    +0.000 A 
ENDBRANCH   7  11
BRANCH   2  18
ATOM     18  C   UNL     1      -0.850  11.965  22.432  0.00  0.00    +0.000 C 
BRANCH  18  19
ATOM     19  C   UNL     1      -2.315  12.298  22.529  0.00  0.00    +0.000 A 
ATOM     20  C   UNL     1      -3.012  12.257  23.746  0.00  0.00    +0.000 A 
ATOM     21  C   UNL     1      -4.362  12.608  23.804  0.00  0.00    +0.000 A 
ATOM     22  C   UNL     1      -5.030  13.025  22.651  0.00  0.00    +0.000 A 
ATOM     23  C   UNL     1      -4.344  13.091  21.440  0.00  0.00    +0.000 A 
ATOM     24  C   UNL     1      -3.000  12.732  21.390  0.00  0.00    +0.000 A 
ATOM     25  F   UNL     1      -2.357  12.807  20.215  0.00  0.00    +0.000 F 
ENDBRANCH  18  19
ENDBRANCH   2  18
TORSDOF 3
ENDMDL
MODEL 2
REMARK VINA RESULT:      -7.3      2.059      8.694
REMARK  Name = 
REMARK  3 active torsions:
REMARK  status: ('A' for Active; 'I' for Inactive)
REMARK    1  A    between atoms: C_2  and  C_3
REMARK    2  A    between atoms: C_3  and  C_4
REMARK    3  A    between atoms: C_15  and  C_17
REMARK                            x       y       z     vdW  Elec       q    Type
REMARK                         _______ _______ _______ _____ _____    ______ ____
ROOT
ATOM      1  O   UNL     1       1.985   6.430  20.512  0.00  0.00    +0.000 OA
ATOM      2  C   UNL     1       2.036   7.193  19.545  0.00  0.00    +0.000 C 
ATOM      3  N   UNL     1       1.733   8.541  19.665  0.00  0.00    +0.000 N 
ATOM      4  C   UNL     1       1.701   9.528  18.569  0.00  0.00    +0.000 C 
ATOM      5  C   UNL     1       0.262  10.024  18.321  0.00  0.00    +0.000 C 
ATOM      6  N   UNL     1      -0.363  10.457  19.580  0.00  0.00    +0.000 N 
ATOM      7  C   UNL     1      -0.848  11.766  19.669  0.00  0.00    +0.000 C 
ATOM      8  O   UNL     1      -0.839  12.529  18.707  0.00  0.00    +0.000 OA
ATOM      9  C   UNL     1      -0.347   9.408  20.618  0.00  0.00    +0.000 C 
ATOM     10  C   UNL     1       1.109   9.009  20.910  0.00  0.00    +0.000 C 
ENDROOT
BRANCH   7  11
ATOM     11  C   UNL     1      -1.434  12.286  20.934  0.00  0.00    +0.000 A 
ATOM     12  C   UNL     1      -0.655  12.790  21.986  0.00  0.00    +0.000 A 
ATOM     13  C   UNL     1      -1.246  13.155  23.196  0.00  0.00    +0.000 A 
ATOM     14  C   UNL     1      -2.631  13.124  23.324  0.00  0.00    +0.000 A 
ATOM     15  C   UNL     1      -3.411  12.738  22.240  0.00  0.00    +0.000 A 
ATOM     16  F   UNL     1      -4.746  12.771  22.349  0.00  0.00    +0.000 F 
ATOM     17  C   UNL     1      -2.829  12.312  21.052  0.00  0.00    +0.000 A 
ENDBRANCH   7  11
BRANCH   2  18
ATOM     18  C   UNL     1       2.439   6.655  18.184  0.00  0.00    +0.000 C 
BRANCH  18  19
ATOM     19  C   UNL     1       2.733   5.179  18.158  0.00  0.00    +0.000 A 
ATOM     20  C   UNL     1       1.773   4.232  17.772  0.00  0.00    +0.000 A 
ATOM     21  C   UNL     1       2.094   2.874  17.725  0.00  0.00    +0.000 A 
ATOM     22  C   UNL     1       3.383   2.445  18.042  0.00  0.00    +0.000 A 
ATOM     23  C   UNL     1       4.352   3.377  18.407  0.00  0.00    +0.000 A 
ATOM     24  C   UNL     1       4.022   4.728  18.457  0.00  0.00    +0.000 A 
ATOM     25  F   UNL     1       4.971   5.610  18.806  0.00  0.00    +0.000 F 
ENDBRANCH  18  19
ENDBRANCH   2  18
TORSDOF 3
ENDMDL
MODEL 3
REMARK VINA RESULT:      -7.3      1.029      1.398
REMARK  Name = 
REMARK  3 active torsions:
REMARK  status: ('A' for Active; 'I' for Inactive)
REMARK    1  A    between atoms: C_2  and  C_3
REMARK    2  A    between atoms: C_3  and  C_4
REMARK    3  A    between atoms: C_15  and  C_17
REMARK                            x       y       z     vdW  Elec       q    Type
REMARK                         _______ _______ _______ _____ _____    ______ ____
ROOT
ATOM      1  O   UNL     1      -0.575   9.730  23.437  0.00  0.00    +0.000 OA
ATOM      2  C   UNL     1      -0.520  10.296  22.343  0.00  0.00    +0.000 C 
ATOM      3  N   UNL     1      -0.271   9.595  21.174  0.00  0.00    +0.000 N 
ATOM      4  C   UNL     1      -0.123  10.174  19.825  0.00  0.00    +0.000 C 
ATOM      5  C   UNL     1       1.322  10.008  19.313  0.00  0.00    +0.000 C 
ATOM      6  N   UNL     1       1.767   8.612  19.454  0.00  0.00    +0.000 N 
ATOM      7  C   UNL     1       2.200   7.932  18.312  0.00  0.00    +0.000 C 
ATOM      8  O   UNL     1       2.297   8.487  17.221  0.00  0.00    +0.000 OA
ATOM      9  C   UNL     1       1.644   8.109  20.836  0.00  0.00    +0.000 C 
ATOM     10  C   UNL     1       0.172   8.198  21.276  0.00  0.00    +0.000 C 
ENDROOT
BRANCH   7  11
ATOM     11  C   UNL     1       2.602   6.500  18.375  0.00  0.00    +0.000 A 
ATOM     12  C   UNL     1       1.748   5.450  18.009  0.00  0.00    +0.000 A 
ATOM     13  C   UNL     1       2.132   4.122  18.199  0.00  0.00    +0.000 A 
ATOM     14  C   UNL     1       3.417   3.833  18.651  0.00  0.00    +0.000 A 
ATOM     15  C   UNL     1       4.304   4.873  18.900  0.00  0.00    +0.000 A 
ATOM     16  F   UNL     1       5.559   4.588  19.274  0.00  0.00    +0.000 F 
ATOM     17  C   UNL     1       3.911   6.201  18.775  0.00  0.00    +0.000 A 
ENDBRANCH   7  11
BRANCH   2  18
ATOM     18  C   UNL     1      -0.728  11.797  22.262  0.00  0.00    +0.000 C 
BRANCH  18  19
ATOM     19  C   UNL     1      -2.169  12.231  22.314  0.00  0.00    +0.000 A 
ATOM     20  C   UNL     1      -2.898  12.263  23.511  0.00  0.00    +0.000 A 
ATOM     21  C   UNL     1      -4.222  12.707  23.525  0.00  0.00    +0.000 A 
ATOM     22  C   UNL     1      -4.829  13.145  22.347  0.00  0.00    +0.000 A 
ATOM     23  C   UNL     1      -4.109  13.138  21.154  0.00  0.00    +0.000 A 
ATOM     24  C   UNL     1      -2.792  12.688  21.148  0.00  0.00    +0.000 A 
ATOM     25  F   UNL     1      -2.115  12.694  19.990  0.00  0.00    +0.000 F 
ENDBRANCH  18  19
ENDBRANCH   2  18
TORSDOF 3
ENDMDL
MODEL 4
REMARK VINA RESULT:      -7.3      1.733      8.428
REMARK  Name = 
REMARK  3 active torsions:
REMARK  status: ('A' for Active; 'I' for Inactive)
REMARK    1  A    between atoms: C_2  and  C_3
REMARK    2  A    between atoms: C_3  and  C_4
REMARK    3  A    between atoms: C_15  and  C_17
REMARK                            x       y       z     vdW  Elec       q    Type
REMARK                         _______ _______ _______ _____ _____    ______ ____
ROOT
ATOM      1  O   UNL     1       2.524   8.252  17.741  0.00  0.00    +0.000 OA
ATOM      2  C   UNL     1       2.227   7.835  18.863  0.00  0.00    +0.000 C 
ATOM      3  N   UNL     1       1.221   8.423  19.614  0.00  0.00    +0.000 N 
ATOM      4  C   UNL     1       0.826   8.049  20.985  0.00  0.00    +0.000 C 
ATOM      5  C   UNL     1       1.161   9.178  21.980  0.00  0.00    +0.000 C 
ATOM      6  N   UNL     1       0.636  10.467  21.501  0.00  0.00    +0.000 N 
ATOM      7  C   UNL     1      -0.244  11.176  22.323  0.00  0.00    +0.000 C 
ATOM      8  O   UNL     1      -0.525  10.796  23.457  0.00  0.00    +0.000 OA
ATOM      9  C   UNL     1       1.111  10.809  20.146  0.00  0.00    +0.000 C 
ATOM     10  C   UNL     1       0.673   9.709  19.164  0.00  0.00    +0.000 C 
ENDROOT
BRANCH   7  11
ATOM     11  C   UNL     1      -0.860  12.453  21.871  0.00  0.00    +0.000 A 
ATOM     12  C   UNL     1      -0.247  13.702  22.052  0.00  0.00    +0.000 A 
ATOM     13  C   UNL     1      -0.919  14.878  21.717  0.00  0.00    +0.000 A 
ATOM     14  C   UNL     1      -2.163  14.809  21.096  0.00  0.00    +0.000 A 
ATOM     15  C   UNL     1      -2.716  13.567  20.808  0.00  0.00    +0.000 A 
ATOM     16  F   UNL     1      -3.884  13.507  20.153  0.00  0.00    +0.000 F 
ATOM     17  C   UNL     1      -2.084  12.391  21.195  0.00  0.00    +0.000 A 
ENDBRANCH   7  11
BRANCH   2  18
ATOM     18  C   UNL     1       2.974   6.649  19.446  0.00  0.00    +0.000 C 
BRANCH  18  19
ATOM     19  C   UNL     1       2.287   5.323  19.254  0.00  0.00    +0.000 A 
ATOM     20  C   UNL     1       2.024   4.795  17.982  0.00  0.00    +0.000 A 
ATOM     21  C   UNL     1       1.418   3.544  17.843  0.00  0.00    +0.000 A 
ATOM     22  C   UNL     1       1.086   2.795  18.973  0.00  0.00    +0.000 A 
ATOM     23  C   UNL     1       1.361   3.300  20.243  0.00  0.00    +0.000 A 
ATOM     24  C   UNL     1       1.959   4.549  20.371  0.00  0.00    +0.000 A 
ATOM     25  F   UNL     1       2.220   5.014  21.602  0.00  0.00    +0.000 F 
ENDBRANCH  18  19
ENDBRANCH   2  18
TORSDOF 3
ENDMDL
MODEL 5
REMARK VINA RESULT:      -7.3      1.902      8.633
REMARK  Name = 
REMARK  3 active torsions:
REMARK  status: ('A' for Active; 'I' for Inactive)
REMARK    1  A    between atoms: C_2  and  C_3
REMARK    2  A    between atoms: C_3  and  C_4
REMARK    3  A    between atoms: C_15  and  C_17
REMARK                            x       y       z     vdW  Elec       q    Type
REMARK                         _______ _______ _______ _____ _____    ______ ____
ROOT
ATOM      1  O   UNL     1       1.938   6.153  20.568  0.00  0.00    +0.000 OA
ATOM      2  C   UNL     1       2.103   6.921  19.618  0.00  0.00    +0.000 C 
ATOM      3  N   UNL     1       1.855   8.280  19.729  0.00  0.00    +0.000 N 
ATOM      4  C   UNL     1       1.957   9.277  18.647  0.00  0.00    +0.000 C 
ATOM      5  C   UNL     1       0.568   9.843  18.290  0.00  0.00    +0.000 C 
ATOM      6  N   UNL     1      -0.136  10.295  19.500  0.00  0.00    +0.000 N 
ATOM      7  C   UNL     1      -0.564  11.625  19.565  0.00  0.00    +0.000 C 
ATOM      8  O   UNL     1      -0.442  12.395  18.617  0.00  0.00    +0.000 OA
ATOM      9  C   UNL     1      -0.253   9.237  20.523  0.00  0.00    +0.000 C 
ATOM     10  C   UNL     1       1.155   8.767  20.926  0.00  0.00    +0.000 C 
ENDROOT
BRANCH   7  11
ATOM     11  C   UNL     1      -1.225  12.161  20.786  0.00  0.00    +0.000 A 
ATOM     12  C   UNL     1      -0.513  12.574  21.922  0.00  0.00    +0.000 A 
ATOM     13  C   UNL     1      -1.186  12.958  23.082  0.00  0.00    +0.000 A 
ATOM     14  C   UNL     1      -2.576  13.040  23.078  0.00  0.00    +0.000 A 
ATOM     15  C   UNL     1      -3.276  12.745  21.914  0.00  0.00    +0.000 A 
ATOM     16  F   UNL     1      -4.608  12.886  21.897  0.00  0.00    +0.000 F 
ATOM     17  C   UNL     1      -2.619  12.301  20.772  0.00  0.00    +0.000 A 
ENDBRANCH   7  11
BRANCH   2  18
ATOM     18  C   UNL     1       2.589   6.376  18.287  0.00  0.00    +0.000 C 
BRANCH  18  19
ATOM     19  C   UNL     1       2.918   4.907  18.296  0.00  0.00    +0.000 A 
ATOM     20  C   UNL     1       4.094   4.408  18.874  0.00  0.00    +0.000 A 
ATOM     21  C   UNL     1       4.347   3.034  18.898  0.00  0.00    +0.000 A 
ATOM     22  C   UNL     1       3.419   2.140  18.363  0.00  0.00    +0.000 A 
ATOM     23  C   UNL     1       2.237   2.621  17.804  0.00  0.00    +0.000 A 
ATOM     24  C   UNL     1       1.996   3.991  17.780  0.00  0.00    +0.000 A 
ATOM     25  F   UNL     1       0.849   4.434  17.242  0.00  0.00    +0.000 F 
ENDBRANCH  18  19
ENDBRANCH   2  18
TORSDOF 3
ENDMDL
MODEL 6
REMARK VINA RESULT:      -7.3      1.641      8.427
REMARK  Name = 
REMARK  3 active torsions:
REMARK  status: ('A' for Active; 'I' for Inactive)
REMARK    1  A    between atoms: C_2  and  C_3
REMARK    2  A    between atoms: C_3  and  C_4
REMARK    3  A    between atoms: C_15  and  C_17
REMARK                            x       y       z     vdW  Elec       q    Type
REMARK                         _______ _______ _______ _____ _____    ______ ____
ROOT
ATOM      1  O   UNL     1       2.495   8.195  17.785  0.00  0.00    +0.000 OA
ATOM      2  C   UNL     1       2.209   7.820  18.924  0.00  0.00    +0.000 C 
ATOM      3  N   UNL     1       1.203   8.427  19.659  0.00  0.00    +0.000 N 
ATOM      4  C   UNL     1       0.820   8.103  21.046  0.00  0.00    +0.000 C 
ATOM      5  C   UNL     1       1.151   9.274  21.994  0.00  0.00    +0.000 C 
ATOM      6  N   UNL     1       0.612  10.538  21.468  0.00  0.00    +0.000 N 
ATOM      7  C   UNL     1      -0.270  11.271  22.268  0.00  0.00    +0.000 C 
ATOM      8  O   UNL     1      -0.539  10.933  23.417  0.00  0.00    +0.000 OA
ATOM      9  C   UNL     1       1.075  10.831  20.097  0.00  0.00    +0.000 C 
ATOM     10  C   UNL     1       0.640   9.690  19.162  0.00  0.00    +0.000 C 
ENDROOT
BRANCH   7  11
ATOM     11  C   UNL     1      -0.899  12.524  21.771  0.00  0.00    +0.000 A 
ATOM     12  C   UNL     1      -0.274  13.777  21.851  0.00  0.00    +0.000 A 
ATOM     13  C   UNL     1      -0.956  14.937  21.479  0.00  0.00    +0.000 A 
ATOM     14  C   UNL     1      -2.226  14.841  20.919  0.00  0.00    +0.000 A 
ATOM     15  C   UNL     1      -2.798  13.588  20.729  0.00  0.00    +0.000 A 
ATOM     16  F   UNL     1      -3.994  13.497  20.132  0.00  0.00    +0.000 F 
ATOM     17  C   UNL     1      -2.154  12.432  21.155  0.00  0.00    +0.000 A 
ENDBRANCH   7  11
BRANCH   2  18
ATOM     18  C   UNL     1       2.971   6.664  19.548  0.00  0.00    +0.000 C 
BRANCH  18  19
ATOM     19  C   UNL     1       2.350   5.311  19.318  0.00  0.00    +0.000 A 
ATOM     20  C   UNL     1       1.508   4.705  20.262  0.00  0.00    +0.000 A 
ATOM     21  C   UNL     1       0.920   3.466  19.998  0.00  0.00    +0.000 A 
ATOM     22  C   UNL     1       1.148   2.825  18.780  0.00  0.00    +0.000 A 
ATOM     23  C   UNL     1       1.966   3.427  17.824  0.00  0.00    +0.000 A 
ATOM     24  C   UNL     1       2.552   4.659  18.098  0.00  0.00    +0.000 A 
ATOM     25  F   UNL     1       3.332   5.223  17.163  0.00  0.00    +0.000 F 
ENDBRANCH  18  19
ENDBRANCH   2  18
TORSDOF 3
ENDMDL
MODEL 7
REMARK VINA RESULT:      -7.2      1.884      8.571
REMARK  Name = 
REMARK  3 active torsions:
REMARK  status: ('A' for Active; 'I' for Inactive)
REMARK    1  A    between atoms: C_2  and  C_3
REMARK    2  A    between atoms: C_3  and  C_4
REMARK    3  A    between atoms: C_15  and  C_17
REMARK                            x       y       z     vdW  Elec       q    Type
REMARK                         _______ _______ _______ _____ _____    ______ ____
ROOT
ATOM      1  O   UNL     1       2.521   8.161  17.829  0.00  0.00    +0.000 OA
ATOM      2  C   UNL     1       2.228   7.775  18.963  0.00  0.00    +0.000 C 
ATOM      3  N   UNL     1       1.216   8.375  19.697  0.00  0.00    +0.000 N 
ATOM      4  C   UNL     1       0.824   8.038  21.078  0.00  0.00    +0.000 C 
ATOM      5  C   UNL     1       1.147   9.200  22.039  0.00  0.00    +0.000 C 
ATOM      6  N   UNL     1       0.610  10.468  21.521  0.00  0.00    +0.000 N 
ATOM      7  C   UNL     1      -0.278  11.193  22.321  0.00  0.00    +0.000 C 
ATOM      8  O   UNL     1      -0.555  10.844  23.466  0.00  0.00    +0.000 OA
ATOM      9  C   UNL     1       1.082  10.775  20.156  0.00  0.00    +0.000 C 
ATOM     10  C   UNL     1       0.654   9.641  19.208  0.00  0.00    +0.000 C 
ENDROOT
BRANCH   7  11
ATOM     11  C   UNL     1      -0.906  12.450  21.832  0.00  0.00    +0.000 A 
ATOM     12  C   UNL     1      -2.042  12.466  21.009  0.00  0.00    +0.000 A 
ATOM     13  C   UNL     1      -2.520  13.666  20.480  0.00  0.00    +0.000 A 
ATOM     14  C   UNL     1      -1.935  14.869  20.863  0.00  0.00    +0.000 A 
ATOM     15  C   UNL     1      -0.884  14.861  21.773  0.00  0.00    +0.000 A 
ATOM     16  F   UNL     1      -0.366  16.026  22.185  0.00  0.00    +0.000 F 
ATOM     17  C   UNL     1      -0.359  13.668  22.255  0.00  0.00    +0.000 A 
ENDBRANCH   7  11
BRANCH   2  18
ATOM     18  C   UNL     1       2.987   6.615  19.581  0.00  0.00    +0.000 C 
BRANCH  18  19
ATOM     19  C   UNL     1       2.349   5.267  19.367  0.00  0.00    +0.000 A 
ATOM     20  C   UNL     1       1.507   4.678  20.321  0.00  0.00    +0.000 A 
ATOM     21  C   UNL     1       0.904   3.443  20.070  0.00  0.00    +0.000 A 
ATOM     22  C   UNL     1       1.118   2.791  18.856  0.00  0.00    +0.000 A 
ATOM     23  C   UNL     1       1.935   3.376  17.890  0.00  0.00    +0.000 A 
ATOM     24  C   UNL     1       2.537   4.603  18.151  0.00  0.00    +0.000 A 
ATOM     25  F   UNL     1       3.316   5.151  17.206  0.00  0.00    +0.000 F 
ENDBRANCH  18  19
ENDBRANCH   2  18
TORSDOF 3
ENDMDL
MODEL 8
REMARK VINA RESULT:      -7.2      1.357      1.937
REMARK  Name = 
REMARK  3 active torsions:
REMARK  status: ('A' for Active; 'I' for Inactive)
REMARK    1  A    between atoms: C_2  and  C_3
REMARK    2  A    between atoms: C_3  and  C_4
REMARK    3  A    between atoms: C_15  and  C_17
REMARK                            x       y       z     vdW  Elec       q    Type
REMARK                         _______ _______ _______ _____ _____    ______ ____
ROOT
ATOM      1  O   UNL     1      -0.728   9.848  23.287  0.00  0.00    +0.000 OA
ATOM      2  C   UNL     1      -0.632  10.398  22.188  0.00  0.00    +0.000 C 
ATOM      3  N   UNL     1      -0.349   9.680  21.037  0.00  0.00    +0.000 N 
ATOM      4  C   UNL     1      -0.151  10.239  19.686  0.00  0.00    +0.000 C 
ATOM      5  C   UNL     1       1.310  10.057  19.226  0.00  0.00    +0.000 C 
ATOM      6  N   UNL     1       1.740   8.661  19.401  0.00  0.00    +0.000 N 
ATOM      7  C   UNL     1       2.208   7.962  18.284  0.00  0.00    +0.000 C 
ATOM      8  O   UNL     1       2.344   8.502  17.189  0.00  0.00    +0.000 OA
ATOM      9  C   UNL     1       1.567   8.178  20.785  0.00  0.00    +0.000 C 
ATOM     10  C   UNL     1       0.082   8.282  21.173  0.00  0.00    +0.000 C 
ENDROOT
BRANCH   7  11
ATOM     11  C   UNL     1       2.598   6.529  18.380  0.00  0.00    +0.000 A 
ATOM     12  C   UNL     1       1.742   5.478  18.020  0.00  0.00    +0.000 A 
ATOM     13  C   UNL     1       2.113   4.151  18.241  0.00  0.00    +0.000 A 
ATOM     14  C   UNL     1       3.388   3.862  18.718  0.00  0.00    +0.000 A 
ATOM     15  C   UNL     1       4.280   4.901  18.961  0.00  0.00    +0.000 A 
ATOM     16  F   UNL     1       5.526   4.613  19.360  0.00  0.00    +0.000 F 
ATOM     17  C   UNL     1       3.898   6.228  18.805  0.00  0.00    +0.000 A 
ENDBRANCH   7  11
BRANCH   2  18
ATOM     18  C   UNL     1      -0.828  11.900  22.079  0.00  0.00    +0.000 C 
BRANCH  18  19
ATOM     19  C   UNL     1      -2.238  12.325  21.769  0.00  0.00    +0.000 A 
ATOM     20  C   UNL     1      -2.677  12.561  20.458  0.00  0.00    +0.000 A 
ATOM     21  C   UNL     1      -4.004  12.918  20.206  0.00  0.00    +0.000 A 
ATOM     22  C   UNL     1      -4.915  13.022  21.258  0.00  0.00    +0.000 A 
ATOM     23  C   UNL     1      -4.497  12.769  22.563  0.00  0.00    +0.000 A 
ATOM     24  C   UNL     1      -3.172  12.421  22.806  0.00  0.00    +0.000 A 
ATOM     25  F   UNL     1      -2.791  12.177  24.069  0.00  0.00    +0.000 F 
ENDBRANCH  18  19
ENDBRANCH   2  18
TORSDOF 3
ENDMDL
MODEL 9
REMARK VINA RESULT:      -7.1      1.506      1.826
REMARK  Name = 
REMARK  3 active torsions:
REMARK  status: ('A' for Active; 'I' for Inactive)
REMARK    1  A    between atoms: C_2  and  C_3
REMARK    2  A    between atoms: C_3  and  C_4
REMARK    3  A    between atoms: C_15  and  C_17
REMARK                            x       y       z     vdW  Elec       q    Type
REMARK                         _______ _______ _______ _____ _____    ______ ____
ROOT
ATOM      1  O   UNL     1      -0.843  10.528  23.506  0.00  0.00    +0.000 OA
ATOM      2  C   UNL     1      -0.787  10.804  22.306  0.00  0.00    +0.000 C 
ATOM      3  N   UNL     1      -0.497   9.842  21.351  0.00  0.00    +0.000 N 
ATOM      4  C   UNL     1      -0.344  10.070  19.902  0.00  0.00    +0.000 C 
ATOM      5  C   UNL     1       1.113   9.831  19.460  0.00  0.00    +0.000 C 
ATOM      6  N   UNL     1       1.599   8.531  19.950  0.00  0.00    +0.000 N 
ATOM      7  C   UNL     1       2.072   7.602  19.018  0.00  0.00    +0.000 C 
ATOM      8  O   UNL     1       2.170   7.870  17.824  0.00  0.00    +0.000 OA
ATOM      9  C   UNL     1       1.469   8.385  21.413  0.00  0.00    +0.000 C 
ATOM     10  C   UNL     1      -0.012   8.531  21.804  0.00  0.00    +0.000 C 
ENDROOT
BRANCH   7  11
ATOM     11  C   UNL     1       2.518   6.247  19.441  0.00  0.00    +0.000 A 
ATOM     12  C   UNL     1       3.794   5.739  19.157  0.00  0.00    +0.000 A 
ATOM     13  C   UNL     1       4.121   4.419  19.471  0.00  0.00    +0.000 A 
ATOM     14  C   UNL     1       3.212   3.632  20.174  0.00  0.00    +0.000 A 
ATOM     15  C   UNL     1       1.992   4.175  20.560  0.00  0.00    +0.000 A 
ATOM     16  F   UNL     1       1.148   3.434  21.290  0.00  0.00    +0.000 F 
ATOM     17  C   UNL     1       1.632   5.468  20.196  0.00  0.00    +0.000 A 
ENDBRANCH   7  11
BRANCH   2  18
ATOM     18  C   UNL     1      -1.041  12.230  21.850  0.00  0.00    +0.000 C 
BRANCH  18  19
ATOM     19  C   UNL     1      -2.486  12.548  21.572  0.00  0.00    +0.000 A 
ATOM     20  C   UNL     1      -3.013  12.556  20.272  0.00  0.00    +0.000 A 
ATOM     21  C   UNL     1      -4.367  12.820  20.056  0.00  0.00    +0.000 A 
ATOM     22  C   UNL     1      -5.218  13.058  21.136  0.00  0.00    +0.000 A 
ATOM     23  C   UNL     1      -4.711  13.031  22.435  0.00  0.00    +0.000 A 
ATOM     24  C   UNL     1      -3.359  12.774  22.640  0.00  0.00    +0.000 A 
ATOM     25  F   UNL     1      -2.893  12.748  23.898  0.00  0.00    +0.000 F 
ENDBRANCH  18  19
ENDBRANCH   2  18
TORSDOF 3
ENDMDL
