MODEL 1
REMARK VINA RESULT:      -6.5      0.000      0.000
REMARK  Name = 
REMARK  18 active torsions:
REMARK  status: ('A' for Active; 'I' for Inactive)
REMARK    1  A    between atoms: C_1  and  C_2
REMARK    2  A    between atoms: C_2  and  C_3
REMARK    3  A    between atoms: C_3  and  C_4
REMARK    4  A    between atoms: C_4  and  C_5
REMARK    5  A    between atoms: C_5  and  C_6
REMARK    6  A    between atoms: C_6  and  C_7
REMARK    7  A    between atoms: C_7  and  C_8
REMARK    8  A    between atoms: C_8  and  C_9
REMARK    9  A    between atoms: C_9  and  C_10
REMARK   10  A    between atoms: C_10  and  C_11
REMARK   11  A    between atoms: C_11  and  C_12
REMARK   12  A    between atoms: C_12  and  C_13
REMARK   13  A    between atoms: C_13  and  C_14
REMARK   14  A    between atoms: C_14  and  C_15
REMARK   15  A    between atoms: C_15  and  C_16
REMARK   16  A    between atoms: C_18  and  C_19
REMARK   17  A    between atoms: C_19  and  C_20
REMARK   18  A    between atoms: C_20  and  O_22
REMARK                            x       y       z     vdW  Elec       q    Type
REMARK                         _______ _______ _______ _____ _____    ______ ____
ROOT
ATOM      1  C   UNL     1       4.311   2.602  18.343  0.00  0.00    +0.000 C 
ENDROOT
BRANCH   1   2
ATOM      2  C   UNL     1       4.360   4.042  17.850  0.00  0.00    +0.000 C 
BRANCH   2   3
ATOM      3  C   UNL     1       5.214   4.214  16.599  0.00  0.00    +0.000 C 
BRANCH   3   4
ATOM      4  C   UNL     1       5.218   5.667  16.108  0.00  0.00    +0.000 C 
ATOM      5  C   UNL     1       5.506   6.719  17.157  0.00  0.00    +0.000 C 
ATOM      6  C   UNL     1       6.986   7.025  17.006  0.00  0.00    +0.000 C 
ATOM      7  O   UNL     1       7.452   6.131  15.986  0.00  0.00    +0.000 OA
ATOM      8  O   UNL     1       6.273   5.849  15.162  0.00  0.00    +0.000 OA
BRANCH   6   9
ATOM      9  C   UNL     1       7.829   6.781  18.253  0.00  0.00    +0.000 C 
BRANCH   9  10
ATOM     10  C   UNL     1       7.554   5.447  18.891  0.00  0.00    +0.000 C 
ATOM     11  O   UNL     1       6.941   5.276  19.933  0.00  0.00    +0.000 OA
BRANCH  10  12
ATOM     12  O   UNL     1       8.058   4.415  18.173  0.00  0.00    +0.000 OA
ATOM     13  H   UNL     1       7.558   3.585  18.261  0.00  0.00    +0.000 HD
ENDBRANCH  10  12
ENDBRANCH   9  10
ENDBRANCH   6   9
ENDBRANCH   3   4
ENDBRANCH   2   3
ENDBRANCH   1   2
BRANCH   1  14
ATOM     14  C   UNL     1       2.975   1.993  17.928  0.00  0.00    +0.000 C 
BRANCH  14  15
ATOM     15  C   UNL     1       1.866   3.027  17.965  0.00  0.00    +0.000 C 
BRANCH  15  16
ATOM     16  C   UNL     1       0.740   2.558  18.874  0.00  0.00    +0.000 C 
BRANCH  16  17
ATOM     17  C   UNL     1       0.557   3.548  20.011  0.00  0.00    +0.000 C 
BRANCH  17  18
ATOM     18  C   UNL     1       1.660   3.389  21.042  0.00  0.00    +0.000 C 
BRANCH  18  19
ATOM     19  C   UNL     1       2.393   4.709  21.214  0.00  0.00    +0.000 C 
BRANCH  19  20
ATOM     20  C   UNL     1       1.652   5.821  20.492  0.00  0.00    +0.000 C 
BRANCH  20  21
ATOM     21  C   UNL     1       2.624   6.659  19.676  0.00  0.00    +0.000 C 
BRANCH  21  22
ATOM     22  C   UNL     1       2.155   6.764  18.233  0.00  0.00    +0.000 C 
BRANCH  22  23
ATOM     23  C   UNL     1       2.084   8.222  17.801  0.00  0.00    +0.000 C 
BRANCH  23  25
ATOM     24  C   UNL     1       1.534  10.550  18.545  0.00  0.00    +0.000 C 
ATOM     25  C   UNL     1       1.411   9.073  18.871  0.00  0.00    +0.000 C 
ENDBRANCH  23  25
ENDBRANCH  22  23
ENDBRANCH  21  22
ENDBRANCH  20  21
ENDBRANCH  19  20
ENDBRANCH  18  19
ENDBRANCH  17  18
ENDBRANCH  16  17
ENDBRANCH  15  16
ENDBRANCH  14  15
ENDBRANCH   1  14
TORSDOF 17
ENDMDL
MODEL 2
REMARK VINA RESULT:      -5.8      1.158      1.629
REMARK  Name = 
REMARK  18 active torsions:
REMARK  status: ('A' for Active; 'I' for Inactive)
REMARK    1  A    between atoms: C_1  and  C_2
REMARK    2  A    between atoms: C_2  and  C_3
REMARK    3  A    between atoms: C_3  and  C_4
REMARK    4  A    between atoms: C_4  and  C_5
REMARK    5  A    between atoms: C_5  and  C_6
REMARK    6  A    between atoms: C_6  and  C_7
REMARK    7  A    between atoms: C_7  and  C_8
REMARK    8  A    between atoms: C_8  and  C_9
REMARK    9  A    between atoms: C_9  and  C_10
REMARK   10  A    between atoms: C_10  and  C_11
REMARK   11  A    between atoms: C_11  and  C_12
REMARK   12  A    between atoms: C_12  and  C_13
REMARK   13  A    between atoms: C_13  and  C_14
REMARK   14  A    between atoms: C_14  and  C_15
REMARK   15  A    between atoms: C_15  and  C_16
REMARK   16  A    between atoms: C_18  and  C_19
REMARK   17  A    between atoms: C_19  and  C_20
REMARK   18  A    between atoms: C_20  and  O_22
REMARK                            x       y       z     vdW  Elec       q    Type
REMARK                         _______ _______ _______ _____ _____    ______ ____
ROOT
ATOM      1  C   UNL     1       2.269   3.770  17.214  0.00  0.00    +0.000 C 
ENDROOT
BRANCH   1   2
ATOM      2  C   UNL     1       3.584   4.538  17.258  0.00  0.00    +0.000 C 
BRANCH   2   3
ATOM      3  C   UNL     1       4.777   3.699  16.817  0.00  0.00    +0.000 C 
BRANCH   3   4
ATOM      4  C   UNL     1       5.650   4.443  15.798  0.00  0.00    +0.000 C 
ATOM      5  C   UNL     1       5.866   5.917  16.063  0.00  0.00    +0.000 C 
ATOM      6  C   UNL     1       7.213   5.994  16.760  0.00  0.00    +0.000 C 
ATOM      7  O   UNL     1       7.637   4.632  16.910  0.00  0.00    +0.000 OA
ATOM      8  O   UNL     1       6.975   3.908  15.822  0.00  0.00    +0.000 OA
BRANCH   6   9
ATOM      9  C   UNL     1       7.190   6.626  18.148  0.00  0.00    +0.000 C 
BRANCH   9  10
ATOM     10  C   UNL     1       7.185   5.605  19.252  0.00  0.00    +0.000 C 
ATOM     11  O   UNL     1       6.195   5.028  19.674  0.00  0.00    +0.000 OA
BRANCH  10  12
ATOM     12  O   UNL     1       8.423   5.369  19.747  0.00  0.00    +0.000 OA
ATOM     13  H   UNL     1       9.142   5.789  19.243  0.00  0.00    +0.000 HD
ENDBRANCH  10  12
ENDBRANCH   9  10
ENDBRANCH   6   9
ENDBRANCH   3   4
ENDBRANCH   2   3
ENDBRANCH   1   2
BRANCH   1  14
ATOM     14  C   UNL     1       2.413   2.514  18.067  0.00  0.00    +0.000 C 
BRANCH  14  15
ATOM     15  C   UNL     1       1.123   2.198  18.800  0.00  0.00    +0.000 C 
BRANCH  15  16
ATOM     16  C   UNL     1       1.305   2.401  20.297  0.00  0.00    +0.000 C 
BRANCH  16  17
ATOM     17  C   UNL     1       2.596   3.158  20.555  0.00  0.00    +0.000 C 
BRANCH  17  18
ATOM     18  C   UNL     1       2.337   4.380  21.418  0.00  0.00    +0.000 C 
BRANCH  18  19
ATOM     19  C   UNL     1       1.692   5.470  20.578  0.00  0.00    +0.000 C 
BRANCH  19  20
ATOM     20  C   UNL     1       2.758   6.333  19.924  0.00  0.00    +0.000 C 
BRANCH  20  21
ATOM     21  C   UNL     1       2.130   7.580  19.323  0.00  0.00    +0.000 C 
BRANCH  21  22
ATOM     22  C   UNL     1       1.395   8.374  20.393  0.00  0.00    +0.000 C 
BRANCH  22  23
ATOM     23  C   UNL     1       0.972   9.733  19.852  0.00  0.00    +0.000 C 
BRANCH  23  25
ATOM     24  C   UNL     1      -0.641  10.088  17.969  0.00  0.00    +0.000 C 
ATOM     25  C   UNL     1       0.771   9.677  18.342  0.00  0.00    +0.000 C 
ENDBRANCH  23  25
ENDBRANCH  22  23
ENDBRANCH  21  22
ENDBRANCH  20  21
ENDBRANCH  19  20
ENDBRANCH  18  19
ENDBRANCH  17  18
ENDBRANCH  16  17
ENDBRANCH  15  16
ENDBRANCH  14  15
ENDBRANCH   1  14
TORSDOF 17
ENDMDL
MODEL 3
REMARK VINA RESULT:      -5.5      2.347      4.996
REMARK  Name = 
REMARK  18 active torsions:
REMARK  status: ('A' for Active; 'I' for Inactive)
REMARK    1  A    between atoms: C_1  and  C_2
REMARK    2  A    between atoms: C_2  and  C_3
REMARK    3  A    between atoms: C_3  and  C_4
REMARK    4  A    between atoms: C_4  and  C_5
REMARK    5  A    between atoms: C_5  and  C_6
REMARK    6  A    between atoms: C_6  and  C_7
REMARK    7  A    between atoms: C_7  and  C_8
REMARK    8  A    between atoms: C_8  and  C_9
REMARK    9  A    between atoms: C_9  and  C_10
REMARK   10  A    between atoms: C_10  and  C_11
REMARK   11  A    between atoms: C_11  and  C_12
REMARK   12  A    between atoms: C_12  and  C_13
REMARK   13  A    between atoms: C_13  and  C_14
REMARK   14  A    between atoms: C_14  and  C_15
REMARK   15  A    between atoms: C_15  and  C_16
REMARK   16  A    between atoms: C_18  and  C_19
REMARK   17  A    between atoms: C_19  and  C_20
REMARK   18  A    between atoms: C_20  and  O_22
REMARK                            x       y       z     vdW  Elec       q    Type
REMARK                         _______ _______ _______ _____ _____    ______ ____
ROOT
ATOM      1  C   UNL     1       4.502   6.331  18.360  0.00  0.00    +0.000 C 
ENDROOT
BRANCH   1   2
ATOM      2  C   UNL     1       5.651   6.691  17.427  0.00  0.00    +0.000 C 
BRANCH   2   3
ATOM      3  C   UNL     1       5.533   6.037  16.056  0.00  0.00    +0.000 C 
BRANCH   3   4
ATOM      4  C   UNL     1       6.580   4.933  15.860  0.00  0.00    +0.000 C 
ATOM      5  C   UNL     1       6.128   3.727  15.065  0.00  0.00    +0.000 C 
ATOM      6  C   UNL     1       6.632   3.980  13.655  0.00  0.00    +0.000 C 
ATOM      7  O   UNL     1       7.247   5.276  13.702  0.00  0.00    +0.000 OA
ATOM      8  O   UNL     1       7.673   5.441  15.094  0.00  0.00    +0.000 OA
BRANCH   6   9
ATOM      9  C   UNL     1       5.553   4.020  12.578  0.00  0.00    +0.000 C 
BRANCH   9  10
ATOM     10  C   UNL     1       5.457   2.736  11.801  0.00  0.00    +0.000 C 
ATOM     11  O   UNL     1       4.473   2.355  11.188  0.00  0.00    +0.000 OA
BRANCH  10  12
ATOM     12  O   UNL     1       6.606   2.020  11.837  0.00  0.00    +0.000 OA
ATOM     13  H   UNL     1       7.311   2.423  12.373  0.00  0.00    +0.000 HD
ENDBRANCH  10  12
ENDBRANCH   9  10
ENDBRANCH   6   9
ENDBRANCH   3   4
ENDBRANCH   2   3
ENDBRANCH   1   2
BRANCH   1  14
ATOM     14  C   UNL     1       3.264   7.107  17.923  0.00  0.00    +0.000 C 
BRANCH  14  15
ATOM     15  C   UNL     1       2.036   6.661  18.694  0.00  0.00    +0.000 C 
BRANCH  15  16
ATOM     16  C   UNL     1       2.328   6.646  20.187  0.00  0.00    +0.000 C 
BRANCH  16  17
ATOM     17  C   UNL     1       2.247   5.222  20.707  0.00  0.00    +0.000 C 
BRANCH  17  18
ATOM     18  C   UNL     1       0.912   4.595  20.345  0.00  0.00    +0.000 C 
BRANCH  18  19
ATOM     19  C   UNL     1       0.934   3.114  20.684  0.00  0.00    +0.000 C 
BRANCH  19  20
ATOM     20  C   UNL     1       1.296   2.298  19.455  0.00  0.00    +0.000 C 
BRANCH  20  21
ATOM     21  C   UNL     1       1.096   3.126  18.196  0.00  0.00    +0.000 C 
BRANCH  21  22
ATOM     22  C   UNL     1       2.432   3.396  17.520  0.00  0.00    +0.000 C 
BRANCH  22  23
ATOM     23  C   UNL     1       3.438   2.309  17.873  0.00  0.00    +0.000 C 
BRANCH  23  25
ATOM     24  C   UNL     1       4.706   2.376  20.032  0.00  0.00    +0.000 C 
ATOM     25  C   UNL     1       4.636   2.898  18.609  0.00  0.00    +0.000 C 
ENDBRANCH  23  25
ENDBRANCH  22  23
ENDBRANCH  21  22
ENDBRANCH  20  21
ENDBRANCH  19  20
ENDBRANCH  18  19
ENDBRANCH  17  18
ENDBRANCH  16  17
ENDBRANCH  15  16
ENDBRANCH  14  15
ENDBRANCH   1  14
TORSDOF 17
ENDMDL
MODEL 4
REMARK VINA RESULT:      -5.3      1.405      1.828
REMARK  Name = 
REMARK  18 active torsions:
REMARK  status: ('A' for Active; 'I' for Inactive)
REMARK    1  A    between atoms: C_1  and  C_2
REMARK    2  A    between atoms: C_2  and  C_3
REMARK    3  A    between atoms: C_3  and  C_4
REMARK    4  A    between atoms: C_4  and  C_5
REMARK    5  A    between atoms: C_5  and  C_6
REMARK    6  A    between atoms: C_6  and  C_7
REMARK    7  A    between atoms: C_7  and  C_8
REMARK    8  A    between atoms: C_8  and  C_9
REMARK    9  A    between atoms: C_9  and  C_10
REMARK   10  A    between atoms: C_10  and  C_11
REMARK   11  A    between atoms: C_11  and  C_12
REMARK   12  A    between atoms: C_12  and  C_13
REMARK   13  A    between atoms: C_13  and  C_14
REMARK   14  A    between atoms: C_14  and  C_15
REMARK   15  A    between atoms: C_15  and  C_16
REMARK   16  A    between atoms: C_18  and  C_19
REMARK   17  A    between atoms: C_19  and  C_20
REMARK   18  A    between atoms: C_20  and  O_22
REMARK                            x       y       z     vdW  Elec       q    Type
REMARK                         _______ _______ _______ _____ _____    ______ ____
ROOT
ATOM      1  C   UNL     1       5.131   3.951  18.890  0.00  0.00    +0.000 C 
ENDROOT
BRANCH   1   2
ATOM      2  C   UNL     1       4.278   4.357  17.695  0.00  0.00    +0.000 C 
BRANCH   2   3
ATOM      3  C   UNL     1       4.691   3.658  16.405  0.00  0.00    +0.000 C 
BRANCH   3   4
ATOM      4  C   UNL     1       5.337   4.632  15.411  0.00  0.00    +0.000 C 
ATOM      5  C   UNL     1       5.643   6.015  15.945  0.00  0.00    +0.000 C 
ATOM      6  C   UNL     1       7.112   5.968  16.325  0.00  0.00    +0.000 C 
ATOM      7  O   UNL     1       7.524   4.618  16.070  0.00  0.00    +0.000 OA
ATOM      8  O   UNL     1       6.619   4.139  15.021  0.00  0.00    +0.000 OA
BRANCH   6   9
ATOM      9  C   UNL     1       7.413   6.274  17.789  0.00  0.00    +0.000 C 
BRANCH   9  10
ATOM     10  C   UNL     1       7.905   7.679  18.002  0.00  0.00    +0.000 C 
ATOM     11  O   UNL     1       7.587   8.646  17.328  0.00  0.00    +0.000 OA
BRANCH  10  12
ATOM     12  O   UNL     1       8.754   7.779  19.051  0.00  0.00    +0.000 OA
ATOM     13  H   UNL     1       9.598   8.216  18.842  0.00  0.00    +0.000 HD
ENDBRANCH  10  12
ENDBRANCH   9  10
ENDBRANCH   6   9
ENDBRANCH   3   4
ENDBRANCH   2   3
ENDBRANCH   1   2
BRANCH   1  14
ATOM     14  C   UNL     1       4.435   2.803  19.613  0.00  0.00    +0.000 C 
BRANCH  14  15
ATOM     15  C   UNL     1       2.994   2.663  19.161  0.00  0.00    +0.000 C 
BRANCH  15  16
ATOM     16  C   UNL     1       2.135   2.129  20.298  0.00  0.00    +0.000 C 
BRANCH  16  17
ATOM     17  C   UNL     1       0.966   3.068  20.536  0.00  0.00    +0.000 C 
BRANCH  17  18
ATOM     18  C   UNL     1       1.167   4.374  19.787  0.00  0.00    +0.000 C 
BRANCH  18  19
ATOM     19  C   UNL     1       1.707   5.430  20.737  0.00  0.00    +0.000 C 
BRANCH  19  20
ATOM     20  C   UNL     1       2.702   6.325  20.019  0.00  0.00    +0.000 C 
BRANCH  20  21
ATOM     21  C   UNL     1       2.050   7.648  19.649  0.00  0.00    +0.000 C 
BRANCH  21  22
ATOM     22  C   UNL     1       2.404   8.034  18.221  0.00  0.00    +0.000 C 
BRANCH  22  23
ATOM     23  C   UNL     1       1.401   9.043  17.677  0.00  0.00    +0.000 C 
BRANCH  23  25
ATOM     24  C   UNL     1      -0.533  10.311  18.639  0.00  0.00    +0.000 C 
ATOM     25  C   UNL     1       0.946  10.000  18.772  0.00  0.00    +0.000 C 
ENDBRANCH  23  25
ENDBRANCH  22  23
ENDBRANCH  21  22
ENDBRANCH  20  21
ENDBRANCH  19  20
ENDBRANCH  18  19
ENDBRANCH  17  18
ENDBRANCH  16  17
ENDBRANCH  15  16
ENDBRANCH  14  15
ENDBRANCH   1  14
TORSDOF 17
ENDMDL
MODEL 5
REMARK VINA RESULT:      -5.3      2.143      3.772
REMARK  Name = 
REMARK  18 active torsions:
REMARK  status: ('A' for Active; 'I' for Inactive)
REMARK    1  A    between atoms: C_1  and  C_2
REMARK    2  A    between atoms: C_2  and  C_3
REMARK    3  A    between atoms: C_3  and  C_4
REMARK    4  A    between atoms: C_4  and  C_5
REMARK    5  A    between atoms: C_5  and  C_6
REMARK    6  A    between atoms: C_6  and  C_7
REMARK    7  A    between atoms: C_7  and  C_8
REMARK    8  A    between atoms: C_8  and  C_9
REMARK    9  A    between atoms: C_9  and  C_10
REMARK   10  A    between atoms: C_10  and  C_11
REMARK   11  A    between atoms: C_11  and  C_12
REMARK   12  A    between atoms: C_12  and  C_13
REMARK   13  A    between atoms: C_13  and  C_14
REMARK   14  A    between atoms: C_14  and  C_15
REMARK   15  A    between atoms: C_15  and  C_16
REMARK   16  A    between atoms: C_18  and  C_19
REMARK   17  A    between atoms: C_19  and  C_20
REMARK   18  A    between atoms: C_20  and  O_22
REMARK                            x       y       z     vdW  Elec       q    Type
REMARK                         _______ _______ _______ _____ _____    ______ ____
ROOT
ATOM      1  C   UNL     1       3.549   3.902  16.949  0.00  0.00    +0.000 C 
ENDROOT
BRANCH   1   2
ATOM      2  C   UNL     1       4.898   3.957  17.654  0.00  0.00    +0.000 C 
BRANCH   2   3
ATOM      3  C   UNL     1       5.363   5.380  17.936  0.00  0.00    +0.000 C 
BRANCH   3   4
ATOM      4  C   UNL     1       6.673   5.706  17.207  0.00  0.00    +0.000 C 
ATOM      5  C   UNL     1       7.261   4.589  16.372  0.00  0.00    +0.000 C 
ATOM      6  C   UNL     1       6.800   4.879  14.955  0.00  0.00    +0.000 C 
ATOM      7  O   UNL     1       5.962   6.039  15.061  0.00  0.00    +0.000 OA
ATOM      8  O   UNL     1       6.443   6.744  16.252  0.00  0.00    +0.000 OA
BRANCH   6   9
ATOM      9  C   UNL     1       5.976   3.773  14.302  0.00  0.00    +0.000 C 
BRANCH   9  10
ATOM     10  C   UNL     1       6.128   3.740  12.806  0.00  0.00    +0.000 C 
ATOM     11  O   UNL     1       5.317   3.266  12.026  0.00  0.00    +0.000 OA
BRANCH  10  12
ATOM     12  O   UNL     1       7.282   4.312  12.388  0.00  0.00    +0.000 OA
ATOM     13  H   UNL     1       7.717   3.845  11.654  0.00  0.00    +0.000 HD
ENDBRANCH  10  12
ENDBRANCH   9  10
ENDBRANCH   6   9
ENDBRANCH   3   4
ENDBRANCH   2   3
ENDBRANCH   1   2
BRANCH   1  14
ATOM     14  C   UNL     1       2.670   2.882  17.665  0.00  0.00    +0.000 C 
BRANCH  14  15
ATOM     15  C   UNL     1       2.179   3.419  18.996  0.00  0.00    +0.000 C 
BRANCH  15  16
ATOM     16  C   UNL     1       1.735   4.867  18.848  0.00  0.00    +0.000 C 
BRANCH  16  17
ATOM     17  C   UNL     1       2.170   5.659  20.068  0.00  0.00    +0.000 C 
BRANCH  17  18
ATOM     18  C   UNL     1       2.094   7.150  19.794  0.00  0.00    +0.000 C 
BRANCH  18  19
ATOM     19  C   UNL     1       2.549   7.432  18.371  0.00  0.00    +0.000 C 
BRANCH  19  20
ATOM     20  C   UNL     1       1.810   8.635  17.810  0.00  0.00    +0.000 C 
BRANCH  20  21
ATOM     21  C   UNL     1       1.536   9.646  18.913  0.00  0.00    +0.000 C 
BRANCH  21  22
ATOM     22  C   UNL     1       0.413  10.587  18.504  0.00  0.00    +0.000 C 
BRANCH  22  23
ATOM     23  C   UNL     1      -0.880  10.214  19.216  0.00  0.00    +0.000 C 
BRANCH  23  25
ATOM     24  C   UNL     1      -1.922   9.889  16.962  0.00  0.00    +0.000 C 
ATOM     25  C   UNL     1      -2.088  10.511  18.336  0.00  0.00    +0.000 C 
ENDBRANCH  23  25
ENDBRANCH  22  23
ENDBRANCH  21  22
ENDBRANCH  20  21
ENDBRANCH  19  20
ENDBRANCH  18  19
ENDBRANCH  17  18
ENDBRANCH  16  17
ENDBRANCH  15  16
ENDBRANCH  14  15
ENDBRANCH   1  14
TORSDOF 17
ENDMDL
MODEL 6
REMARK VINA RESULT:      -5.2      4.242      7.054
REMARK  Name = 
REMARK  18 active torsions:
REMARK  status: ('A' for Active; 'I' for Inactive)
REMARK    1  A    between atoms: C_1  and  C_2
REMARK    2  A    between atoms: C_2  and  C_3
REMARK    3  A    between atoms: C_3  and  C_4
REMARK    4  A    between atoms: C_4  and  C_5
REMARK    5  A    between atoms: C_5  and  C_6
REMARK    6  A    between atoms: C_6  and  C_7
REMARK    7  A    between atoms: C_7  and  C_8
REMARK    8  A    between atoms: C_8  and  C_9
REMARK    9  A    between atoms: C_9  and  C_10
REMARK   10  A    between atoms: C_10  and  C_11
REMARK   11  A    between atoms: C_11  and  C_12
REMARK   12  A    between atoms: C_12  and  C_13
REMARK   13  A    between atoms: C_13  and  C_14
REMARK   14  A    between atoms: C_14  and  C_15
REMARK   15  A    between atoms: C_15  and  C_16
REMARK   16  A    between atoms: C_18  and  C_19
REMARK   17  A    between atoms: C_19  and  C_20
REMARK   18  A    between atoms: C_20  and  O_22
REMARK                            x       y       z     vdW  Elec       q    Type
REMARK                         _______ _______ _______ _____ _____    ______ ____
ROOT
ATOM      1  C   UNL     1       3.746   7.325  17.382  0.00  0.00    +0.000 C 
ENDROOT
BRANCH   1   2
ATOM      2  C   UNL     1       2.622   7.412  18.406  0.00  0.00    +0.000 C 
BRANCH   2   3
ATOM      3  C   UNL     1       1.612   8.508  18.088  0.00  0.00    +0.000 C 
BRANCH   3   4
ATOM      4  C   UNL     1       1.600   9.600  19.165  0.00  0.00    +0.000 C 
ATOM      5  C   UNL     1       1.177  10.978  18.705  0.00  0.00    +0.000 C 
ATOM      6  C   UNL     1      -0.293  11.078  19.074  0.00  0.00    +0.000 C 
ATOM      7  O   UNL     1      -0.629   9.798  19.629  0.00  0.00    +0.000 OA
ATOM      8  O   UNL     1       0.631   9.275  20.165  0.00  0.00    +0.000 OA
BRANCH   6   9
ATOM      9  C   UNL     1      -1.239  11.337  17.907  0.00  0.00    +0.000 C 
BRANCH   9  10
ATOM     10  C   UNL     1      -2.650  10.901  18.192  0.00  0.00    +0.000 C 
ATOM     11  O   UNL     1      -3.507  11.590  18.722  0.00  0.00    +0.000 OA
BRANCH  10  12
ATOM     12  O   UNL     1      -2.893   9.633  17.784  0.00  0.00    +0.000 OA
ATOM     13  H   UNL     1      -3.428   9.570  16.974  0.00  0.00    +0.000 HD
ENDBRANCH  10  12
ENDBRANCH   9  10
ENDBRANCH   6   9
ENDBRANCH   3   4
ENDBRANCH   2   3
ENDBRANCH   1   2
BRANCH   1  14
ATOM     14  C   UNL     1       4.515   6.028  17.617  0.00  0.00    +0.000 C 
BRANCH  14  15
ATOM     15  C   UNL     1       4.762   5.796  19.095  0.00  0.00    +0.000 C 
BRANCH  15  16
ATOM     16  C   UNL     1       5.053   4.326  19.356  0.00  0.00    +0.000 C 
BRANCH  16  17
ATOM     17  C   UNL     1       4.685   3.509  18.130  0.00  0.00    +0.000 C 
BRANCH  17  18
ATOM     18  C   UNL     1       4.137   2.152  18.535  0.00  0.00    +0.000 C 
BRANCH  18  19
ATOM     19  C   UNL     1       2.689   2.033  18.089  0.00  0.00    +0.000 C 
BRANCH  19  20
ATOM     20  C   UNL     1       2.309   3.214  17.213  0.00  0.00    +0.000 C 
BRANCH  20  21
ATOM     21  C   UNL     1       1.278   4.082  17.918  0.00  0.00    +0.000 C 
BRANCH  21  22
ATOM     22  C   UNL     1       0.952   3.510  19.290  0.00  0.00    +0.000 C 
BRANCH  22  23
ATOM     23  C   UNL     1       1.112   4.578  20.364  0.00  0.00    +0.000 C 
BRANCH  23  25
ATOM     24  C   UNL     1       2.144   2.689  21.645  0.00  0.00    +0.000 C 
ATOM     25  C   UNL     1       2.188   4.180  21.367  0.00  0.00    +0.000 C 
ENDBRANCH  23  25
ENDBRANCH  22  23
ENDBRANCH  21  22
ENDBRANCH  20  21
ENDBRANCH  19  20
ENDBRANCH  18  19
ENDBRANCH  17  18
ENDBRANCH  16  17
ENDBRANCH  15  16
ENDBRANCH  14  15
ENDBRANCH   1  14
TORSDOF 17
ENDMDL
MODEL 7
REMARK VINA RESULT:      -5.2      1.558      2.133
REMARK  Name = 
REMARK  18 active torsions:
REMARK  status: ('A' for Active; 'I' for Inactive)
REMARK    1  A    between atoms: C_1  and  C_2
REMARK    2  A    between atoms: C_2  and  C_3
REMARK    3  A    between atoms: C_3  and  C_4
REMARK    4  A    between atoms: C_4  and  C_5
REMARK    5  A    between atoms: C_5  and  C_6
REMARK    6  A    between atoms: C_6  and  C_7
REMARK    7  A    between atoms: C_7  and  C_8
REMARK    8  A    between atoms: C_8  and  C_9
REMARK    9  A    between atoms: C_9  and  C_10
REMARK   10  A    between atoms: C_10  and  C_11
REMARK   11  A    between atoms: C_11  and  C_12
REMARK   12  A    between atoms: C_12  and  C_13
REMARK   13  A    between atoms: C_13  and  C_14
REMARK   14  A    between atoms: C_14  and  C_15
REMARK   15  A    between atoms: C_15  and  C_16
REMARK   16  A    between atoms: C_18  and  C_19
REMARK   17  A    between atoms: C_19  and  C_20
REMARK   18  A    between atoms: C_20  and  O_22
REMARK                            x       y       z     vdW  Elec       q    Type
REMARK                         _______ _______ _______ _____ _____    ______ ____
ROOT
ATOM      1  C   UNL     1       3.253   2.327  18.436  0.00  0.00    +0.000 C 
ENDROOT
BRANCH   1   2
ATOM      2  C   UNL     1       4.342   2.867  17.518  0.00  0.00    +0.000 C 
BRANCH   2   3
ATOM      3  C   UNL     1       4.219   4.365  17.267  0.00  0.00    +0.000 C 
BRANCH   3   4
ATOM      4  C   UNL     1       5.122   4.825  16.115  0.00  0.00    +0.000 C 
ATOM      5  C   UNL     1       5.737   6.199  16.266  0.00  0.00    +0.000 C 
ATOM      6  C   UNL     1       7.134   5.943  16.802  0.00  0.00    +0.000 C 
ATOM      7  O   UNL     1       7.212   4.522  16.987  0.00  0.00    +0.000 OA
ATOM      8  O   UNL     1       6.258   3.964  16.024  0.00  0.00    +0.000 OA
BRANCH   6   9
ATOM      9  C   UNL     1       7.445   6.600  18.144  0.00  0.00    +0.000 C 
BRANCH   9  10
ATOM     10  C   UNL     1       7.331   5.644  19.300  0.00  0.00    +0.000 C 
ATOM     11  O   UNL     1       6.287   5.311  19.838  0.00  0.00    +0.000 OA
BRANCH  10  12
ATOM     12  O   UNL     1       8.532   5.163  19.696  0.00  0.00    +0.000 OA
ATOM     13  H   UNL     1       9.274   5.778  19.560  0.00  0.00    +0.000 HD
ENDBRANCH  10  12
ENDBRANCH   9  10
ENDBRANCH   6   9
ENDBRANCH   3   4
ENDBRANCH   2   3
ENDBRANCH   1   2
BRANCH   1  14
ATOM     14  C   UNL     1       3.776   2.346  19.869  0.00  0.00    +0.000 C 
BRANCH  14  15
ATOM     15  C   UNL     1       2.691   2.767  20.843  0.00  0.00    +0.000 C 
BRANCH  15  16
ATOM     16  C   UNL     1       1.445   3.204  20.086  0.00  0.00    +0.000 C 
BRANCH  16  17
ATOM     17  C   UNL     1       1.063   4.612  20.506  0.00  0.00    +0.000 C 
BRANCH  17  18
ATOM     18  C   UNL     1       2.304   5.446  20.774  0.00  0.00    +0.000 C 
BRANCH  18  19
ATOM     19  C   UNL     1       2.134   6.826  20.161  0.00  0.00    +0.000 C 
BRANCH  19  20
ATOM     20  C   UNL     1       0.909   7.513  20.740  0.00  0.00    +0.000 C 
BRANCH  20  21
ATOM     21  C   UNL     1       1.329   8.633  21.679  0.00  0.00    +0.000 C 
BRANCH  21  22
ATOM     22  C   UNL     1       0.598   9.921  21.330  0.00  0.00    +0.000 C 
BRANCH  22  23
ATOM     23  C   UNL     1       0.595  10.141  19.823  0.00  0.00    +0.000 C 
BRANCH  23  25
ATOM     24  C   UNL     1      -1.458  10.162  18.389  0.00  0.00    +0.000 C 
ATOM     25  C   UNL     1      -0.629  10.940  19.394  0.00  0.00    +0.000 C 
ENDBRANCH  23  25
ENDBRANCH  22  23
ENDBRANCH  21  22
ENDBRANCH  20  21
ENDBRANCH  19  20
ENDBRANCH  18  19
ENDBRANCH  17  18
ENDBRANCH  16  17
ENDBRANCH  15  16
ENDBRANCH  14  15
ENDBRANCH   1  14
TORSDOF 17
ENDMDL
MODEL 8
REMARK VINA RESULT:      -5.1      4.809      7.975
REMARK  Name = 
REMARK  18 active torsions:
REMARK  status: ('A' for Active; 'I' for Inactive)
REMARK    1  A    between atoms: C_1  and  C_2
REMARK    2  A    between atoms: C_2  and  C_3
REMARK    3  A    between atoms: C_3  and  C_4
REMARK    4  A    between atoms: C_4  and  C_5
REMARK    5  A    between atoms: C_5  and  C_6
REMARK    6  A    between atoms: C_6  and  C_7
REMARK    7  A    between atoms: C_7  and  C_8
REMARK    8  A    between atoms: C_8  and  C_9
REMARK    9  A    between atoms: C_9  and  C_10
REMARK   10  A    between atoms: C_10  and  C_11
REMARK   11  A    between atoms: C_11  and  C_12
REMARK   12  A    between atoms: C_12  and  C_13
REMARK   13  A    between atoms: C_13  and  C_14
REMARK   14  A    between atoms: C_14  and  C_15
REMARK   15  A    between atoms: C_15  and  C_16
REMARK   16  A    between atoms: C_18  and  C_19
REMARK   17  A    between atoms: C_19  and  C_20
REMARK   18  A    between atoms: C_20  and  O_22
REMARK                            x       y       z     vdW  Elec       q    Type
REMARK                         _______ _______ _______ _____ _____    ______ ____
ROOT
ATOM      1  C   UNL     1       6.433   5.377  19.315  0.00  0.00    +0.000 C 
ENDROOT
BRANCH   1   2
ATOM      2  C   UNL     1       5.300   5.476  18.302  0.00  0.00    +0.000 C 
BRANCH   2   3
ATOM      3  C   UNL     1       4.017   4.805  18.777  0.00  0.00    +0.000 C 
BRANCH   3   4
ATOM      4  C   UNL     1       3.928   3.348  18.306  0.00  0.00    +0.000 C 
ATOM      5  C   UNL     1       3.191   2.399  19.226  0.00  0.00    +0.000 C 
ATOM      6  C   UNL     1       1.789   2.310  18.651  0.00  0.00    +0.000 C 
ATOM      7  O   UNL     1       1.780   3.216  17.539  0.00  0.00    +0.000 OA
ATOM      8  O   UNL     1       3.175   3.281  17.094  0.00  0.00    +0.000 OA
BRANCH   6   9
ATOM      9  C   UNL     1       0.671   2.732  19.599  0.00  0.00    +0.000 C 
BRANCH   9  10
ATOM     10  C   UNL     1       1.188   3.305  20.890  0.00  0.00    +0.000 C 
ATOM     11  O   UNL     1       1.460   2.658  21.890  0.00  0.00    +0.000 OA
BRANCH  10  12
ATOM     12  O   UNL     1       1.339   4.649  20.839  0.00  0.00    +0.000 OA
ATOM     13  H   UNL     1       0.841   5.134  21.519  0.00  0.00    +0.000 HD
ENDBRANCH  10  12
ENDBRANCH   9  10
ENDBRANCH   6   9
ENDBRANCH   3   4
ENDBRANCH   2   3
ENDBRANCH   1   2
BRANCH   1  14
ATOM     14  C   UNL     1       7.706   5.915  18.670  0.00  0.00    +0.000 C 
BRANCH  14  15
ATOM     15  C   UNL     1       7.419   6.518  17.309  0.00  0.00    +0.000 C 
BRANCH  15  16
ATOM     16  C   UNL     1       7.375   8.036  17.404  0.00  0.00    +0.000 C 
BRANCH  16  17
ATOM     17  C   UNL     1       8.402   8.512  18.416  0.00  0.00    +0.000 C 
BRANCH  17  18
ATOM     18  C   UNL     1       8.711   9.985  18.214  0.00  0.00    +0.000 C 
BRANCH  18  19
ATOM     19  C   UNL     1       9.549  10.494  19.375  0.00  0.00    +0.000 C 
BRANCH  19  20
ATOM     20  C   UNL     1      10.577  11.499  18.881  0.00  0.00    +0.000 C 
BRANCH  20  21
ATOM     21  C   UNL     1      11.442  11.978  20.036  0.00  0.00    +0.000 C 
BRANCH  21  22
ATOM     22  C   UNL     1      11.300  13.482  20.218  0.00  0.00    +0.000 C 
BRANCH  22  23
ATOM     23  C   UNL     1       9.938  13.821  20.810  0.00  0.00    +0.000 C 
BRANCH  23  25
ATOM     24  C   UNL     1      10.997  16.031  21.327  0.00  0.00    +0.000 C 
ATOM     25  C   UNL     1      10.055  14.951  21.826  0.00  0.00    +0.000 C 
ENDBRANCH  23  25
ENDBRANCH  22  23
ENDBRANCH  21  22
ENDBRANCH  20  21
ENDBRANCH  19  20
ENDBRANCH  18  19
ENDBRANCH  17  18
ENDBRANCH  16  17
ENDBRANCH  15  16
ENDBRANCH  14  15
ENDBRANCH   1  14
TORSDOF 17
ENDMDL
MODEL 9
REMARK VINA RESULT:      -5.1      4.071      7.373
REMARK  Name = 
REMARK  18 active torsions:
REMARK  status: ('A' for Active; 'I' for Inactive)
REMARK    1  A    between atoms: C_1  and  C_2
REMARK    2  A    between atoms: C_2  and  C_3
REMARK    3  A    between atoms: C_3  and  C_4
REMARK    4  A    between atoms: C_4  and  C_5
REMARK    5  A    between atoms: C_5  and  C_6
REMARK    6  A    between atoms: C_6  and  C_7
REMARK    7  A    between atoms: C_7  and  C_8
REMARK    8  A    between atoms: C_8  and  C_9
REMARK    9  A    between atoms: C_9  and  C_10
REMARK   10  A    between atoms: C_10  and  C_11
REMARK   11  A    between atoms: C_11  and  C_12
REMARK   12  A    between atoms: C_12  and  C_13
REMARK   13  A    between atoms: C_13  and  C_14
REMARK   14  A    between atoms: C_14  and  C_15
REMARK   15  A    between atoms: C_15  and  C_16
REMARK   16  A    between atoms: C_18  and  C_19
REMARK   17  A    between atoms: C_19  and  C_20
REMARK   18  A    between atoms: C_20  and  O_22
REMARK                            x       y       z     vdW  Elec       q    Type
REMARK                         _______ _______ _______ _____ _____    ______ ____
ROOT
ATOM      1  C   UNL     1       2.367   7.512  19.590  0.00  0.00    +0.000 C 
ENDROOT
BRANCH   1   2
ATOM      2  C   UNL     1       1.599   8.160  18.445  0.00  0.00    +0.000 C 
BRANCH   2   3
ATOM      3  C   UNL     1       2.017   9.603  18.190  0.00  0.00    +0.000 C 
BRANCH   3   4
ATOM      4  C   UNL     1       0.858  10.581  18.419  0.00  0.00    +0.000 C 
ATOM      5  C   UNL     1      -0.372  10.005  19.086  0.00  0.00    +0.000 C 
ATOM      6  C   UNL     1      -0.226  10.370  20.552  0.00  0.00    +0.000 C 
ATOM      7  O   UNL     1       1.041  11.035  20.650  0.00  0.00    +0.000 OA
ATOM      8  O   UNL     1       1.270  11.609  19.321  0.00  0.00    +0.000 OA
BRANCH   6   9
ATOM      9  C   UNL     1      -0.202   9.188  21.516  0.00  0.00    +0.000 C 
BRANCH   9  10
ATOM     10  C   UNL     1       0.581   9.474  22.768  0.00  0.00    +0.000 C 
ATOM     11  O   UNL     1       0.103   9.829  23.834  0.00  0.00    +0.000 OA
BRANCH  10  12
ATOM     12  O   UNL     1       1.912   9.285  22.602  0.00  0.00    +0.000 OA
ATOM     13  H   UNL     1       2.464   9.711  23.280  0.00  0.00    +0.000 HD
ENDBRANCH  10  12
ENDBRANCH   9  10
ENDBRANCH   6   9
ENDBRANCH   3   4
ENDBRANCH   2   3
ENDBRANCH   1   2
BRANCH   1  14
ATOM     14  C   UNL     1       2.426   6.008  19.343  0.00  0.00    +0.000 C 
BRANCH  14  15
ATOM     15  C   UNL     1       3.107   5.695  18.024  0.00  0.00    +0.000 C 
BRANCH  15  16
ATOM     16  C   UNL     1       4.510   6.282  18.004  0.00  0.00    +0.000 C 
BRANCH  16  17
ATOM     17  C   UNL     1       5.407   5.487  18.937  0.00  0.00    +0.000 C 
BRANCH  17  18
ATOM     18  C   UNL     1       5.948   4.253  18.237  0.00  0.00    +0.000 C 
BRANCH  18  19
ATOM     19  C   UNL     1       7.297   4.569  17.613  0.00  0.00    +0.000 C 
BRANCH  19  20
ATOM     20  C   UNL     1       7.192   4.564  16.097  0.00  0.00    +0.000 C 
BRANCH  20  21
ATOM     21  C   UNL     1       5.909   3.872  15.662  0.00  0.00    +0.000 C 
BRANCH  21  22
ATOM     22  C   UNL     1       5.607   4.183  14.204  0.00  0.00    +0.000 C 
BRANCH  22  23
ATOM     23  C   UNL     1       6.886   4.165  13.378  0.00  0.00    +0.000 C 
BRANCH  23  25
ATOM     24  C   UNL     1       5.314   2.988  11.824  0.00  0.00    +0.000 C 
ATOM     25  C   UNL     1       6.590   3.802  11.928  0.00  0.00    +0.000 C 
ENDBRANCH  23  25
ENDBRANCH  22  23
ENDBRANCH  21  22
ENDBRANCH  20  21
ENDBRANCH  19  20
ENDBRANCH  18  19
ENDBRANCH  17  18
ENDBRANCH  16  17
ENDBRANCH  15  16
ENDBRANCH  14  15
ENDBRANCH   1  14
TORSDOF 17
ENDMDL
