MODEL 1
REMARK VINA RESULT:      -8.1      0.000      0.000
REMARK  Name = 
REMARK  5 active torsions:
REMARK  status: ('A' for Active; 'I' for Inactive)
REMARK    1  A    between atoms: C_1  and  O_2
REMARK    2  A    between atoms: O_2  and  C_3
REMARK    3  A    between atoms: C_6  and  C_7
REMARK    4  A    between atoms: C_17  and  C_18
REMARK    5  A    between atoms: C_31  and  C_32
REMARK                            x       y       z     vdW  Elec       q    Type
REMARK                         _______ _______ _______ _____ _____    ______ ____
ROOT
ATOM      1  C   UNL     1       0.913   9.340  20.537  0.00  0.00    +0.000 A 
ATOM      2  C   UNL     1      -0.180   9.279  21.374  0.00  0.00    +0.000 A 
ATOM      3  C   UNL     1      -0.723  10.466  21.810  0.00  0.00    +0.000 A 
ATOM      4  C   UNL     1      -0.184  11.713  21.413  0.00  0.00    +0.000 A 
ATOM      5  C   UNL     1      -0.643  12.999  21.754  0.00  0.00    +0.000 A 
ATOM      6  N   UNL     1      -1.807  13.292  22.464  0.00  0.00    +0.000 N 
ATOM      7  C   UNL     1      -2.949  12.362  22.449  0.00  0.00    +0.000 C 
ATOM      8  C   UNL     1      -4.247  13.069  22.831  0.00  0.00    +0.000 C 
ATOM      9  O   UNL     1      -4.121  13.653  24.134  0.00  0.00    +0.000 OA
ATOM     10  C   UNL     1      -3.063  14.625  24.128  0.00  0.00    +0.000 C 
ATOM     11  C   UNL     1      -1.683  14.007  23.768  0.00  0.00    +0.000 C 
ATOM     12  C   UNL     1      -0.646  15.129  23.825  0.00  0.00    +0.000 C 
ATOM     13  N   UNL     1       0.036  14.078  21.329  0.00  0.00    +0.000 NA
ATOM     14  C   UNL     1       1.139  13.940  20.591  0.00  0.00    +0.000 A 
ATOM     15  N   UNL     1       1.833  15.057  20.211  0.00  0.00    +0.000 N 
ATOM     16  C   UNL     1       1.476  16.391  20.676  0.00  0.00    +0.000 C 
ATOM     17  C   UNL     1       1.314  17.325  19.469  0.00  0.00    +0.000 C 
ATOM     18  O   UNL     1       2.475  17.308  18.619  0.00  0.00    +0.000 OA
ATOM     19  C   UNL     1       2.720  15.974  18.134  0.00  0.00    +0.000 C 
ATOM     20  C   UNL     1       2.963  14.989  19.290  0.00  0.00    +0.000 C 
ATOM     21  N   UNL     1       1.590  12.752  20.210  0.00  0.00    +0.000 NA
ATOM     22  C   UNL     1       0.954  11.669  20.607  0.00  0.00    +0.000 A 
ATOM     23  N   UNL     1       1.475  10.515  20.184  0.00  0.00    +0.000 NA
ENDROOT
BRANCH   1  27
ATOM     24  C   UNL     1       2.600   5.792  18.797  0.00  0.00    +0.000 A 
ATOM     25  C   UNL     1       2.763   7.044  18.193  0.00  0.00    +0.000 A 
ATOM     26  C   UNL     1       2.222   8.186  18.767  0.00  0.00    +0.000 A 
ATOM     27  C   UNL     1       1.493   8.125  19.961  0.00  0.00    +0.000 A 
ATOM     28  C   UNL     1       1.355   6.876  20.582  0.00  0.00    +0.000 A 
ATOM     29  C   UNL     1       1.913   5.709  20.027  0.00  0.00    +0.000 A 
BRANCH  29  30
ATOM     30  C   UNL     1       1.719   4.459  20.828  0.00  0.00    +0.000 C 
ATOM     31  N   UNL     1       0.730   3.596  20.446  0.00  0.00    +0.000 N 
ATOM     32  O   UNL     1       2.420   4.187  21.794  0.00  0.00    +0.000 OA
ATOM     33  H   UNL     1       0.166   3.776  19.626  0.00  0.00    +0.000 HD
ATOM     34  H   UNL     1       0.648   2.724  20.942  0.00  0.00    +0.000 HD
ENDBRANCH  29  30
BRANCH  24  36
ATOM     35  C   UNL     1       4.535   4.468  18.422  0.00  0.00    +0.000 C 
ATOM     36  O   UNL     1       3.133   4.653  18.237  0.00  0.00    +0.000 OA
ENDBRANCH  24  36
ENDBRANCH   1  27
TORSDOF 3
ENDMDL
MODEL 2
REMARK VINA RESULT:      -8.0      2.853      4.662
REMARK  Name = 
REMARK  5 active torsions:
REMARK  status: ('A' for Active; 'I' for Inactive)
REMARK    1  A    between atoms: C_1  and  O_2
REMARK    2  A    between atoms: O_2  and  C_3
REMARK    3  A    between atoms: C_6  and  C_7
REMARK    4  A    between atoms: C_17  and  C_18
REMARK    5  A    between atoms: C_31  and  C_32
REMARK                            x       y       z     vdW  Elec       q    Type
REMARK                         _______ _______ _______ _____ _____    ______ ____
ROOT
ATOM      1  C   UNL     1       0.494  10.498  19.680  0.00  0.00    +0.000 A 
ATOM      2  C   UNL     1       0.994  11.366  20.625  0.00  0.00    +0.000 A 
ATOM      3  C   UNL     1       0.144  12.324  21.133  0.00  0.00    +0.000 A 
ATOM      4  C   UNL     1      -1.201  12.416  20.704  0.00  0.00    +0.000 A 
ATOM      5  C   UNL     1      -2.187  13.318  21.146  0.00  0.00    +0.000 A 
ATOM      6  N   UNL     1      -2.054  14.228  22.194  0.00  0.00    +0.000 N 
ATOM      7  C   UNL     1      -1.107  13.974  23.293  0.00  0.00    +0.000 C 
ATOM      8  C   UNL     1      -1.472  14.779  24.538  0.00  0.00    +0.000 C 
ATOM      9  O   UNL     1      -1.484  16.179  24.229  0.00  0.00    +0.000 OA
ATOM     10  C   UNL     1      -2.468  16.443  23.218  0.00  0.00    +0.000 C 
ATOM     11  C   UNL     1      -2.185  15.685  21.891  0.00  0.00    +0.000 C 
ATOM     12  C   UNL     1      -3.278  16.070  20.896  0.00  0.00    +0.000 C 
ATOM     13  N   UNL     1      -3.404  13.298  20.577  0.00  0.00    +0.000 NA
ATOM     14  C   UNL     1      -3.684  12.435  19.598  0.00  0.00    +0.000 A 
ATOM     15  N   UNL     1      -4.919  12.469  19.010  0.00  0.00    +0.000 N 
ATOM     16  C   UNL     1      -5.908  13.490  19.333  0.00  0.00    +0.000 C 
ATOM     17  C   UNL     1      -7.233  12.813  19.713  0.00  0.00    +0.000 C 
ATOM     18  O   UNL     1      -7.673  11.892  18.698  0.00  0.00    +0.000 OA
ATOM     19  C   UNL     1      -6.682  10.869  18.488  0.00  0.00    +0.000 C 
ATOM     20  C   UNL     1      -5.340  11.467  18.035  0.00  0.00    +0.000 C 
ATOM     21  N   UNL     1      -2.803  11.539  19.174  0.00  0.00    +0.000 NA
ATOM     22  C   UNL     1      -1.597  11.526  19.704  0.00  0.00    +0.000 A 
ATOM     23  N   UNL     1      -0.771  10.599  19.218  0.00  0.00    +0.000 NA
ENDROOT
BRANCH   1  27
ATOM     24  C   UNL     1       2.864   7.283  18.095  0.00  0.00    +0.000 A 
ATOM     25  C   UNL     1       2.760   8.506  17.423  0.00  0.00    +0.000 A 
ATOM     26  C   UNL     1       1.999   9.543  17.948  0.00  0.00    +0.000 A 
ATOM     27  C   UNL     1       1.308   9.399  19.157  0.00  0.00    +0.000 A 
ATOM     28  C   UNL     1       1.436   8.185  19.845  0.00  0.00    +0.000 A 
ATOM     29  C   UNL     1       2.219   7.128  19.340  0.00  0.00    +0.000 A 
BRANCH  29  30
ATOM     30  C   UNL     1       2.293   5.911  20.209  0.00  0.00    +0.000 C 
ATOM     31  N   UNL     1       3.485   5.247  20.287  0.00  0.00    +0.000 N 
ATOM     32  O   UNL     1       1.332   5.508  20.852  0.00  0.00    +0.000 OA
ATOM     33  H   UNL     1       4.305   5.584  19.801  0.00  0.00    +0.000 HD
ATOM     34  H   UNL     1       3.552   4.473  20.926  0.00  0.00    +0.000 HD
ENDBRANCH  29  30
BRANCH  24  36
ATOM     35  C   UNL     1       4.811   6.627  16.906  0.00  0.00    +0.000 C 
ATOM     36  O   UNL     1       3.615   6.249  17.586  0.00  0.00    +0.000 OA
ENDBRANCH  24  36
ENDBRANCH   1  27
TORSDOF 3
ENDMDL
MODEL 3
REMARK VINA RESULT:      -7.9      0.998      1.035
REMARK  Name = 
REMARK  5 active torsions:
REMARK  status: ('A' for Active; 'I' for Inactive)
REMARK    1  A    between atoms: C_1  and  O_2
REMARK    2  A    between atoms: O_2  and  C_3
REMARK    3  A    between atoms: C_6  and  C_7
REMARK    4  A    between atoms: C_17  and  C_18
REMARK    5  A    between atoms: C_31  and  C_32
REMARK                            x       y       z     vdW  Elec       q    Type
REMARK                         _______ _______ _______ _____ _____    ______ ____
ROOT
ATOM      1  C   UNL     1       0.935   9.962  20.181  0.00  0.00    +0.000 A 
ATOM      2  C   UNL     1      -0.105   9.743  21.059  0.00  0.00    +0.000 A 
ATOM      3  C   UNL     1      -0.728  10.842  21.606  0.00  0.00    +0.000 A 
ATOM      4  C   UNL     1      -0.321  12.157  21.280  0.00  0.00    +0.000 A 
ATOM      5  C   UNL     1      -0.873  13.369  21.737  0.00  0.00    +0.000 A 
ATOM      6  N   UNL     1      -2.021  13.503  22.517  0.00  0.00    +0.000 N 
ATOM      7  C   UNL     1      -3.077  12.476  22.482  0.00  0.00    +0.000 C 
ATOM      8  C   UNL     1      -4.410  13.034  22.973  0.00  0.00    +0.000 C 
ATOM      9  O   UNL     1      -4.271  13.533  24.308  0.00  0.00    +0.000 OA
ATOM     10  C   UNL     1      -3.304  14.595  24.330  0.00  0.00    +0.000 C 
ATOM     11  C   UNL     1      -1.895  14.133  23.865  0.00  0.00    +0.000 C 
ATOM     12  C   UNL     1      -0.959  15.337  23.960  0.00  0.00    +0.000 C 
ATOM     13  N   UNL     1      -0.314  14.532  21.365  0.00  0.00    +0.000 NA
ATOM     14  C   UNL     1       0.759  14.549  20.571  0.00  0.00    +0.000 A 
ATOM     15  N   UNL     1       1.332  15.748  20.246  0.00  0.00    +0.000 N 
ATOM     16  C   UNL     1       0.884  17.008  20.825  0.00  0.00    +0.000 C 
ATOM     17  C   UNL     1       0.579  18.006  19.700  0.00  0.00    +0.000 C 
ATOM     18  O   UNL     1       1.693  18.156  18.801  0.00  0.00    +0.000 OA
ATOM     19  C   UNL     1       2.030  16.888  18.207  0.00  0.00    +0.000 C 
ATOM     20  C   UNL     1       2.416  15.849  19.274  0.00  0.00    +0.000 C 
ATOM     21  N   UNL     1       1.293  13.437  20.083  0.00  0.00    +0.000 NA
ATOM     22  C   UNL     1       0.775  12.274  20.425  0.00  0.00    +0.000 A 
ATOM     23  N   UNL     1       1.373  11.207  19.894  0.00  0.00    +0.000 NA
ENDROOT
BRANCH   1  27
ATOM     24  C   UNL     1       2.831   6.710  18.110  0.00  0.00    +0.000 A 
ATOM     25  C   UNL     1       2.687   7.967  17.510  0.00  0.00    +0.000 A 
ATOM     26  C   UNL     1       2.081   9.015  18.191  0.00  0.00    +0.000 A 
ATOM     27  C   UNL     1       1.590   8.850  19.491  0.00  0.00    +0.000 A 
ATOM     28  C   UNL     1       1.761   7.601  20.103  0.00  0.00    +0.000 A 
ATOM     29  C   UNL     1       2.390   6.531  19.438  0.00  0.00    +0.000 A 
BRANCH  29  30
ATOM     30  C   UNL     1       2.537   5.274  20.237  0.00  0.00    +0.000 C 
ATOM     31  N   UNL     1       3.614   4.471  19.983  0.00  0.00    +0.000 N 
ATOM     32  O   UNL     1       1.738   4.957  21.109  0.00  0.00    +0.000 OA
ATOM     33  H   UNL     1       4.312   4.732  19.300  0.00  0.00    +0.000 HD
ATOM     34  H   UNL     1       3.749   3.664  20.569  0.00  0.00    +0.000 HD
ENDBRANCH  29  30
BRANCH  24  36
ATOM     35  C   UNL     1       4.675   5.963  16.815  0.00  0.00    +0.000 C 
ATOM     36  O   UNL     1       3.430   5.665  17.445  0.00  0.00    +0.000 OA
ENDBRANCH  24  36
ENDBRANCH   1  27
TORSDOF 3
ENDMDL
MODEL 4
REMARK VINA RESULT:      -7.9      1.630      1.709
REMARK  Name = 
REMARK  5 active torsions:
REMARK  status: ('A' for Active; 'I' for Inactive)
REMARK    1  A    between atoms: C_1  and  O_2
REMARK    2  A    between atoms: O_2  and  C_3
REMARK    3  A    between atoms: C_6  and  C_7
REMARK    4  A    between atoms: C_17  and  C_18
REMARK    5  A    between atoms: C_31  and  C_32
REMARK                            x       y       z     vdW  Elec       q    Type
REMARK                         _______ _______ _______ _____ _____    ______ ____
ROOT
ATOM      1  C   UNL     1       1.106   9.803  19.277  0.00  0.00    +0.000 A 
ATOM      2  C   UNL     1      -0.121   9.716  19.896  0.00  0.00    +0.000 A 
ATOM      3  C   UNL     1      -0.794  10.888  20.160  0.00  0.00    +0.000 A 
ATOM      4  C   UNL     1      -0.250  12.145  19.806  0.00  0.00    +0.000 A 
ATOM      5  C   UNL     1      -0.826  13.416  19.986  0.00  0.00    +0.000 A 
ATOM      6  N   UNL     1      -2.116  13.672  20.449  0.00  0.00    +0.000 N 
ATOM      7  C   UNL     1      -3.189  12.679  20.269  0.00  0.00    +0.000 C 
ATOM      8  C   UNL     1      -4.568  13.327  20.364  0.00  0.00    +0.000 C 
ATOM      9  O   UNL     1      -4.720  13.973  21.634  0.00  0.00    +0.000 OA
ATOM     10  C   UNL     1      -3.728  15.001  21.776  0.00  0.00    +0.000 C 
ATOM     11  C   UNL     1      -2.277  14.449  21.714  0.00  0.00    +0.000 C 
ATOM     12  C   UNL     1      -1.325  15.629  21.905  0.00  0.00    +0.000 C 
ATOM     13  N   UNL     1      -0.131  14.513  19.640  0.00  0.00    +0.000 NA
ATOM     14  C   UNL     1       1.098  14.407  19.131  0.00  0.00    +0.000 A 
ATOM     15  N   UNL     1       1.797  15.544  18.829  0.00  0.00    +0.000 N 
ATOM     16  C   UNL     1       1.295  16.875  19.148  0.00  0.00    +0.000 C 
ATOM     17  C   UNL     1       1.320  17.745  17.884  0.00  0.00    +0.000 C 
ATOM     18  O   UNL     1       2.621  17.758  17.269  0.00  0.00    +0.000 OA
ATOM     19  C   UNL     1       3.017  16.421  16.910  0.00  0.00    +0.000 C 
ATOM     20  C   UNL     1       3.083  15.502  18.141  0.00  0.00    +0.000 C 
ATOM     21  N   UNL     1       1.669  13.232  18.904  0.00  0.00    +0.000 NA
ATOM     22  C   UNL     1       1.022  12.131  19.231  0.00  0.00    +0.000 A 
ATOM     23  N   UNL     1       1.668  10.993  18.975  0.00  0.00    +0.000 NA
ENDROOT
BRANCH   1  27
ATOM     24  C   UNL     1       3.256   6.283  18.073  0.00  0.00    +0.000 A 
ATOM     25  C   UNL     1       3.376   7.483  17.364  0.00  0.00    +0.000 A 
ATOM     26  C   UNL     1       2.684   8.619  17.766  0.00  0.00    +0.000 A 
ATOM     27  C   UNL     1       1.842   8.600  18.885  0.00  0.00    +0.000 A 
ATOM     28  C   UNL     1       1.746   7.407  19.613  0.00  0.00    +0.000 A 
ATOM     29  C   UNL     1       2.454   6.250  19.234  0.00  0.00    +0.000 A 
BRANCH  29  30
ATOM     30  C   UNL     1       2.283   5.067  20.136  0.00  0.00    +0.000 C 
ATOM     31  N   UNL     1       3.341   4.216  20.289  0.00  0.00    +0.000 N 
ATOM     32  O   UNL     1       1.240   4.852  20.739  0.00  0.00    +0.000 OA
ATOM     33  H   UNL     1       4.228   4.395  19.837  0.00  0.00    +0.000 HD
ATOM     34  H   UNL     1       3.248   3.462  20.950  0.00  0.00    +0.000 HD
ENDBRANCH  29  30
BRANCH  24  36
ATOM     35  C   UNL     1       4.866   5.323  16.616  0.00  0.00    +0.000 C 
ATOM     36  O   UNL     1       3.937   5.152  17.685  0.00  0.00    +0.000 OA
ENDBRANCH  24  36
ENDBRANCH   1  27
TORSDOF 3
ENDMDL
MODEL 5
REMARK VINA RESULT:      -7.9      2.281      2.589
REMARK  Name = 
REMARK  5 active torsions:
REMARK  status: ('A' for Active; 'I' for Inactive)
REMARK    1  A    between atoms: C_1  and  O_2
REMARK    2  A    between atoms: O_2  and  C_3
REMARK    3  A    between atoms: C_6  and  C_7
REMARK    4  A    between atoms: C_17  and  C_18
REMARK    5  A    between atoms: C_31  and  C_32
REMARK                            x       y       z     vdW  Elec       q    Type
REMARK                         _______ _______ _______ _____ _____    ______ ____
ROOT
ATOM      1  C   UNL     1       1.721   8.962  18.406  0.00  0.00    +0.000 A 
ATOM      2  C   UNL     1       0.419   8.784  18.819  0.00  0.00    +0.000 A 
ATOM      3  C   UNL     1      -0.325   9.907  19.106  0.00  0.00    +0.000 A 
ATOM      4  C   UNL     1       0.224  11.206  18.980  0.00  0.00    +0.000 A 
ATOM      5  C   UNL     1      -0.415  12.438  19.211  0.00  0.00    +0.000 A 
ATOM      6  N   UNL     1      -1.767  12.618  19.498  0.00  0.00    +0.000 N 
ATOM      7  C   UNL     1      -2.767  11.635  19.049  0.00  0.00    +0.000 C 
ATOM      8  C   UNL     1      -4.166  12.245  19.005  0.00  0.00    +0.000 C 
ATOM      9  O   UNL     1      -4.527  12.738  20.301  0.00  0.00    +0.000 OA
ATOM     10  C   UNL     1      -3.602  13.760  20.705  0.00  0.00    +0.000 C 
ATOM     11  C   UNL     1      -2.140  13.242  20.803  0.00  0.00    +0.000 C 
ATOM     12  C   UNL     1      -1.267  14.407  21.266  0.00  0.00    +0.000 C 
ATOM     13  N   UNL     1       0.287  13.578  19.098  0.00  0.00    +0.000 NA
ATOM     14  C   UNL     1       1.581  13.552  18.773  0.00  0.00    +0.000 A 
ATOM     15  N   UNL     1       2.278  14.727  18.709  0.00  0.00    +0.000 N 
ATOM     16  C   UNL     1       1.690  16.004  19.094  0.00  0.00    +0.000 C 
ATOM     17  C   UNL     1       1.874  17.014  17.953  0.00  0.00    +0.000 C 
ATOM     18  O   UNL     1       3.251  17.119  17.548  0.00  0.00    +0.000 OA
ATOM     19  C   UNL     1       3.741  15.839  17.106  0.00  0.00    +0.000 C 
ATOM     20  C   UNL     1       3.654  14.785  18.223  0.00  0.00    +0.000 C 
ATOM     21  N   UNL     1       2.218  12.420  18.506  0.00  0.00    +0.000 NA
ATOM     22  C   UNL     1       1.567  11.279  18.607  0.00  0.00    +0.000 A 
ATOM     23  N   UNL     1       2.282  10.188  18.327  0.00  0.00    +0.000 NA
ENDROOT
BRANCH   1  27
ATOM     24  C   UNL     1       4.161   5.650  17.166  0.00  0.00    +0.000 A 
ATOM     25  C   UNL     1       4.605   6.970  17.025  0.00  0.00    +0.000 A 
ATOM     26  C   UNL     1       3.813   8.034  17.438  0.00  0.00    +0.000 A 
ATOM     27  C   UNL     1       2.547   7.825  17.999  0.00  0.00    +0.000 A 
ATOM     28  C   UNL     1       2.116   6.502  18.167  0.00  0.00    +0.000 A 
ATOM     29  C   UNL     1       2.911   5.409  17.775  0.00  0.00    +0.000 A 
BRANCH  29  30
ATOM     30  C   UNL     1       2.333   4.057  18.058  0.00  0.00    +0.000 C 
ATOM     31  N   UNL     1       3.097   3.162  18.753  0.00  0.00    +0.000 N 
ATOM     32  O   UNL     1       1.205   3.742  17.701  0.00  0.00    +0.000 OA
ATOM     33  H   UNL     1       4.014   3.413  19.098  0.00  0.00    +0.000 HD
ATOM     34  H   UNL     1       2.680   2.281  19.004  0.00  0.00    +0.000 HD
ENDBRANCH  29  30
BRANCH  24  36
ATOM     35  C   UNL     1       6.316   4.656  17.119  0.00  0.00    +0.000 C 
ATOM     36  O   UNL     1       4.937   4.588  16.761  0.00  0.00    +0.000 OA
ENDBRANCH  24  36
ENDBRANCH   1  27
TORSDOF 3
ENDMDL
MODEL 6
REMARK VINA RESULT:      -7.8      2.626      3.276
REMARK  Name = 
REMARK  5 active torsions:
REMARK  status: ('A' for Active; 'I' for Inactive)
REMARK    1  A    between atoms: C_1  and  O_2
REMARK    2  A    between atoms: O_2  and  C_3
REMARK    3  A    between atoms: C_6  and  C_7
REMARK    4  A    between atoms: C_17  and  C_18
REMARK    5  A    between atoms: C_31  and  C_32
REMARK                            x       y       z     vdW  Elec       q    Type
REMARK                         _______ _______ _______ _____ _____    ______ ____
ROOT
ATOM      1  C   UNL     1       2.263   8.568  18.011  0.00  0.00    +0.000 A 
ATOM      2  C   UNL     1       0.928   8.277  18.185  0.00  0.00    +0.000 A 
ATOM      3  C   UNL     1       0.064   9.326  18.409  0.00  0.00    +0.000 A 
ATOM      4  C   UNL     1       0.526  10.662  18.457  0.00  0.00    +0.000 A 
ATOM      5  C   UNL     1      -0.234  11.831  18.651  0.00  0.00    +0.000 A 
ATOM      6  N   UNL     1      -1.625  11.902  18.715  0.00  0.00    +0.000 N 
ATOM      7  C   UNL     1      -2.459  10.892  18.043  0.00  0.00    +0.000 C 
ATOM      8  C   UNL     1      -3.874  11.412  17.799  0.00  0.00    +0.000 C 
ATOM      9  O   UNL     1      -4.480  11.785  19.043  0.00  0.00    +0.000 OA
ATOM     10  C   UNL     1      -3.715  12.833  19.659  0.00  0.00    +0.000 C 
ATOM     11  C   UNL     1      -2.254  12.404  19.972  0.00  0.00    +0.000 C 
ATOM     12  C   UNL     1      -1.560  13.587  20.647  0.00  0.00    +0.000 C 
ATOM     13  N   UNL     1       0.389  13.019  18.728  0.00  0.00    +0.000 NA
ATOM     14  C   UNL     1       1.717  13.100  18.626  0.00  0.00    +0.000 A 
ATOM     15  N   UNL     1       2.324  14.320  18.753  0.00  0.00    +0.000 N 
ATOM     16  C   UNL     1       1.586  15.525  19.108  0.00  0.00    +0.000 C 
ATOM     17  C   UNL     1       1.878  16.625  18.079  0.00  0.00    +0.000 C 
ATOM     18  O   UNL     1       3.291  16.847  17.920  0.00  0.00    +0.000 OA
ATOM     19  C   UNL     1       3.943  15.636  17.492  0.00  0.00    +0.000 C 
ATOM     20  C   UNL     1       3.753  14.501  18.512  0.00  0.00    +0.000 C 
ATOM     21  N   UNL     1       2.474  12.034  18.403  0.00  0.00    +0.000 NA
ATOM     22  C   UNL     1       1.903  10.849  18.323  0.00  0.00    +0.000 A 
ATOM     23  N   UNL     1       2.735   9.830  18.102  0.00  0.00    +0.000 NA
ENDROOT
BRANCH   1  27
ATOM     24  C   UNL     1       5.094   5.500  16.993  0.00  0.00    +0.000 A 
ATOM     25  C   UNL     1       5.126   6.752  16.369  0.00  0.00    +0.000 A 
ATOM     26  C   UNL     1       4.213   7.741  16.712  0.00  0.00    +0.000 A 
ATOM     27  C   UNL     1       3.229   7.518  17.682  0.00  0.00    +0.000 A 
ATOM     28  C   UNL     1       3.215   6.275  18.328  0.00  0.00    +0.000 A 
ATOM     29  C   UNL     1       4.144   5.266  18.010  0.00  0.00    +0.000 A 
BRANCH  29  30
ATOM     30  C   UNL     1       4.030   4.009  18.816  0.00  0.00    +0.000 C 
ATOM     31  N   UNL     1       5.182   3.390  19.212  0.00  0.00    +0.000 N 
ATOM     32  O   UNL     1       2.947   3.534  19.134  0.00  0.00    +0.000 OA
ATOM     33  H   UNL     1       6.089   3.786  19.000  0.00  0.00    +0.000 HD
ATOM     34  H   UNL     1       5.103   2.587  19.813  0.00  0.00    +0.000 HD
ENDBRANCH  29  30
BRANCH  24  36
ATOM     35  C   UNL     1       5.865   3.970  15.349  0.00  0.00    +0.000 C 
ATOM     36  O   UNL     1       5.993   4.512  16.663  0.00  0.00    +0.000 OA
ENDBRANCH  24  36
ENDBRANCH   1  27
TORSDOF 3
ENDMDL
MODEL 7
REMARK VINA RESULT:      -7.7      2.334      3.044
REMARK  Name = 
REMARK  5 active torsions:
REMARK  status: ('A' for Active; 'I' for Inactive)
REMARK    1  A    between atoms: C_1  and  O_2
REMARK    2  A    between atoms: O_2  and  C_3
REMARK    3  A    between atoms: C_6  and  C_7
REMARK    4  A    between atoms: C_17  and  C_18
REMARK    5  A    between atoms: C_31  and  C_32
REMARK                            x       y       z     vdW  Elec       q    Type
REMARK                         _______ _______ _______ _____ _____    ______ ____
ROOT
ATOM      1  C   UNL     1       1.514   9.078  19.005  0.00  0.00    +0.000 A 
ATOM      2  C   UNL     1       0.205   8.954  19.415  0.00  0.00    +0.000 A 
ATOM      3  C   UNL     1      -0.526  10.107  19.595  0.00  0.00    +0.000 A 
ATOM      4  C   UNL     1       0.042  11.382  19.364  0.00  0.00    +0.000 A 
ATOM      5  C   UNL     1      -0.582  12.638  19.480  0.00  0.00    +0.000 A 
ATOM      6  N   UNL     1      -1.935  12.860  19.734  0.00  0.00    +0.000 N 
ATOM      7  C   UNL     1      -2.944  11.855  19.359  0.00  0.00    +0.000 C 
ATOM      8  C   UNL     1      -4.333  12.477  19.245  0.00  0.00    +0.000 C 
ATOM      9  O   UNL     1      -4.701  13.085  20.490  0.00  0.00    +0.000 OA
ATOM     10  C   UNL     1      -3.766  14.126  20.815  0.00  0.00    +0.000 C 
ATOM     11  C   UNL     1      -2.313  13.600  20.975  0.00  0.00    +0.000 C 
ATOM     12  C   UNL     1      -1.429  14.790  21.346  0.00  0.00    +0.000 C 
ATOM     13  N   UNL     1       0.137  13.755  19.277  0.00  0.00    +0.000 NA
ATOM     14  C   UNL     1       1.434  13.684  18.970  0.00  0.00    +0.000 A 
ATOM     15  N   UNL     1       2.149  14.840  18.813  0.00  0.00    +0.000 N 
ATOM     16  C   UNL     1       1.574  16.153  19.078  0.00  0.00    +0.000 C 
ATOM     17  C   UNL     1       1.785  17.058  17.857  0.00  0.00    +0.000 C 
ATOM     18  O   UNL     1       3.167  17.109  17.461  0.00  0.00    +0.000 OA
ATOM     19  C   UNL     1       3.644  15.789  17.138  0.00  0.00    +0.000 C 
ATOM     20  C   UNL     1       3.530  14.838  18.341  0.00  0.00    +0.000 C 
ATOM     21  N   UNL     1       2.058  12.525  18.811  0.00  0.00    +0.000 NA
ATOM     22  C   UNL     1       1.390  11.405  19.002  0.00  0.00    +0.000 A 
ATOM     23  N   UNL     1       2.092  10.285  18.826  0.00  0.00    +0.000 NA
ENDROOT
BRANCH   1  27
ATOM     24  C   UNL     1       3.907   5.605  18.186  0.00  0.00    +0.000 A 
ATOM     25  C   UNL     1       2.861   5.562  19.115  0.00  0.00    +0.000 A 
ATOM     26  C   UNL     1       2.086   6.687  19.366  0.00  0.00    +0.000 A 
ATOM     27  C   UNL     1       2.328   7.899  18.708  0.00  0.00    +0.000 A 
ATOM     28  C   UNL     1       3.356   7.934  17.755  0.00  0.00    +0.000 A 
ATOM     29  C   UNL     1       4.140   6.799  17.471  0.00  0.00    +0.000 A 
BRANCH  29  30
ATOM     30  C   UNL     1       5.170   6.980  16.400  0.00  0.00    +0.000 C 
ATOM     31  N   UNL     1       6.483   7.049  16.773  0.00  0.00    +0.000 N 
ATOM     32  O   UNL     1       4.873   7.055  15.214  0.00  0.00    +0.000 OA
ATOM     33  H   UNL     1       6.758   6.946  17.741  0.00  0.00    +0.000 HD
ATOM     34  H   UNL     1       7.177   7.099  16.047  0.00  0.00    +0.000 HD
ENDBRANCH  29  30
BRANCH  24  36
ATOM     35  C   UNL     1       3.986   3.362  17.411  0.00  0.00    +0.000 C 
ATOM     36  O   UNL     1       4.681   4.496  17.928  0.00  0.00    +0.000 OA
ENDBRANCH  24  36
ENDBRANCH   1  27
TORSDOF 3
ENDMDL
MODEL 8
REMARK VINA RESULT:      -7.5      1.236      1.872
REMARK  Name = 
REMARK  5 active torsions:
REMARK  status: ('A' for Active; 'I' for Inactive)
REMARK    1  A    between atoms: C_1  and  O_2
REMARK    2  A    between atoms: O_2  and  C_3
REMARK    3  A    between atoms: C_6  and  C_7
REMARK    4  A    between atoms: C_17  and  C_18
REMARK    5  A    between atoms: C_31  and  C_32
REMARK                            x       y       z     vdW  Elec       q    Type
REMARK                         _______ _______ _______ _____ _____    ______ ____
ROOT
ATOM      1  C   UNL     1       0.939   8.960  20.926  0.00  0.00    +0.000 A 
ATOM      2  C   UNL     1      -0.160   9.000  21.756  0.00  0.00    +0.000 A 
ATOM      3  C   UNL     1      -0.690  10.233  22.063  0.00  0.00    +0.000 A 
ATOM      4  C   UNL     1      -0.131  11.425  21.543  0.00  0.00    +0.000 A 
ATOM      5  C   UNL     1      -0.575  12.745  21.746  0.00  0.00    +0.000 A 
ATOM      6  N   UNL     1      -1.739  13.125  22.412  0.00  0.00    +0.000 N 
ATOM      7  C   UNL     1      -2.894  12.214  22.484  0.00  0.00    +0.000 C 
ATOM      8  C   UNL     1      -4.184  12.974  22.781  0.00  0.00    +0.000 C 
ATOM      9  O   UNL     1      -4.059  13.688  24.017  0.00  0.00    +0.000 OA
ATOM     10  C   UNL     1      -2.988  14.639  23.920  0.00  0.00    +0.000 C 
ATOM     11  C   UNL     1      -1.614  13.970  23.637  0.00  0.00    +0.000 C 
ATOM     12  C   UNL     1      -0.563  15.078  23.586  0.00  0.00    +0.000 C 
ATOM     13  N   UNL     1       0.122  13.766  21.217  0.00  0.00    +0.000 NA
ATOM     14  C   UNL     1       1.228  13.538  20.506  0.00  0.00    +0.000 A 
ATOM     15  N   UNL     1       1.939  14.601  20.018  0.00  0.00    +0.000 N 
ATOM     16  C   UNL     1       1.598  15.980  20.340  0.00  0.00    +0.000 C 
ATOM     17  C   UNL     1       1.456  16.786  19.041  0.00  0.00    +0.000 C 
ATOM     18  O   UNL     1       2.623  16.667  18.207  0.00  0.00    +0.000 OA
ATOM     19  C   UNL     1       2.853  15.287  17.865  0.00  0.00    +0.000 C 
ATOM     20  C   UNL     1       3.075  14.423  19.118  0.00  0.00    +0.000 C 
ATOM     21  N   UNL     1       1.665  12.312  20.254  0.00  0.00    +0.000 NA
ATOM     22  C   UNL     1       1.012  11.283  20.755  0.00  0.00    +0.000 A 
ATOM     23  N   UNL     1       1.519  10.086  20.458  0.00  0.00    +0.000 NA
ENDROOT
BRANCH   1  27
ATOM     24  C   UNL     1       2.612   5.204  19.678  0.00  0.00    +0.000 A 
ATOM     25  C   UNL     1       1.723   5.280  20.757  0.00  0.00    +0.000 A 
ATOM     26  C   UNL     1       1.179   6.497  21.146  0.00  0.00    +0.000 A 
ATOM     27  C   UNL     1       1.506   7.685  20.483  0.00  0.00    +0.000 A 
ATOM     28  C   UNL     1       2.373   7.606  19.385  0.00  0.00    +0.000 A 
ATOM     29  C   UNL     1       2.919   6.380  18.960  0.00  0.00    +0.000 A 
BRANCH  29  30
ATOM     30  C   UNL     1       3.793   6.450  17.747  0.00  0.00    +0.000 C 
ATOM     31  N   UNL     1       4.028   5.295  17.054  0.00  0.00    +0.000 N 
ATOM     32  O   UNL     1       4.286   7.501  17.357  0.00  0.00    +0.000 OA
ATOM     33  H   UNL     1       3.597   4.422  17.329  0.00  0.00    +0.000 HD
ATOM     34  H   UNL     1       4.556   5.357  16.200  0.00  0.00    +0.000 HD
ENDBRANCH  29  30
BRANCH  24  36
ATOM     35  C   UNL     1       2.272   2.884  19.307  0.00  0.00    +0.000 C 
ATOM     36  O   UNL     1       3.156   4.004  19.282  0.00  0.00    +0.000 OA
ENDBRANCH  24  36
ENDBRANCH   1  27
TORSDOF 3
ENDMDL
MODEL 9
REMARK VINA RESULT:      -7.4      1.701      2.228
REMARK  Name = 
REMARK  5 active torsions:
REMARK  status: ('A' for Active; 'I' for Inactive)
REMARK    1  A    between atoms: C_1  and  O_2
REMARK    2  A    between atoms: O_2  and  C_3
REMARK    3  A    between atoms: C_6  and  C_7
REMARK    4  A    between atoms: C_17  and  C_18
REMARK    5  A    between atoms: C_31  and  C_32
REMARK                            x       y       z     vdW  Elec       q    Type
REMARK                         _______ _______ _______ _____ _____    ______ ____
ROOT
ATOM      1  C   UNL     1       0.933   9.326  20.217  0.00  0.00    +0.000 A 
ATOM      2  C   UNL     1      -0.340   9.419  20.735  0.00  0.00    +0.000 A 
ATOM      3  C   UNL     1      -0.911  10.670  20.821  0.00  0.00    +0.000 A 
ATOM      4  C   UNL     1      -0.218  11.826  20.389  0.00  0.00    +0.000 A 
ATOM      5  C   UNL     1      -0.677  13.156  20.391  0.00  0.00    +0.000 A 
ATOM      6  N   UNL     1      -1.966  13.578  20.713  0.00  0.00    +0.000 N 
ATOM      7  C   UNL     1      -3.116  12.673  20.543  0.00  0.00    +0.000 C 
ATOM      8  C   UNL     1      -4.426  13.451  20.454  0.00  0.00    +0.000 C 
ATOM      9  O   UNL     1      -4.609  14.242  21.635  0.00  0.00    +0.000 OA
ATOM     10  C   UNL     1      -3.533  15.185  21.758  0.00  0.00    +0.000 C 
ATOM     11  C   UNL     1      -2.143  14.499  21.876  0.00  0.00    +0.000 C 
ATOM     12  C   UNL     1      -1.095  15.600  22.028  0.00  0.00    +0.000 C 
ATOM     13  N   UNL     1       0.149  14.141  19.997  0.00  0.00    +0.000 NA
ATOM     14  C   UNL     1       1.396  13.869  19.608  0.00  0.00    +0.000 A 
ATOM     15  N   UNL     1       2.225  14.898  19.254  0.00  0.00    +0.000 N 
ATOM     16  C   UNL     1       1.836  16.295  19.393  0.00  0.00    +0.000 C 
ATOM     17  C   UNL     1       2.043  17.018  18.055  0.00  0.00    +0.000 C 
ATOM     18  O   UNL     1       3.382  16.845  17.556  0.00  0.00    +0.000 OA
ATOM     19  C   UNL     1       3.669  15.446  17.368  0.00  0.00    +0.000 C 
ATOM     20  C   UNL     1       3.550  14.664  18.686  0.00  0.00    +0.000 C 
ATOM     21  N   UNL     1       1.862  12.628  19.550  0.00  0.00    +0.000 NA
ATOM     22  C   UNL     1       1.085  11.634  19.930  0.00  0.00    +0.000 A 
ATOM     23  N   UNL     1       1.632  10.420  19.846  0.00  0.00    +0.000 NA
ENDROOT
BRANCH   1  27
ATOM     24  C   UNL     1       2.820   5.505  19.670  0.00  0.00    +0.000 A 
ATOM     25  C   UNL     1       1.912   5.723  20.713  0.00  0.00    +0.000 A 
ATOM     26  C   UNL     1       1.300   6.959  20.876  0.00  0.00    +0.000 A 
ATOM     27  C   UNL     1       1.573   8.026  20.012  0.00  0.00    +0.000 A 
ATOM     28  C   UNL     1       2.458   7.799  18.949  0.00  0.00    +0.000 A 
ATOM     29  C   UNL     1       3.074   6.548  18.754  0.00  0.00    +0.000 A 
BRANCH  29  30
ATOM     30  C   UNL     1       3.960   6.448  17.551  0.00  0.00    +0.000 C 
ATOM     31  N   UNL     1       4.085   5.231  16.942  0.00  0.00    +0.000 N 
ATOM     32  O   UNL     1       4.558   7.416  17.098  0.00  0.00    +0.000 OA
ATOM     33  H   UNL     1       3.568   4.426  17.270  0.00  0.00    +0.000 HD
ATOM     34  H   UNL     1       4.623   5.181  16.094  0.00  0.00    +0.000 HD
ENDBRANCH  29  30
BRANCH  24  36
ATOM     35  C   UNL     1       2.568   3.149  19.518  0.00  0.00    +0.000 C 
ATOM     36  O   UNL     1       3.432   4.285  19.497  0.00  0.00    +0.000 OA
ENDBRANCH  24  36
ENDBRANCH   1  27
TORSDOF 3
ENDMDL
