MODEL 1
REMARK VINA RESULT:      -7.8      0.000      0.000
REMARK  Name = 
REMARK  6 active torsions:
REMARK  status: ('A' for Active; 'I' for Inactive)
REMARK    1  A    between atoms: C_2  and  C_3
REMARK    2  A    between atoms: C_3  and  N_4
REMARK    3  A    between atoms: N_4  and  C_5
REMARK    4  A    between atoms: C_9  and  C_10
REMARK    5  A    between atoms: N_15  and  N_16
REMARK    6  A    between atoms: C_17  and  C_18
REMARK                            x       y       z     vdW  Elec       q    Type
REMARK                         _______ _______ _______ _____ _____    ______ ____
ROOT
ATOM      1  O   UNL     1       0.612   4.061  20.174  0.00  0.00    +0.000 OA
ATOM      2  C   UNL     1       1.678   4.372  20.704  0.00  0.00    +0.000 C 
ATOM      3  N   UNL     1       2.104   5.676  20.940  0.00  0.00    +0.000 N 
ATOM      4  H   UNL     1       3.052   5.858  21.254  0.00  0.00    +0.000 HD
ENDROOT
BRANCH   3   5
ATOM      5  N   UNL     1       1.265   6.712  20.654  0.00  0.00    +0.000 NA
ATOM      6  C   UNL     1       1.746   7.907  20.767  0.00  0.00    +0.000 C 
BRANCH   6   7
ATOM      7  C   UNL     1       0.927   9.110  20.487  0.00  0.00    +0.000 A 
ATOM      8  C   UNL     1       0.202   9.776  21.487  0.00  0.00    +0.000 A 
ATOM      9 CL   UNL     1       0.248   9.384  23.167  0.00  0.00    +0.000 Cl
ATOM     10  C   UNL     1      -0.557  10.881  21.119  0.00  0.00    +0.000 A 
ATOM     11  N   UNL     1      -0.636  11.370  19.862  0.00  0.00    +0.000 NA
ATOM     12  C   UNL     1       0.086  10.723  18.920  0.00  0.00    +0.000 A 
ATOM     13  C   UNL     1       0.875   9.607  19.177  0.00  0.00    +0.000 A 
ATOM     14 CL   UNL     1       1.722   8.897  17.849  0.00  0.00    +0.000 Cl
ENDBRANCH   6   7
ENDBRANCH   3   5
BRANCH   2  15
ATOM     15  C   UNL     1       2.697   3.305  21.123  0.00  0.00    +0.000 C 
BRANCH  15  16
ATOM     16  N   UNL     1       3.175   2.585  19.940  0.00  0.00    +0.000 N 
ATOM     17  H   UNL     1       3.561   1.671  20.189  0.00  0.00    +0.000 HD
BRANCH  16  18
ATOM     18  C   UNL     1       3.970   3.212  18.979  0.00  0.00    +0.000 A 
ATOM     19  C   UNL     1       3.530   3.179  17.648  0.00  0.00    +0.000 A 
ATOM     20  C   UNL     1       4.216   3.847  16.631  0.00  0.00    +0.000 A 
ATOM     21  C   UNL     1       5.367   4.568  16.929  0.00  0.00    +0.000 A 
ATOM     22  C   UNL     1       5.831   4.633  18.248  0.00  0.00    +0.000 A 
ATOM     23  C   UNL     1       5.111   3.969  19.265  0.00  0.00    +0.000 A 
BRANCH  22  24
ATOM     24  C   UNL     1       7.087   5.397  18.588  0.00  0.00    +0.000 C 
ATOM     25  F   UNL     1       7.163   6.618  17.986  0.00  0.00    +0.000 F 
ATOM     26  F   UNL     1       7.211   5.632  19.922  0.00  0.00    +0.000 F 
ATOM     27  F   UNL     1       8.217   4.731  18.220  0.00  0.00    +0.000 F 
ENDBRANCH  22  24
ENDBRANCH  16  18
ENDBRANCH  15  16
ENDBRANCH   2  15
TORSDOF 6
ENDMDL
MODEL 2
REMARK VINA RESULT:      -7.7      0.176      1.835
REMARK  Name = 
REMARK  6 active torsions:
REMARK  status: ('A' for Active; 'I' for Inactive)
REMARK    1  A    between atoms: C_2  and  C_3
REMARK    2  A    between atoms: C_3  and  N_4
REMARK    3  A    between atoms: N_4  and  C_5
REMARK    4  A    between atoms: C_9  and  C_10
REMARK    5  A    between atoms: N_15  and  N_16
REMARK    6  A    between atoms: C_17  and  C_18
REMARK                            x       y       z     vdW  Elec       q    Type
REMARK                         _______ _______ _______ _____ _____    ______ ____
ROOT
ATOM      1  O   UNL     1       0.636   4.180  20.191  0.00  0.00    +0.000 OA
ATOM      2  C   UNL     1       1.671   4.507  20.769  0.00  0.00    +0.000 C 
ATOM      3  N   UNL     1       2.060   5.817  21.035  0.00  0.00    +0.000 N 
ATOM      4  H   UNL     1       2.989   6.015  21.392  0.00  0.00    +0.000 HD
ENDROOT
BRANCH   3   5
ATOM      5  N   UNL     1       1.213   6.839  20.722  0.00  0.00    +0.000 NA
ATOM      6  C   UNL     1       1.692   8.039  20.782  0.00  0.00    +0.000 C 
BRANCH   6   7
ATOM      7  C   UNL     1       0.864   9.228  20.468  0.00  0.00    +0.000 A 
ATOM      8  C   UNL     1       0.766   9.755  19.171  0.00  0.00    +0.000 A 
ATOM      9 CL   UNL     1       1.475   9.053  17.764  0.00  0.00    +0.000 Cl
ATOM     10  C   UNL     1      -0.018  10.888  18.983  0.00  0.00    +0.000 A 
ATOM     11  N   UNL     1      -0.707  11.512  19.964  0.00  0.00    +0.000 NA
ATOM     12  C   UNL     1      -0.612  10.975  21.200  0.00  0.00    +0.000 A 
ATOM     13  C   UNL     1       0.145   9.847  21.500  0.00  0.00    +0.000 A 
ATOM     14 CL   UNL     1       0.162   9.303  23.140  0.00  0.00    +0.000 Cl
ENDBRANCH   6   7
ENDBRANCH   3   5
BRANCH   2  15
ATOM     15  C   UNL     1       2.693   3.457  21.223  0.00  0.00    +0.000 C 
BRANCH  15  16
ATOM     16  N   UNL     1       3.158   2.687  20.067  0.00  0.00    +0.000 N 
ATOM     17  H   UNL     1       3.571   1.796  20.354  0.00  0.00    +0.000 HD
BRANCH  16  18
ATOM     18  C   UNL     1       3.916   3.281  19.056  0.00  0.00    +0.000 A 
ATOM     19  C   UNL     1       3.381   3.284  17.759  0.00  0.00    +0.000 A 
ATOM     20  C   UNL     1       4.028   3.925  16.700  0.00  0.00    +0.000 A 
ATOM     21  C   UNL     1       5.234   4.582  16.919  0.00  0.00    +0.000 A 
ATOM     22  C   UNL     1       5.794   4.609  18.203  0.00  0.00    +0.000 A 
ATOM     23  C   UNL     1       5.113   3.975  19.265  0.00  0.00    +0.000 A 
BRANCH  22  24
ATOM     24  C   UNL     1       7.109   5.303  18.456  0.00  0.00    +0.000 C 
ATOM     25  F   UNL     1       7.267   6.452  17.740  0.00  0.00    +0.000 F 
ATOM     26  F   UNL     1       7.272   5.653  19.761  0.00  0.00    +0.000 F 
ATOM     27  F   UNL     1       8.179   4.521  18.143  0.00  0.00    +0.000 F 
ENDBRANCH  22  24
ENDBRANCH  16  18
ENDBRANCH  15  16
ENDBRANCH   2  15
TORSDOF 6
ENDMDL
MODEL 3
REMARK VINA RESULT:      -7.3      2.007      2.562
REMARK  Name = 
REMARK  6 active torsions:
REMARK  status: ('A' for Active; 'I' for Inactive)
REMARK    1  A    between atoms: C_2  and  C_3
REMARK    2  A    between atoms: C_3  and  N_4
REMARK    3  A    between atoms: N_4  and  C_5
REMARK    4  A    between atoms: C_9  and  C_10
REMARK    5  A    between atoms: N_15  and  N_16
REMARK    6  A    between atoms: C_17  and  C_18
REMARK                            x       y       z     vdW  Elec       q    Type
REMARK                         _______ _______ _______ _____ _____    ______ ____
ROOT
ATOM      1  O   UNL     1       2.321   6.258  18.074  0.00  0.00    +0.000 OA
ATOM      2  C   UNL     1       2.446   5.739  19.183  0.00  0.00    +0.000 C 
ATOM      3  N   UNL     1       2.387   6.418  20.396  0.00  0.00    +0.000 N 
ATOM      4  H   UNL     1       2.636   5.949  21.261  0.00  0.00    +0.000 HD
ENDROOT
BRANCH   3   5
ATOM      5  N   UNL     1       2.083   7.748  20.400  0.00  0.00    +0.000 NA
ATOM      6  C   UNL     1       0.872   8.073  20.721  0.00  0.00    +0.000 C 
BRANCH   6   7
ATOM      7  C   UNL     1       0.425   9.485  20.754  0.00  0.00    +0.000 A 
ATOM      8  C   UNL     1       0.034  10.123  21.942  0.00  0.00    +0.000 A 
ATOM      9 CL   UNL     1       0.126   9.421  23.515  0.00  0.00    +0.000 Cl
ATOM     10  C   UNL     1      -0.392  11.444  21.865  0.00  0.00    +0.000 A 
ATOM     11  N   UNL     1      -0.445  12.165  20.723  0.00  0.00    +0.000 NA
ATOM     12  C   UNL     1      -0.046  11.535  19.597  0.00  0.00    +0.000 A 
ATOM     13  C   UNL     1       0.396  10.217  19.558  0.00  0.00    +0.000 A 
ATOM     14 CL   UNL     1       0.857   9.567  18.026  0.00  0.00    +0.000 Cl
ENDBRANCH   6   7
ENDBRANCH   3   5
BRANCH   2  15
ATOM     15  C   UNL     1       2.742   4.241  19.329  0.00  0.00    +0.000 C 
BRANCH  15  16
ATOM     16  N   UNL     1       4.169   4.041  19.591  0.00  0.00    +0.000 N 
ATOM     17  H   UNL     1       4.399   4.227  20.571  0.00  0.00    +0.000 HD
BRANCH  16  18
ATOM     18  C   UNL     1       5.145   4.573  18.746  0.00  0.00    +0.000 A 
ATOM     19  C   UNL     1       6.177   5.321  19.333  0.00  0.00    +0.000 A 
ATOM     20  C   UNL     1       7.240   5.823  18.579  0.00  0.00    +0.000 A 
ATOM     21  C   UNL     1       7.294   5.583  17.211  0.00  0.00    +0.000 A 
ATOM     22  C   UNL     1       6.288   4.832  16.591  0.00  0.00    +0.000 A 
ATOM     23  C   UNL     1       5.233   4.314  17.374  0.00  0.00    +0.000 A 
BRANCH  22  24
ATOM     24  C   UNL     1       6.321   4.575  15.105  0.00  0.00    +0.000 C 
ATOM     25  F   UNL     1       6.158   3.263  14.773  0.00  0.00    +0.000 F 
ATOM     26  F   UNL     1       5.347   5.251  14.436  0.00  0.00    +0.000 F 
ATOM     27  F   UNL     1       7.499   4.958  14.536  0.00  0.00    +0.000 F 
ENDBRANCH  22  24
ENDBRANCH  16  18
ENDBRANCH  15  16
ENDBRANCH   2  15
TORSDOF 6
ENDMDL
MODEL 4
REMARK VINA RESULT:      -7.2      1.705      2.861
REMARK  Name = 
REMARK  6 active torsions:
REMARK  status: ('A' for Active; 'I' for Inactive)
REMARK    1  A    between atoms: C_2  and  C_3
REMARK    2  A    between atoms: C_3  and  N_4
REMARK    3  A    between atoms: N_4  and  C_5
REMARK    4  A    between atoms: C_9  and  C_10
REMARK    5  A    between atoms: N_15  and  N_16
REMARK    6  A    between atoms: C_17  and  C_18
REMARK                            x       y       z     vdW  Elec       q    Type
REMARK                         _______ _______ _______ _____ _____    ______ ____
ROOT
ATOM      1  O   UNL     1       0.708   4.563  20.401  0.00  0.00    +0.000 OA
ATOM      2  C   UNL     1       1.839   5.011  20.588  0.00  0.00    +0.000 C 
ATOM      3  N   UNL     1       2.153   6.361  20.716  0.00  0.00    +0.000 N 
ATOM      4  H   UNL     1       3.122   6.664  20.730  0.00  0.00    +0.000 HD
ENDROOT
BRANCH   3   5
ATOM      5  N   UNL     1       1.146   7.281  20.728  0.00  0.00    +0.000 NA
ATOM      6  C   UNL     1       1.489   8.527  20.779  0.00  0.00    +0.000 C 
BRANCH   6   7
ATOM      7  C   UNL     1       0.482   9.614  20.801  0.00  0.00    +0.000 A 
ATOM      8  C   UNL     1       0.021  10.237  19.631  0.00  0.00    +0.000 A 
ATOM      9 CL   UNL     1       0.451   9.767  18.028  0.00  0.00    +0.000 Cl
ATOM     10  C   UNL     1      -0.908  11.264  19.759  0.00  0.00    +0.000 A 
ATOM     11  N   UNL     1      -1.411  11.698  20.936  0.00  0.00    +0.000 NA
ATOM     12  C   UNL     1      -0.966  11.069  22.046  0.00  0.00    +0.000 A 
ATOM     13  C   UNL     1      -0.037  10.034  22.034  0.00  0.00    +0.000 A 
ATOM     14 CL   UNL     1       0.428   9.353  23.552  0.00  0.00    +0.000 Cl
ENDBRANCH   6   7
ENDBRANCH   3   5
BRANCH   2  15
ATOM     15  C   UNL     1       3.060   4.085  20.646  0.00  0.00    +0.000 C 
BRANCH  15  16
ATOM     16  N   UNL     1       3.441   3.681  19.291  0.00  0.00    +0.000 N 
ATOM     17  H   UNL     1       3.463   2.663  19.197  0.00  0.00    +0.000 HD
BRANCH  16  18
ATOM     18  C   UNL     1       4.530   4.261  18.639  0.00  0.00    +0.000 A 
ATOM     19  C   UNL     1       5.487   4.918  19.428  0.00  0.00    +0.000 A 
ATOM     20  C   UNL     1       6.651   5.457  18.874  0.00  0.00    +0.000 A 
ATOM     21  C   UNL     1       6.883   5.349  17.508  0.00  0.00    +0.000 A 
ATOM     22  C   UNL     1       5.956   4.692  16.690  0.00  0.00    +0.000 A 
ATOM     23  C   UNL     1       4.797   4.133  17.272  0.00  0.00    +0.000 A 
BRANCH  22  24
ATOM     24  C   UNL     1       6.184   4.579  15.202  0.00  0.00    +0.000 C 
ATOM     25  F   UNL     1       5.221   5.189  14.454  0.00  0.00    +0.000 F 
ATOM     26  F   UNL     1       7.364   5.132  14.811  0.00  0.00    +0.000 F 
ATOM     27  F   UNL     1       6.219   3.285  14.778  0.00  0.00    +0.000 F 
ENDBRANCH  22  24
ENDBRANCH  16  18
ENDBRANCH  15  16
ENDBRANCH   2  15
TORSDOF 6
ENDMDL
MODEL 5
REMARK VINA RESULT:      -7.2      2.134      3.196
REMARK  Name = 
REMARK  6 active torsions:
REMARK  status: ('A' for Active; 'I' for Inactive)
REMARK    1  A    between atoms: C_2  and  C_3
REMARK    2  A    between atoms: C_3  and  N_4
REMARK    3  A    between atoms: N_4  and  C_5
REMARK    4  A    between atoms: C_9  and  C_10
REMARK    5  A    between atoms: N_15  and  N_16
REMARK    6  A    between atoms: C_17  and  C_18
REMARK                            x       y       z     vdW  Elec       q    Type
REMARK                         _______ _______ _______ _____ _____    ______ ____
ROOT
ATOM      1  O   UNL     1       2.330   6.596  17.993  0.00  0.00    +0.000 OA
ATOM      2  C   UNL     1       2.374   6.049  19.094  0.00  0.00    +0.000 C 
ATOM      3  N   UNL     1       2.186   6.691  20.315  0.00  0.00    +0.000 N 
ATOM      4  H   UNL     1       2.373   6.205  21.186  0.00  0.00    +0.000 HD
ENDROOT
BRANCH   3   5
ATOM      5  N   UNL     1       1.837   8.010  20.326  0.00  0.00    +0.000 NA
ATOM      6  C   UNL     1       0.679   8.307  20.819  0.00  0.00    +0.000 C 
BRANCH   6   7
ATOM      7  C   UNL     1       0.191   9.705  20.879  0.00  0.00    +0.000 A 
ATOM      8  C   UNL     1      -0.004  10.485  19.729  0.00  0.00    +0.000 A 
ATOM      9 CL   UNL     1       0.172   9.915  18.110  0.00  0.00    +0.000 Cl
ATOM     10  C   UNL     1      -0.441  11.795  19.892  0.00  0.00    +0.000 A 
ATOM     11  N   UNL     1      -0.705  12.369  21.086  0.00  0.00    +0.000 NA
ATOM     12  C   UNL     1      -0.528  11.593  22.178  0.00  0.00    +0.000 A 
ATOM     13  C   UNL     1      -0.092  10.273  22.130  0.00  0.00    +0.000 A 
ATOM     14 CL   UNL     1       0.091   9.431  23.628  0.00  0.00    +0.000 Cl
ENDBRANCH   6   7
ENDBRANCH   3   5
BRANCH   2  15
ATOM     15  C   UNL     1       2.707   4.558  19.227  0.00  0.00    +0.000 C 
BRANCH  15  16
ATOM     16  N   UNL     1       4.107   4.396  19.623  0.00  0.00    +0.000 N 
ATOM     17  H   UNL     1       4.272   4.751  20.568  0.00  0.00    +0.000 HD
BRANCH  16  18
ATOM     18  C   UNL     1       5.151   4.759  18.770  0.00  0.00    +0.000 A 
ATOM     19  C   UNL     1       6.313   5.287  19.353  0.00  0.00    +0.000 A 
ATOM     20  C   UNL     1       7.439   5.603  18.588  0.00  0.00    +0.000 A 
ATOM     21  C   UNL     1       7.424   5.396  17.214  0.00  0.00    +0.000 A 
ATOM     22  C   UNL     1       6.286   4.861  16.598  0.00  0.00    +0.000 A 
ATOM     23  C   UNL     1       5.167   4.527  17.391  0.00  0.00    +0.000 A 
BRANCH  22  24
ATOM     24  C   UNL     1       6.246   4.644  15.105  0.00  0.00    +0.000 C 
ATOM     25  F   UNL     1       5.088   5.067  14.522  0.00  0.00    +0.000 F 
ATOM     26  F   UNL     1       7.249   5.296  14.455  0.00  0.00    +0.000 F 
ATOM     27  F   UNL     1       6.374   3.331  14.766  0.00  0.00    +0.000 F 
ENDBRANCH  22  24
ENDBRANCH  16  18
ENDBRANCH  15  16
ENDBRANCH   2  15
TORSDOF 6
ENDMDL
MODEL 6
REMARK VINA RESULT:      -7.2      6.440      7.764
REMARK  Name = 
REMARK  6 active torsions:
REMARK  status: ('A' for Active; 'I' for Inactive)
REMARK    1  A    between atoms: C_2  and  C_3
REMARK    2  A    between atoms: C_3  and  N_4
REMARK    3  A    between atoms: N_4  and  C_5
REMARK    4  A    between atoms: C_9  and  C_10
REMARK    5  A    between atoms: N_15  and  N_16
REMARK    6  A    between atoms: C_17  and  C_18
REMARK                            x       y       z     vdW  Elec       q    Type
REMARK                         _______ _______ _______ _____ _____    ______ ____
ROOT
ATOM      1  O   UNL     1       7.099   8.816  17.185  0.00  0.00    +0.000 OA
ATOM      2  C   UNL     1       7.828   8.122  17.892  0.00  0.00    +0.000 C 
ATOM      3  N   UNL     1       8.782   8.610  18.780  0.00  0.00    +0.000 N 
ATOM      4  H   UNL     1       9.440   7.978  19.226  0.00  0.00    +0.000 HD
ENDROOT
BRANCH   3   5
ATOM      5  N   UNL     1       8.885   9.956  18.972  0.00  0.00    +0.000 NA
ATOM      6  C   UNL     1       9.729  10.593  18.226  0.00  0.00    +0.000 C 
BRANCH   6   7
ATOM      7  C   UNL     1       9.930  12.056  18.348  0.00  0.00    +0.000 A 
ATOM      8  C   UNL     1       9.023  12.987  17.819  0.00  0.00    +0.000 A 
ATOM      9 CL   UNL     1       7.520  12.586  17.074  0.00  0.00    +0.000 Cl
ATOM     10  C   UNL     1       9.313  14.339  17.964  0.00  0.00    +0.000 A 
ATOM     11  N   UNL     1      10.406  14.822  18.594  0.00  0.00    +0.000 NA
ATOM     12  C   UNL     1      11.254  13.907  19.112  0.00  0.00    +0.000 A 
ATOM     13  C   UNL     1      11.064  12.532  19.022  0.00  0.00    +0.000 A 
ATOM     14 CL   UNL     1      12.258  11.506  19.732  0.00  0.00    +0.000 Cl
ENDBRANCH   6   7
ENDBRANCH   3   5
BRANCH   2  15
ATOM     15  C   UNL     1       7.783   6.591  17.815  0.00  0.00    +0.000 C 
BRANCH  15  16
ATOM     16  N   UNL     1       6.891   6.069  18.852  0.00  0.00    +0.000 N 
ATOM     17  H   UNL     1       7.397   5.480  19.519  0.00  0.00    +0.000 HD
BRANCH  16  18
ATOM     18  C   UNL     1       5.656   5.501  18.532  0.00  0.00    +0.000 A 
ATOM     19  C   UNL     1       5.526   4.897  17.272  0.00  0.00    +0.000 A 
ATOM     20  C   UNL     1       4.356   4.233  16.894  0.00  0.00    +0.000 A 
ATOM     21  C   UNL     1       3.284   4.159  17.777  0.00  0.00    +0.000 A 
ATOM     22  C   UNL     1       3.381   4.742  19.047  0.00  0.00    +0.000 A 
ATOM     23  C   UNL     1       4.580   5.389  19.419  0.00  0.00    +0.000 A 
BRANCH  22  24
ATOM     24  C   UNL     1       2.223   4.686  20.012  0.00  0.00    +0.000 C 
ATOM     25  F   UNL     1       1.923   5.890  20.576  0.00  0.00    +0.000 F 
ATOM     26  F   UNL     1       1.073   4.255  19.424  0.00  0.00    +0.000 F 
ATOM     27  F   UNL     1       2.452   3.836  21.052  0.00  0.00    +0.000 F 
ENDBRANCH  22  24
ENDBRANCH  16  18
ENDBRANCH  15  16
ENDBRANCH   2  15
TORSDOF 6
ENDMDL
MODEL 7
REMARK VINA RESULT:      -7.1      6.407      7.429
REMARK  Name = 
REMARK  6 active torsions:
REMARK  status: ('A' for Active; 'I' for Inactive)
REMARK    1  A    between atoms: C_2  and  C_3
REMARK    2  A    between atoms: C_3  and  N_4
REMARK    3  A    between atoms: N_4  and  C_5
REMARK    4  A    between atoms: C_9  and  C_10
REMARK    5  A    between atoms: N_15  and  N_16
REMARK    6  A    between atoms: C_17  and  C_18
REMARK                            x       y       z     vdW  Elec       q    Type
REMARK                         _______ _______ _______ _____ _____    ______ ____
ROOT
ATOM      1  O   UNL     1       7.291   8.506  17.072  0.00  0.00    +0.000 OA
ATOM      2  C   UNL     1       7.870   7.915  17.983  0.00  0.00    +0.000 C 
ATOM      3  N   UNL     1       8.720   8.511  18.911  0.00  0.00    +0.000 N 
ATOM      4  H   UNL     1       9.268   7.941  19.547  0.00  0.00    +0.000 HD
ENDROOT
BRANCH   3   5
ATOM      5  N   UNL     1       8.880   9.865  18.892  0.00  0.00    +0.000 NA
ATOM      6  C   UNL     1       9.536  10.393  19.874  0.00  0.00    +0.000 C 
BRANCH   6   7
ATOM      7  C   UNL     1       9.769  11.854  19.962  0.00  0.00    +0.000 A 
ATOM      8  C   UNL     1       9.204  12.647  20.973  0.00  0.00    +0.000 A 
ATOM      9 CL   UNL     1       8.278  12.044  22.298  0.00  0.00    +0.000 Cl
ATOM     10  C   UNL     1       9.462  14.013  20.955  0.00  0.00    +0.000 A 
ATOM     11  N   UNL     1      10.235  14.632  20.035  0.00  0.00    +0.000 NA
ATOM     12  C   UNL     1      10.783  13.845  19.084  0.00  0.00    +0.000 A 
ATOM     13  C   UNL     1      10.588  12.470  19.005  0.00  0.00    +0.000 A 
ATOM     14 CL   UNL     1      11.358  11.621  17.712  0.00  0.00    +0.000 Cl
ENDBRANCH   6   7
ENDBRANCH   3   5
BRANCH   2  15
ATOM     15  C   UNL     1       7.739   6.397  18.154  0.00  0.00    +0.000 C 
BRANCH  15  16
ATOM     16  N   UNL     1       6.735   5.878  17.221  0.00  0.00    +0.000 N 
ATOM     17  H   UNL     1       6.644   6.479  16.398  0.00  0.00    +0.000 HD
BRANCH  16  18
ATOM     18  C   UNL     1       5.482   5.454  17.665  0.00  0.00    +0.000 A 
ATOM     19  C   UNL     1       4.426   6.376  17.611  0.00  0.00    +0.000 A 
ATOM     20  C   UNL     1       3.120   6.019  17.957  0.00  0.00    +0.000 A 
ATOM     21  C   UNL     1       2.842   4.720  18.365  0.00  0.00    +0.000 A 
ATOM     22  C   UNL     1       3.868   3.768  18.421  0.00  0.00    +0.000 A 
ATOM     23  C   UNL     1       5.177   4.143  18.046  0.00  0.00    +0.000 A 
BRANCH  22  24
ATOM     24  C   UNL     1       3.588   2.357  18.877  0.00  0.00    +0.000 C 
ATOM     25  F   UNL     1       4.533   1.859  19.724  0.00  0.00    +0.000 F 
ATOM     26  F   UNL     1       2.402   2.247  19.537  0.00  0.00    +0.000 F 
ATOM     27  F   UNL     1       3.520   1.478  17.839  0.00  0.00    +0.000 F 
ENDBRANCH  22  24
ENDBRANCH  16  18
ENDBRANCH  15  16
ENDBRANCH   2  15
TORSDOF 6
ENDMDL
MODEL 8
REMARK VINA RESULT:      -7.1      4.913      8.904
REMARK  Name = 
REMARK  6 active torsions:
REMARK  status: ('A' for Active; 'I' for Inactive)
REMARK    1  A    between atoms: C_2  and  C_3
REMARK    2  A    between atoms: C_3  and  N_4
REMARK    3  A    between atoms: N_4  and  C_5
REMARK    4  A    between atoms: C_9  and  C_10
REMARK    5  A    between atoms: N_15  and  N_16
REMARK    6  A    between atoms: C_17  and  C_18
REMARK                            x       y       z     vdW  Elec       q    Type
REMARK                         _______ _______ _______ _____ _____    ______ ____
ROOT
ATOM      1  O   UNL     1       2.693   8.501  17.099  0.00  0.00    +0.000 OA
ATOM      2  C   UNL     1       2.237   8.754  18.213  0.00  0.00    +0.000 C 
ATOM      3  N   UNL     1       2.210   7.868  19.287  0.00  0.00    +0.000 N 
ATOM      4  H   UNL     1       1.696   8.099  20.131  0.00  0.00    +0.000 HD
ENDROOT
BRANCH   3   5
ATOM      5  N   UNL     1       2.803   6.647  19.157  0.00  0.00    +0.000 NA
ATOM      6  C   UNL     1       2.063   5.677  18.726  0.00  0.00    +0.000 C 
BRANCH   6   7
ATOM      7  C   UNL     1       2.597   4.306  18.549  0.00  0.00    +0.000 A 
ATOM      8  C   UNL     1       3.620   4.009  17.636  0.00  0.00    +0.000 A 
ATOM      9 CL   UNL     1       4.473   5.177  16.695  0.00  0.00    +0.000 Cl
ATOM     10  C   UNL     1       4.036   2.687  17.526  0.00  0.00    +0.000 A 
ATOM     11  N   UNL     1       3.530   1.664  18.250  0.00  0.00    +0.000 NA
ATOM     12  C   UNL     1       2.559   1.978  19.135  0.00  0.00    +0.000 A 
ATOM     13  C   UNL     1       2.066   3.265  19.324  0.00  0.00    +0.000 A 
ATOM     14 CL   UNL     1       0.813   3.484  20.493  0.00  0.00    +0.000 Cl
ENDBRANCH   6   7
ENDBRANCH   3   5
BRANCH   2  15
ATOM     15  C   UNL     1       1.584  10.108  18.515  0.00  0.00    +0.000 C 
BRANCH  15  16
ATOM     16  N   UNL     1       0.376   9.908  19.319  0.00  0.00    +0.000 N 
ATOM     17  H   UNL     1       0.265   8.928  19.589  0.00  0.00    +0.000 HD
BRANCH  16  18
ATOM     18  C   UNL     1      -0.849  10.458  18.939  0.00  0.00    +0.000 A 
ATOM     19  C   UNL     1      -1.429  11.408  19.794  0.00  0.00    +0.000 A 
ATOM     20  C   UNL     1      -2.612  12.072  19.459  0.00  0.00    +0.000 A 
ATOM     21  C   UNL     1      -3.243  11.797  18.252  0.00  0.00    +0.000 A 
ATOM     22  C   UNL     1      -2.689  10.862  17.368  0.00  0.00    +0.000 A 
ATOM     23  C   UNL     1      -1.481  10.219  17.714  0.00  0.00    +0.000 A 
BRANCH  22  24
ATOM     24  C   UNL     1      -3.369  10.539  16.061  0.00  0.00    +0.000 C 
ATOM     25  F   UNL     1      -2.882  11.247  15.002  0.00  0.00    +0.000 F 
ATOM     26  F   UNL     1      -3.247   9.228  15.718  0.00  0.00    +0.000 F 
ATOM     27  F   UNL     1      -4.707  10.794  16.093  0.00  0.00    +0.000 F 
ENDBRANCH  22  24
ENDBRANCH  16  18
ENDBRANCH  15  16
ENDBRANCH   2  15
TORSDOF 6
ENDMDL
MODEL 9
REMARK VINA RESULT:      -7.1      1.843      3.022
REMARK  Name = 
REMARK  6 active torsions:
REMARK  status: ('A' for Active; 'I' for Inactive)
REMARK    1  A    between atoms: C_2  and  C_3
REMARK    2  A    between atoms: C_3  and  N_4
REMARK    3  A    between atoms: N_4  and  C_5
REMARK    4  A    between atoms: C_9  and  C_10
REMARK    5  A    between atoms: N_15  and  N_16
REMARK    6  A    between atoms: C_17  and  C_18
REMARK                            x       y       z     vdW  Elec       q    Type
REMARK                         _______ _______ _______ _____ _____    ______ ____
ROOT
ATOM      1  O   UNL     1       1.760   5.047  18.696  0.00  0.00    +0.000 OA
ATOM      2  C   UNL     1       2.417   5.216  19.722  0.00  0.00    +0.000 C 
ATOM      3  N   UNL     1       2.471   6.399  20.454  0.00  0.00    +0.000 N 
ATOM      4  H   UNL     1       3.140   6.506  21.209  0.00  0.00    +0.000 HD
ENDROOT
BRANCH   3   5
ATOM      5  N   UNL     1       1.679   7.446  20.083  0.00  0.00    +0.000 NA
ATOM      6  C   UNL     1       1.522   8.397  20.946  0.00  0.00    +0.000 C 
BRANCH   6   7
ATOM      7  C   UNL     1       0.681   9.583  20.656  0.00  0.00    +0.000 A 
ATOM      8  C   UNL     1       0.616  10.166  19.381  0.00  0.00    +0.000 A 
ATOM      9 CL   UNL     1       1.385   9.540  17.970  0.00  0.00    +0.000 Cl
ATOM     10  C   UNL     1      -0.184  11.291  19.216  0.00  0.00    +0.000 A 
ATOM     11  N   UNL     1      -0.917  11.858  20.200  0.00  0.00    +0.000 NA
ATOM     12  C   UNL     1      -0.853  11.268  21.413  0.00  0.00    +0.000 A 
ATOM     13  C   UNL     1      -0.084  10.142  21.690  0.00  0.00    +0.000 A 
ATOM     14 CL   UNL     1      -0.110   9.526  23.304  0.00  0.00    +0.000 Cl
ENDBRANCH   6   7
ENDBRANCH   3   5
BRANCH   2  15
ATOM     15  C   UNL     1       3.314   4.104  20.281  0.00  0.00    +0.000 C 
BRANCH  15  16
ATOM     16  N   UNL     1       4.046   3.462  19.187  0.00  0.00    +0.000 N 
ATOM     17  H   UNL     1       4.388   2.536  19.459  0.00  0.00    +0.000 HD
BRANCH  16  18
ATOM     18  C   UNL     1       5.016   4.151  18.458  0.00  0.00    +0.000 A 
ATOM     19  C   UNL     1       5.962   4.899  19.176  0.00  0.00    +0.000 A 
ATOM     20  C   UNL     1       7.017   5.556  18.539  0.00  0.00    +0.000 A 
ATOM     21  C   UNL     1       7.149   5.476  17.157  0.00  0.00    +0.000 A 
ATOM     22  C   UNL     1       6.230   4.731  16.407  0.00  0.00    +0.000 A 
ATOM     23  C   UNL     1       5.184   4.056  17.072  0.00  0.00    +0.000 A 
BRANCH  22  24
ATOM     24  C   UNL     1       6.348   4.648  14.905  0.00  0.00    +0.000 C 
ATOM     25  F   UNL     1       6.299   3.373  14.423  0.00  0.00    +0.000 F 
ATOM     26  F   UNL     1       5.357   5.325  14.264  0.00  0.00    +0.000 F 
ATOM     27  F   UNL     1       7.518   5.173  14.444  0.00  0.00    +0.000 F 
ENDBRANCH  22  24
ENDBRANCH  16  18
ENDBRANCH  15  16
ENDBRANCH   2  15
TORSDOF 6
ENDMDL
