MODEL 1
REMARK VINA RESULT:      -7.9      0.000      0.000
REMARK  Name = 
REMARK  10 active torsions:
REMARK  status: ('A' for Active; 'I' for Inactive)
REMARK    1  A    between atoms: C_2  and  C_3
REMARK    2  A    between atoms: C_3  and  C_4
REMARK    3  A    between atoms: C_4  and  C_5
REMARK    4  A    between atoms: C_5  and  C_6
REMARK    5  A    between atoms: C_5  and  C_18
REMARK    6  A    between atoms: C_6  and  C_7
REMARK    7  A    between atoms: C_7  and  C_8
REMARK    8  A    between atoms: C_8  and  C_9
REMARK    9  A    between atoms: N_11  and  C_12
REMARK   10  A    between atoms: N_24  and  O_25
REMARK                            x       y       z     vdW  Elec       q    Type
REMARK                         _______ _______ _______ _____ _____    ______ ____
ROOT
ATOM      1  C   UNL     1       6.120   5.351  15.888  0.00  0.00    +0.000 C 
ENDROOT
BRANCH   1   2
ATOM      2  C   UNL     1       6.395   4.833  14.471  0.00  0.00    +0.000 A 
ATOM      3  C   UNL     1       5.505   3.918  13.885  0.00  0.00    +0.000 A 
ATOM      4  C   UNL     1       5.742   3.409  12.605  0.00  0.00    +0.000 A 
ATOM      5  C   UNL     1       6.865   3.812  11.886  0.00  0.00    +0.000 A 
ATOM      6  C   UNL     1       7.741   4.741  12.436  0.00  0.00    +0.000 A 
ATOM      7  C   UNL     1       7.505   5.250  13.713  0.00  0.00    +0.000 A 
ENDBRANCH   1   2
BRANCH   1   8
ATOM      8  C   UNL     1       7.417   5.438  16.733  0.00  0.00    +0.000 C 
BRANCH   8   9
ATOM      9  C   UNL     1       7.409   6.341  17.965  0.00  0.00    +0.000 C 
BRANCH   9  11
ATOM     10  O   UNL     1       6.182   5.203  19.739  0.00  0.00    +0.000 OA
ATOM     11  C   UNL     1       7.238   5.646  19.300  0.00  0.00    +0.000 C 
ATOM     12  N   UNL     1       8.414   5.580  20.009  0.00  0.00    +0.000 N 
ATOM     13  H   UNL     1       9.274   6.049  19.748  0.00  0.00    +0.000 HD
BRANCH  12  14
ATOM     14  O   UNL     1       8.354   5.023  21.304  0.00  0.00    +0.000 OA
ATOM     15  H   UNL     1       7.386   5.009  21.482  0.00  0.00    +0.000 HD
ENDBRANCH  12  14
ENDBRANCH   9  11
ENDBRANCH   8   9
ENDBRANCH   1   8
BRANCH   1  16
ATOM     16  C   UNL     1       5.276   6.649  15.855  0.00  0.00    +0.000 C 
BRANCH  16  17
ATOM     17  C   UNL     1       3.913   6.530  16.540  0.00  0.00    +0.000 C 
BRANCH  17  18
ATOM     18  C   UNL     1       3.753   7.499  17.710  0.00  0.00    +0.000 C 
BRANCH  18  19
ATOM     19  C   UNL     1       2.994   6.787  18.808  0.00  0.00    +0.000 C 
ATOM     20  O   UNL     1       2.216   7.412  19.519  0.00  0.00    +0.000 OA
ATOM     21  N   UNL     1       3.222   5.422  18.854  0.00  0.00    +0.000 N 
ATOM     22  H   UNL     1       4.043   5.074  18.373  0.00  0.00    +0.000 HD
BRANCH  21  23
ATOM     23  C   UNL     1       2.495   4.485  19.617  0.00  0.00    +0.000 A 
ATOM     24  C   UNL     1       1.453   3.718  19.084  0.00  0.00    +0.000 A 
ATOM     25  C   UNL     1       0.757   2.807  19.885  0.00  0.00    +0.000 A 
ATOM     26  C   UNL     1       1.094   2.658  21.226  0.00  0.00    +0.000 A 
ATOM     27  C   UNL     1       2.143   3.399  21.763  0.00  0.00    +0.000 A 
ATOM     28  C   UNL     1       2.850   4.299  20.955  0.00  0.00    +0.000 A 
ENDBRANCH  21  23
ENDBRANCH  18  19
ENDBRANCH  17  18
ENDBRANCH  16  17
ENDBRANCH   1  16
TORSDOF 10
ENDMDL
MODEL 2
REMARK VINA RESULT:      -7.8      2.370      7.063
REMARK  Name = 
REMARK  10 active torsions:
REMARK  status: ('A' for Active; 'I' for Inactive)
REMARK    1  A    between atoms: C_2  and  C_3
REMARK    2  A    between atoms: C_3  and  C_4
REMARK    3  A    between atoms: C_4  and  C_5
REMARK    4  A    between atoms: C_5  and  C_6
REMARK    5  A    between atoms: C_5  and  C_18
REMARK    6  A    between atoms: C_6  and  C_7
REMARK    7  A    between atoms: C_7  and  C_8
REMARK    8  A    between atoms: C_8  and  C_9
REMARK    9  A    between atoms: N_11  and  C_12
REMARK   10  A    between atoms: N_24  and  O_25
REMARK                            x       y       z     vdW  Elec       q    Type
REMARK                         _______ _______ _______ _____ _____    ______ ____
ROOT
ATOM      1  C   UNL     1       3.237   5.557  18.503  0.00  0.00    +0.000 C 
ENDROOT
BRANCH   1   2
ATOM      2  C   UNL     1       2.561   6.899  18.807  0.00  0.00    +0.000 A 
ATOM      3  C   UNL     1       2.060   7.144  20.097  0.00  0.00    +0.000 A 
ATOM      4  C   UNL     1       1.417   8.348  20.397  0.00  0.00    +0.000 A 
ATOM      5  C   UNL     1       1.273   9.330  19.421  0.00  0.00    +0.000 A 
ATOM      6  C   UNL     1       1.789   9.120  18.148  0.00  0.00    +0.000 A 
ATOM      7  C   UNL     1       2.432   7.920  17.846  0.00  0.00    +0.000 A 
ENDBRANCH   1   2
BRANCH   1   8
ATOM      8  C   UNL     1       2.275   4.578  17.781  0.00  0.00    +0.000 C 
BRANCH   8   9
ATOM      9  C   UNL     1       2.602   3.086  17.833  0.00  0.00    +0.000 C 
BRANCH   9  11
ATOM     10  O   UNL     1       2.583   2.535  20.208  0.00  0.00    +0.000 OA
ATOM     11  C   UNL     1       3.179   2.575  19.137  0.00  0.00    +0.000 C 
ATOM     12  N   UNL     1       4.487   2.171  19.008  0.00  0.00    +0.000 N 
ATOM     13  H   UNL     1       5.057   2.313  18.181  0.00  0.00    +0.000 HD
BRANCH  12  14
ATOM     14  O   UNL     1       5.149   1.752  20.181  0.00  0.00    +0.000 OA
ATOM     15  H   UNL     1       5.394   2.608  20.601  0.00  0.00    +0.000 HD
ENDBRANCH  12  14
ENDBRANCH   9  11
ENDBRANCH   8   9
ENDBRANCH   1   8
BRANCH   1  16
ATOM     16  C   UNL     1       4.603   5.764  17.803  0.00  0.00    +0.000 C 
BRANCH  16  17
ATOM     17  C   UNL     1       5.814   5.554  18.715  0.00  0.00    +0.000 C 
BRANCH  17  18
ATOM     18  C   UNL     1       7.116   6.053  18.092  0.00  0.00    +0.000 C 
BRANCH  18  19
ATOM     19  C   UNL     1       7.409   5.207  16.874  0.00  0.00    +0.000 C 
ATOM     20  O   UNL     1       8.003   4.142  16.997  0.00  0.00    +0.000 OA
ATOM     21  N   UNL     1       6.891   5.719  15.697  0.00  0.00    +0.000 N 
ATOM     22  H   UNL     1       6.627   6.698  15.695  0.00  0.00    +0.000 HD
BRANCH  21  23
ATOM     23  C   UNL     1       6.817   5.046  14.459  0.00  0.00    +0.000 A 
ATOM     24  C   UNL     1       5.863   4.060  14.189  0.00  0.00    +0.000 A 
ATOM     25  C   UNL     1       5.837   3.414  12.947  0.00  0.00    +0.000 A 
ATOM     26  C   UNL     1       6.767   3.748  11.969  0.00  0.00    +0.000 A 
ATOM     27  C   UNL     1       7.709   4.743  12.219  0.00  0.00    +0.000 A 
ATOM     28  C   UNL     1       7.723   5.399  13.456  0.00  0.00    +0.000 A 
ENDBRANCH  21  23
ENDBRANCH  18  19
ENDBRANCH  17  18
ENDBRANCH  16  17
ENDBRANCH   1  16
TORSDOF 10
ENDMDL
MODEL 3
REMARK VINA RESULT:      -7.6      4.307      7.693
REMARK  Name = 
REMARK  10 active torsions:
REMARK  status: ('A' for Active; 'I' for Inactive)
REMARK    1  A    between atoms: C_2  and  C_3
REMARK    2  A    between atoms: C_3  and  C_4
REMARK    3  A    between atoms: C_4  and  C_5
REMARK    4  A    between atoms: C_5  and  C_6
REMARK    5  A    between atoms: C_5  and  C_18
REMARK    6  A    between atoms: C_6  and  C_7
REMARK    7  A    between atoms: C_7  and  C_8
REMARK    8  A    between atoms: C_8  and  C_9
REMARK    9  A    between atoms: N_11  and  C_12
REMARK   10  A    between atoms: N_24  and  O_25
REMARK                            x       y       z     vdW  Elec       q    Type
REMARK                         _______ _______ _______ _____ _____    ______ ____
ROOT
ATOM      1  C   UNL     1       5.787   4.568  17.803  0.00  0.00    +0.000 C 
ENDROOT
BRANCH   1   2
ATOM      2  C   UNL     1       4.287   4.251  17.827  0.00  0.00    +0.000 A 
ATOM      3  C   UNL     1       3.865   2.912  17.873  0.00  0.00    +0.000 A 
ATOM      4  C   UNL     1       2.505   2.590  17.871  0.00  0.00    +0.000 A 
ATOM      5  C   UNL     1       1.545   3.598  17.834  0.00  0.00    +0.000 A 
ATOM      6  C   UNL     1       1.942   4.930  17.820  0.00  0.00    +0.000 A 
ATOM      7  C   UNL     1       3.298   5.253  17.823  0.00  0.00    +0.000 A 
ENDBRANCH   1   2
BRANCH   1   8
ATOM      8  C   UNL     1       6.468   4.034  16.516  0.00  0.00    +0.000 C 
BRANCH   8   9
ATOM      9  C   UNL     1       5.732   4.216  15.189  0.00  0.00    +0.000 C 
BRANCH   9  11
ATOM     10  O   UNL     1       6.525   3.897  12.906  0.00  0.00    +0.000 OA
ATOM     11  C   UNL     1       6.600   4.487  13.978  0.00  0.00    +0.000 C 
ATOM     12  N   UNL     1       7.529   5.474  14.211  0.00  0.00    +0.000 N 
ATOM     13  H   UNL     1       7.716   5.890  15.117  0.00  0.00    +0.000 HD
BRANCH  12  14
ATOM     14  O   UNL     1       8.445   5.752  13.174  0.00  0.00    +0.000 OA
ATOM     15  H   UNL     1       8.360   4.957  12.600  0.00  0.00    +0.000 HD
ENDBRANCH  12  14
ENDBRANCH   9  11
ENDBRANCH   8   9
ENDBRANCH   1   8
BRANCH   1  16
ATOM     16  C   UNL     1       6.047   6.065  18.105  0.00  0.00    +0.000 C 
BRANCH  16  17
ATOM     17  C   UNL     1       7.315   6.625  17.457  0.00  0.00    +0.000 C 
BRANCH  17  18
ATOM     18  C   UNL     1       7.286   8.145  17.318  0.00  0.00    +0.000 C 
BRANCH  18  19
ATOM     19  C   UNL     1       8.310   8.724  18.268  0.00  0.00    +0.000 C 
ATOM     20  O   UNL     1       8.882   7.994  19.068  0.00  0.00    +0.000 OA
ATOM     21  N   UNL     1       8.551  10.074  18.080  0.00  0.00    +0.000 N 
ATOM     22  H   UNL     1       7.862  10.598  17.554  0.00  0.00    +0.000 HD
BRANCH  21  23
ATOM     23  C   UNL     1       9.598  10.819  18.662  0.00  0.00    +0.000 A 
ATOM     24  C   UNL     1      10.687  11.299  17.926  0.00  0.00    +0.000 A 
ATOM     25  C   UNL     1      11.705  12.026  18.552  0.00  0.00    +0.000 A 
ATOM     26  C   UNL     1      11.644  12.276  19.919  0.00  0.00    +0.000 A 
ATOM     27  C   UNL     1      10.555  11.822  20.658  0.00  0.00    +0.000 A 
ATOM     28  C   UNL     1       9.529  11.108  20.027  0.00  0.00    +0.000 A 
ENDBRANCH  21  23
ENDBRANCH  18  19
ENDBRANCH  17  18
ENDBRANCH  16  17
ENDBRANCH   1  16
TORSDOF 10
ENDMDL
MODEL 4
REMARK VINA RESULT:      -7.5      1.878      3.281
REMARK  Name = 
REMARK  10 active torsions:
REMARK  status: ('A' for Active; 'I' for Inactive)
REMARK    1  A    between atoms: C_2  and  C_3
REMARK    2  A    between atoms: C_3  and  C_4
REMARK    3  A    between atoms: C_4  and  C_5
REMARK    4  A    between atoms: C_5  and  C_6
REMARK    5  A    between atoms: C_5  and  C_18
REMARK    6  A    between atoms: C_6  and  C_7
REMARK    7  A    between atoms: C_7  and  C_8
REMARK    8  A    between atoms: C_8  and  C_9
REMARK    9  A    between atoms: N_11  and  C_12
REMARK   10  A    between atoms: N_24  and  O_25
REMARK                            x       y       z     vdW  Elec       q    Type
REMARK                         _______ _______ _______ _____ _____    ______ ____
ROOT
ATOM      1  C   UNL     1       6.214   4.883  15.971  0.00  0.00    +0.000 C 
ENDROOT
BRANCH   1   2
ATOM      2  C   UNL     1       6.553   4.633  14.497  0.00  0.00    +0.000 A 
ATOM      3  C   UNL     1       7.604   5.348  13.898  0.00  0.00    +0.000 A 
ATOM      4  C   UNL     1       7.920   5.160  12.550  0.00  0.00    +0.000 A 
ATOM      5  C   UNL     1       7.200   4.250  11.780  0.00  0.00    +0.000 A 
ATOM      6  C   UNL     1       6.176   3.511  12.361  0.00  0.00    +0.000 A 
ATOM      7  C   UNL     1       5.860   3.696  13.707  0.00  0.00    +0.000 A 
ENDBRANCH   1   2
BRANCH   1   8
ATOM      8  C   UNL     1       6.770   6.243  16.467  0.00  0.00    +0.000 C 
BRANCH   8   9
ATOM      9  C   UNL     1       6.835   6.482  17.975  0.00  0.00    +0.000 C 
BRANCH   9  11
ATOM     10  O   UNL     1       8.114   4.439  18.347  0.00  0.00    +0.000 OA
ATOM     11  C   UNL     1       7.676   5.503  18.770  0.00  0.00    +0.000 C 
ATOM     12  N   UNL     1       7.886   5.924  20.061  0.00  0.00    +0.000 N 
ATOM     13  H   UNL     1       7.433   6.723  20.491  0.00  0.00    +0.000 HD
BRANCH  12  14
ATOM     14  O   UNL     1       8.590   5.049  20.916  0.00  0.00    +0.000 OA
ATOM     15  H   UNL     1       8.094   4.206  20.808  0.00  0.00    +0.000 HD
ENDBRANCH  12  14
ENDBRANCH   9  11
ENDBRANCH   8   9
ENDBRANCH   1   8
BRANCH   1  16
ATOM     16  C   UNL     1       4.707   4.656  16.245  0.00  0.00    +0.000 C 
BRANCH  16  17
ATOM     17  C   UNL     1       4.413   3.533  17.242  0.00  0.00    +0.000 C 
BRANCH  17  18
ATOM     18  C   UNL     1       3.992   4.055  18.614  0.00  0.00    +0.000 C 
BRANCH  18  19
ATOM     19  C   UNL     1       2.935   5.116  18.408  0.00  0.00    +0.000 C 
ATOM     20  O   UNL     1       1.852   4.814  17.920  0.00  0.00    +0.000 OA
ATOM     21  N   UNL     1       3.296   6.367  18.877  0.00  0.00    +0.000 N 
ATOM     22  H   UNL     1       4.282   6.532  19.044  0.00  0.00    +0.000 HD
BRANCH  21  23
ATOM     23  C   UNL     1       2.440   7.480  19.018  0.00  0.00    +0.000 A 
ATOM     24  C   UNL     1       1.877   7.853  20.243  0.00  0.00    +0.000 A 
ATOM     25  C   UNL     1       1.027   8.960  20.329  0.00  0.00    +0.000 A 
ATOM     26  C   UNL     1       0.731   9.702  19.191  0.00  0.00    +0.000 A 
ATOM     27  C   UNL     1       1.302   9.354  17.969  0.00  0.00    +0.000 A 
ATOM     28  C   UNL     1       2.166   8.255  17.888  0.00  0.00    +0.000 A 
ENDBRANCH  21  23
ENDBRANCH  18  19
ENDBRANCH  17  18
ENDBRANCH  16  17
ENDBRANCH   1  16
TORSDOF 10
ENDMDL
MODEL 5
REMARK VINA RESULT:      -7.4      1.040      1.544
REMARK  Name = 
REMARK  10 active torsions:
REMARK  status: ('A' for Active; 'I' for Inactive)
REMARK    1  A    between atoms: C_2  and  C_3
REMARK    2  A    between atoms: C_3  and  C_4
REMARK    3  A    between atoms: C_4  and  C_5
REMARK    4  A    between atoms: C_5  and  C_6
REMARK    5  A    between atoms: C_5  and  C_18
REMARK    6  A    between atoms: C_6  and  C_7
REMARK    7  A    between atoms: C_7  and  C_8
REMARK    8  A    between atoms: C_8  and  C_9
REMARK    9  A    between atoms: N_11  and  C_12
REMARK   10  A    between atoms: N_24  and  O_25
REMARK                            x       y       z     vdW  Elec       q    Type
REMARK                         _______ _______ _______ _____ _____    ______ ____
ROOT
ATOM      1  C   UNL     1       5.944   5.604  16.041  0.00  0.00    +0.000 C 
ENDROOT
BRANCH   1   2
ATOM      2  C   UNL     1       6.257   4.999  14.668  0.00  0.00    +0.000 A 
ATOM      3  C   UNL     1       7.427   5.385  13.993  0.00  0.00    +0.000 A 
ATOM      4  C   UNL     1       7.727   4.870  12.729  0.00  0.00    +0.000 A 
ATOM      5  C   UNL     1       6.871   3.954  12.123  0.00  0.00    +0.000 A 
ATOM      6  C   UNL     1       5.724   3.536  12.787  0.00  0.00    +0.000 A 
ATOM      7  C   UNL     1       5.423   4.049  14.048  0.00  0.00    +0.000 A 
ENDBRANCH   1   2
BRANCH   1   8
ATOM      8  C   UNL     1       7.221   6.137  16.741  0.00  0.00    +0.000 C 
BRANCH   8   9
ATOM      9  C   UNL     1       7.563   5.581  18.124  0.00  0.00    +0.000 C 
BRANCH   9  11
ATOM     10  O   UNL     1       5.750   5.567  19.754  0.00  0.00    +0.000 OA
ATOM     11  C   UNL     1       6.411   4.981  18.904  0.00  0.00    +0.000 C 
ATOM     12  N   UNL     1       6.187   3.665  18.575  0.00  0.00    +0.000 N 
ATOM     13  H   UNL     1       6.791   3.106  17.983  0.00  0.00    +0.000 HD
BRANCH  12  14
ATOM     14  O   UNL     1       5.188   2.983  19.302  0.00  0.00    +0.000 OA
ATOM     15  H   UNL     1       4.447   2.946  18.655  0.00  0.00    +0.000 HD
ENDBRANCH  12  14
ENDBRANCH   9  11
ENDBRANCH   8   9
ENDBRANCH   1   8
BRANCH   1  16
ATOM     16  C   UNL     1       4.778   6.620  15.952  0.00  0.00    +0.000 C 
BRANCH  16  17
ATOM     17  C   UNL     1       4.566   7.446  17.223  0.00  0.00    +0.000 C 
BRANCH  17  18
ATOM     18  C   UNL     1       3.110   7.861  17.422  0.00  0.00    +0.000 C 
BRANCH  18  19
ATOM     19  C   UNL     1       2.554   7.076  18.589  0.00  0.00    +0.000 C 
ATOM     20  O   UNL     1       1.875   7.641  19.438  0.00  0.00    +0.000 OA
ATOM     21  N   UNL     1       2.831   5.721  18.538  0.00  0.00    +0.000 N 
ATOM     22  H   UNL     1       3.579   5.425  17.921  0.00  0.00    +0.000 HD
BRANCH  21  23
ATOM     23  C   UNL     1       2.262   4.725  19.359  0.00  0.00    +0.000 A 
ATOM     24  C   UNL     1       1.379   3.755  18.874  0.00  0.00    +0.000 A 
ATOM     25  C   UNL     1       0.835   2.793  19.732  0.00  0.00    +0.000 A 
ATOM     26  C   UNL     1       1.167   2.796  21.082  0.00  0.00    +0.000 A 
ATOM     27  C   UNL     1       2.061   3.744  21.574  0.00  0.00    +0.000 A 
ATOM     28  C   UNL     1       2.618   4.696  20.710  0.00  0.00    +0.000 A 
ENDBRANCH  21  23
ENDBRANCH  18  19
ENDBRANCH  17  18
ENDBRANCH  16  17
ENDBRANCH   1  16
TORSDOF 10
ENDMDL
MODEL 6
REMARK VINA RESULT:      -7.4      2.350      7.202
REMARK  Name = 
REMARK  10 active torsions:
REMARK  status: ('A' for Active; 'I' for Inactive)
REMARK    1  A    between atoms: C_2  and  C_3
REMARK    2  A    between atoms: C_3  and  C_4
REMARK    3  A    between atoms: C_4  and  C_5
REMARK    4  A    between atoms: C_5  and  C_6
REMARK    5  A    between atoms: C_5  and  C_18
REMARK    6  A    between atoms: C_6  and  C_7
REMARK    7  A    between atoms: C_7  and  C_8
REMARK    8  A    between atoms: C_8  and  C_9
REMARK    9  A    between atoms: N_11  and  C_12
REMARK   10  A    between atoms: N_24  and  O_25
REMARK                            x       y       z     vdW  Elec       q    Type
REMARK                         _______ _______ _______ _____ _____    ______ ____
ROOT
ATOM      1  C   UNL     1       3.432   6.028  19.275  0.00  0.00    +0.000 C 
ENDROOT
BRANCH   1   2
ATOM      2  C   UNL     1       2.530   7.264  19.184  0.00  0.00    +0.000 A 
ATOM      3  C   UNL     1       2.328   7.883  17.939  0.00  0.00    +0.000 A 
ATOM      4  C   UNL     1       1.532   9.026  17.829  0.00  0.00    +0.000 A 
ATOM      5  C   UNL     1       0.916   9.564  18.956  0.00  0.00    +0.000 A 
ATOM      6  C   UNL     1       1.078   8.948  20.192  0.00  0.00    +0.000 A 
ATOM      7  C   UNL     1       1.872   7.808  20.304  0.00  0.00    +0.000 A 
ENDBRANCH   1   2
BRANCH   1   8
ATOM      8  C   UNL     1       2.688   4.815  19.893  0.00  0.00    +0.000 C 
BRANCH   8   9
ATOM      9  C   UNL     1       2.563   3.548  19.049  0.00  0.00    +0.000 C 
BRANCH   9  11
ATOM     10  O   UNL     1       4.711   2.706  19.836  0.00  0.00    +0.000 OA
ATOM     11  C   UNL     1       3.681   2.536  19.195  0.00  0.00    +0.000 C 
ATOM     12  N   UNL     1       3.433   1.379  18.494  0.00  0.00    +0.000 N 
ATOM     13  H   UNL     1       2.665   1.249  17.845  0.00  0.00    +0.000 HD
BRANCH  12  14
ATOM     14  O   UNL     1       4.447   0.398  18.494  0.00  0.00    +0.000 OA
ATOM     15  H   UNL     1       5.229   0.905  18.810  0.00  0.00    +0.000 HD
ENDBRANCH  12  14
ENDBRANCH   9  11
ENDBRANCH   8   9
ENDBRANCH   1   8
BRANCH   1  16
ATOM     16  C   UNL     1       4.129   5.744  17.921  0.00  0.00    +0.000 C 
BRANCH  16  17
ATOM     17  C   UNL     1       5.306   6.672  17.614  0.00  0.00    +0.000 C 
BRANCH  17  18
ATOM     18  C   UNL     1       6.658   6.039  17.934  0.00  0.00    +0.000 C 
BRANCH  18  19
ATOM     19  C   UNL     1       7.103   5.245  16.726  0.00  0.00    +0.000 C 
ATOM     20  O   UNL     1       7.854   4.287  16.866  0.00  0.00    +0.000 OA
ATOM     21  N   UNL     1       6.533   5.667  15.537  0.00  0.00    +0.000 N 
ATOM     22  H   UNL     1       6.120   6.592  15.524  0.00  0.00    +0.000 HD
BRANCH  21  23
ATOM     23  C   UNL     1       6.590   4.986  14.302  0.00  0.00    +0.000 A 
ATOM     24  C   UNL     1       5.652   4.018  13.927  0.00  0.00    +0.000 A 
ATOM     25  C   UNL     1       5.757   3.365  12.694  0.00  0.00    +0.000 A 
ATOM     26  C   UNL     1       6.802   3.672  11.829  0.00  0.00    +0.000 A 
ATOM     27  C   UNL     1       7.729   4.649  12.182  0.00  0.00    +0.000 A 
ATOM     28  C   UNL     1       7.613   5.313  13.410  0.00  0.00    +0.000 A 
ENDBRANCH  21  23
ENDBRANCH  18  19
ENDBRANCH  17  18
ENDBRANCH  16  17
ENDBRANCH   1  16
TORSDOF 10
ENDMDL
MODEL 7
REMARK VINA RESULT:      -7.4      4.327      6.652
REMARK  Name = 
REMARK  10 active torsions:
REMARK  status: ('A' for Active; 'I' for Inactive)
REMARK    1  A    between atoms: C_2  and  C_3
REMARK    2  A    between atoms: C_3  and  C_4
REMARK    3  A    between atoms: C_4  and  C_5
REMARK    4  A    between atoms: C_5  and  C_6
REMARK    5  A    between atoms: C_5  and  C_18
REMARK    6  A    between atoms: C_6  and  C_7
REMARK    7  A    between atoms: C_7  and  C_8
REMARK    8  A    between atoms: C_8  and  C_9
REMARK    9  A    between atoms: N_11  and  C_12
REMARK   10  A    between atoms: N_24  and  O_25
REMARK                            x       y       z     vdW  Elec       q    Type
REMARK                         _______ _______ _______ _____ _____    ______ ____
ROOT
ATOM      1  C   UNL     1       4.087   5.903  17.758  0.00  0.00    +0.000 C 
ENDROOT
BRANCH   1   2
ATOM      2  C   UNL     1       2.986   5.214  18.574  0.00  0.00    +0.000 A 
ATOM      3  C   UNL     1       2.873   5.483  19.948  0.00  0.00    +0.000 A 
ATOM      4  C   UNL     1       1.896   4.852  20.722  0.00  0.00    +0.000 A 
ATOM      5  C   UNL     1       1.009   3.951  20.137  0.00  0.00    +0.000 A 
ATOM      6  C   UNL     1       1.085   3.695  18.773  0.00  0.00    +0.000 A 
ATOM      7  C   UNL     1       2.059   4.324  17.999  0.00  0.00    +0.000 A 
ENDBRANCH   1   2
BRANCH   1   8
ATOM      8  C   UNL     1       4.472   5.081  16.501  0.00  0.00    +0.000 C 
BRANCH   8   9
ATOM      9  C   UNL     1       5.622   4.081  16.625  0.00  0.00    +0.000 C 
BRANCH   9  11
ATOM     10  O   UNL     1       8.027   4.468  16.724  0.00  0.00    +0.000 OA
ATOM     11  C   UNL     1       6.968   4.547  16.111  0.00  0.00    +0.000 C 
ATOM     12  N   UNL     1       6.883   5.108  14.858  0.00  0.00    +0.000 N 
ATOM     13  H   UNL     1       6.016   5.316  14.375  0.00  0.00    +0.000 HD
BRANCH  12  14
ATOM     14  O   UNL     1       8.068   5.650  14.315  0.00  0.00    +0.000 OA
ATOM     15  H   UNL     1       7.857   6.610  14.269  0.00  0.00    +0.000 HD
ENDBRANCH  12  14
ENDBRANCH   9  11
ENDBRANCH   8   9
ENDBRANCH   1   8
BRANCH   1  16
ATOM     16  C   UNL     1       3.736   7.386  17.486  0.00  0.00    +0.000 C 
BRANCH  16  17
ATOM     17  C   UNL     1       2.328   7.790  17.928  0.00  0.00    +0.000 C 
BRANCH  17  18
ATOM     18  C   UNL     1       2.161   9.303  18.060  0.00  0.00    +0.000 C 
BRANCH  18  19
ATOM     19  C   UNL     1       0.784   9.575  18.624  0.00  0.00    +0.000 C 
ATOM     20  O   UNL     1       0.596   9.513  19.833  0.00  0.00    +0.000 OA
ATOM     21  N   UNL     1      -0.149   9.949  17.672  0.00  0.00    +0.000 N 
ATOM     22  H   UNL     1       0.069   9.742  16.705  0.00  0.00    +0.000 HD
BRANCH  21  23
ATOM     23  C   UNL     1      -1.434  10.470  17.930  0.00  0.00    +0.000 A 
ATOM     24  C   UNL     1      -1.653  11.571  18.764  0.00  0.00    +0.000 A 
ATOM     25  C   UNL     1      -2.949  12.045  18.994  0.00  0.00    +0.000 A 
ATOM     26  C   UNL     1      -4.036  11.419  18.395  0.00  0.00    +0.000 A 
ATOM     27  C   UNL     1      -3.830  10.334  17.546  0.00  0.00    +0.000 A 
ATOM     28  C   UNL     1      -2.531   9.872  17.303  0.00  0.00    +0.000 A 
ENDBRANCH  21  23
ENDBRANCH  18  19
ENDBRANCH  17  18
ENDBRANCH  16  17
ENDBRANCH   1  16
TORSDOF 10
ENDMDL
MODEL 8
REMARK VINA RESULT:      -7.4      3.550      6.078
REMARK  Name = 
REMARK  10 active torsions:
REMARK  status: ('A' for Active; 'I' for Inactive)
REMARK    1  A    between atoms: C_2  and  C_3
REMARK    2  A    between atoms: C_3  and  C_4
REMARK    3  A    between atoms: C_4  and  C_5
REMARK    4  A    between atoms: C_5  and  C_6
REMARK    5  A    between atoms: C_5  and  C_18
REMARK    6  A    between atoms: C_6  and  C_7
REMARK    7  A    between atoms: C_7  and  C_8
REMARK    8  A    between atoms: C_8  and  C_9
REMARK    9  A    between atoms: N_11  and  C_12
REMARK   10  A    between atoms: N_24  and  O_25
REMARK                            x       y       z     vdW  Elec       q    Type
REMARK                         _______ _______ _______ _____ _____    ______ ____
ROOT
ATOM      1  C   UNL     1       3.537   5.570  18.540  0.00  0.00    +0.000 C 
ENDROOT
BRANCH   1   2
ATOM      2  C   UNL     1       2.641   4.621  19.344  0.00  0.00    +0.000 A 
ATOM      3  C   UNL     1       1.728   3.795  18.669  0.00  0.00    +0.000 A 
ATOM      4  C   UNL     1       0.881   2.937  19.375  0.00  0.00    +0.000 A 
ATOM      5  C   UNL     1       0.937   2.883  20.766  0.00  0.00    +0.000 A 
ATOM      6  C   UNL     1       1.855   3.670  21.451  0.00  0.00    +0.000 A 
ATOM      7  C   UNL     1       2.702   4.526  20.747  0.00  0.00    +0.000 A 
ENDBRANCH   1   2
BRANCH   1   8
ATOM      8  C   UNL     1       4.551   4.796  17.658  0.00  0.00    +0.000 C 
BRANCH   8   9
ATOM      9  C   UNL     1       5.856   5.499  17.284  0.00  0.00    +0.000 C 
BRANCH   9  11
ATOM     10  O   UNL     1       8.045   4.527  17.737  0.00  0.00    +0.000 OA
ATOM     11  C   UNL     1       7.066   5.152  18.127  0.00  0.00    +0.000 C 
ATOM     12  N   UNL     1       6.945   5.597  19.422  0.00  0.00    +0.000 N 
ATOM     13  H   UNL     1       6.101   5.994  19.821  0.00  0.00    +0.000 HD
BRANCH  12  14
ATOM     14  O   UNL     1       7.981   5.256  20.318  0.00  0.00    +0.000 OA
ATOM     15  H   UNL     1       7.875   5.930  21.027  0.00  0.00    +0.000 HD
ENDBRANCH  12  14
ENDBRANCH   9  11
ENDBRANCH   8   9
ENDBRANCH   1   8
BRANCH   1  16
ATOM     16  C   UNL     1       2.696   6.631  17.788  0.00  0.00    +0.000 C 
BRANCH  16  17
ATOM     17  C   UNL     1       2.574   7.970  18.520  0.00  0.00    +0.000 C 
BRANCH  17  18
ATOM     18  C   UNL     1       1.871   9.038  17.685  0.00  0.00    +0.000 C 
BRANCH  18  19
ATOM     19  C   UNL     1       0.860   9.734  18.568  0.00  0.00    +0.000 C 
ATOM     20  O   UNL     1      -0.218  10.086  18.104  0.00  0.00    +0.000 OA
ATOM     21  N   UNL     1       1.253   9.846  19.891  0.00  0.00    +0.000 N 
ATOM     22  H   UNL     1       2.239   9.725  20.092  0.00  0.00    +0.000 HD
BRANCH  21  23
ATOM     23  C   UNL     1       0.435  10.244  20.969  0.00  0.00    +0.000 A 
ATOM     24  C   UNL     1      -0.073  11.541  21.097  0.00  0.00    +0.000 A 
ATOM     25  C   UNL     1      -0.873  11.887  22.191  0.00  0.00    +0.000 A 
ATOM     26  C   UNL     1      -1.169  10.941  23.167  0.00  0.00    +0.000 A 
ATOM     27  C   UNL     1      -0.686   9.641  23.040  0.00  0.00    +0.000 A 
ATOM     28  C   UNL     1       0.101   9.291  21.935  0.00  0.00    +0.000 A 
ENDBRANCH  21  23
ENDBRANCH  18  19
ENDBRANCH  17  18
ENDBRANCH  16  17
ENDBRANCH   1  16
TORSDOF 10
ENDMDL
MODEL 9
REMARK VINA RESULT:      -7.4      2.112      7.699
REMARK  Name = 
REMARK  10 active torsions:
REMARK  status: ('A' for Active; 'I' for Inactive)
REMARK    1  A    between atoms: C_2  and  C_3
REMARK    2  A    between atoms: C_3  and  C_4
REMARK    3  A    between atoms: C_4  and  C_5
REMARK    4  A    between atoms: C_5  and  C_6
REMARK    5  A    between atoms: C_5  and  C_18
REMARK    6  A    between atoms: C_6  and  C_7
REMARK    7  A    between atoms: C_7  and  C_8
REMARK    8  A    between atoms: C_8  and  C_9
REMARK    9  A    between atoms: N_11  and  C_12
REMARK   10  A    between atoms: N_24  and  O_25
REMARK                            x       y       z     vdW  Elec       q    Type
REMARK                         _______ _______ _______ _____ _____    ______ ____
ROOT
ATOM      1  C   UNL     1       2.327   5.727  18.435  0.00  0.00    +0.000 C 
ENDROOT
BRANCH   1   2
ATOM      2  C   UNL     1       1.993   4.635  19.457  0.00  0.00    +0.000 A 
ATOM      3  C   UNL     1       1.256   3.510  19.051  0.00  0.00    +0.000 A 
ATOM      4  C   UNL     1       0.915   2.510  19.966  0.00  0.00    +0.000 A 
ATOM      5  C   UNL     1       1.313   2.610  21.297  0.00  0.00    +0.000 A 
ATOM      6  C   UNL     1       2.069   3.700  21.711  0.00  0.00    +0.000 A 
ATOM      7  C   UNL     1       2.411   4.698  20.800  0.00  0.00    +0.000 A 
ENDBRANCH   1   2
BRANCH   1   8
ATOM      8  C   UNL     1       2.453   7.122  19.101  0.00  0.00    +0.000 C 
BRANCH   8   9
ATOM      9  C   UNL     1       2.260   8.355  18.220  0.00  0.00    +0.000 C 
BRANCH   9  11
ATOM     10  O   UNL     1       1.084   9.616  19.944  0.00  0.00    +0.000 OA
ATOM     11  C   UNL     1       1.326   9.419  18.759  0.00  0.00    +0.000 C 
ATOM     12  N   UNL     1       0.736  10.152  17.756  0.00  0.00    +0.000 N 
ATOM     13  H   UNL     1       0.801   9.937  16.767  0.00  0.00    +0.000 HD
BRANCH  12  14
ATOM     14  O   UNL     1      -0.217  11.119  18.143  0.00  0.00    +0.000 OA
ATOM     15  H   UNL     1      -1.062  10.708  17.852  0.00  0.00    +0.000 HD
ENDBRANCH  12  14
ENDBRANCH   9  11
ENDBRANCH   8   9
ENDBRANCH   1   8
BRANCH   1  16
ATOM     16  C   UNL     1       3.529   5.316  17.549  0.00  0.00    +0.000 C 
BRANCH  16  17
ATOM     17  C   UNL     1       4.765   6.202  17.718  0.00  0.00    +0.000 C 
BRANCH  17  18
ATOM     18  C   UNL     1       6.005   5.413  18.135  0.00  0.00    +0.000 C 
BRANCH  18  19
ATOM     19  C   UNL     1       6.757   5.024  16.882  0.00  0.00    +0.000 C 
ATOM     20  O   UNL     1       7.825   4.430  16.970  0.00  0.00    +0.000 OA
ATOM     21  N   UNL     1       6.095   5.340  15.709  0.00  0.00    +0.000 N 
ATOM     22  H   UNL     1       5.347   6.020  15.769  0.00  0.00    +0.000 HD
BRANCH  21  23
ATOM     23  C   UNL     1       6.447   4.905  14.414  0.00  0.00    +0.000 A 
ATOM     24  C   UNL     1       7.535   5.430  13.707  0.00  0.00    +0.000 A 
ATOM     25  C   UNL     1       7.838   4.970  12.421  0.00  0.00    +0.000 A 
ATOM     26  C   UNL     1       7.054   3.986  11.830  0.00  0.00    +0.000 A 
ATOM     27  C   UNL     1       5.982   3.440  12.531  0.00  0.00    +0.000 A 
ATOM     28  C   UNL     1       5.690   3.890  13.825  0.00  0.00    +0.000 A 
ENDBRANCH  21  23
ENDBRANCH  18  19
ENDBRANCH  17  18
ENDBRANCH  16  17
ENDBRANCH   1  16
TORSDOF 10
ENDMDL
