MODEL 1
REMARK VINA RESULT:      -6.7      0.000      0.000
REMARK  Name = 
REMARK  18 active torsions:
REMARK  status: ('A' for Active; 'I' for Inactive)
REMARK    1  A    between atoms: N_3  and  C_4
REMARK    2  A    between atoms: C_6  and  N_7
REMARK    3  A    between atoms: C_9  and  C_10
REMARK    4  A    between atoms: C_10  and  C_11
REMARK    5  A    between atoms: C_11  and  C_12
REMARK    6  A    between atoms: N_14  and  C_15
REMARK    7  A    between atoms: C_15  and  C_16
REMARK    8  A    between atoms: C_16  and  C_17
REMARK    9  A    between atoms: C_17  and  C_18
REMARK   10  A    between atoms: C_18  and  C_19
REMARK   11  A    between atoms: C_19  and  C_20
REMARK   12  A    between atoms: C_20  and  C_21
REMARK   13  A    between atoms: C_21  and  C_22
REMARK   14  A    between atoms: C_22  and  C_23
REMARK   15  A    between atoms: C_23  and  C_24
REMARK   16  A    between atoms: C_24  and  N_25
REMARK   17  A    between atoms: C_32  and  C_33
REMARK   18  A    between atoms: C_33  and  O_34
REMARK                            x       y       z     vdW  Elec       q    Type
REMARK                         _______ _______ _______ _____ _____    ______ ____
ROOT
ATOM      1  N   UNL     1       9.092  12.559  21.308  0.00  0.00    +0.000 N 
ATOM      2  C   UNL     1       8.870  11.347  20.682  0.00  0.00    +0.000 A 
ATOM      3  C   UNL     1       9.508  10.980  19.557  0.00  0.00    +0.000 A 
ATOM      4  C   UNL     1      10.466  11.949  18.956  0.00  0.00    +0.000 A 
ATOM      5  O   UNL     1      11.198  11.652  18.020  0.00  0.00    +0.000 OA
ATOM      6  N   UNL     1      10.477  13.191  19.536  0.00  0.00    +0.000 N 
ATOM      7  C   UNL     1       9.951  13.508  20.766  0.00  0.00    +0.000 A 
ATOM      8  O   UNL     1      10.273  14.550  21.337  0.00  0.00    +0.000 OA
ATOM      9  H   UNL     1      11.138  13.855  19.173  0.00  0.00    +0.000 HD
ENDROOT
BRANCH   1  12
ATOM     10  C   UNL     1       7.136  11.938  24.331  0.00  0.00    +0.000 C 
ATOM     11  C   UNL     1       8.221  11.500  23.368  0.00  0.00    +0.000 C 
ATOM     12  C   UNL     1       8.640  12.800  22.671  0.00  0.00    +0.000 C 
ATOM     13  O   UNL     1       7.513  13.694  22.731  0.00  0.00    +0.000 OA
ATOM     14  C   UNL     1       6.494  13.093  23.560  0.00  0.00    +0.000 C 
BRANCH  10  17
ATOM     15  N   UNL     1       6.872  11.453  27.598  0.00  0.00    +0.000 NA
ATOM     16  N   UNL     1       7.304  11.886  26.642  0.00  0.00    +0.000 NA
ATOM     17  N   UNL     1       7.770  12.370  25.589  0.00  0.00    +0.000 NA
ENDBRANCH  10  17
BRANCH  14  18
ATOM     18  C   UNL     1       5.837  14.184  24.402  0.00  0.00    +0.000 C 
BRANCH  18  19
ATOM     19  O   UNL     1       5.026  13.577  25.401  0.00  0.00    +0.000 OA
ATOM     20  H   UNL     1       4.839  12.689  25.040  0.00  0.00    +0.000 HD
ENDBRANCH  18  19
ENDBRANCH  14  18
ENDBRANCH   1  12
BRANCH   3  21
ATOM     21  C   UNL     1       9.391   9.606  18.949  0.00  0.00    +0.000 C 
BRANCH  21  22
ATOM     22  C   UNL     1       8.196   9.433  18.016  0.00  0.00    +0.000 C 
BRANCH  22  23
ATOM     23  C   UNL     1       7.948   7.963  17.743  0.00  0.00    +0.000 C 
ATOM     24  O   UNL     1       7.650   7.535  16.633  0.00  0.00    +0.000 OA
ATOM     25  N   UNL     1       8.129   7.165  18.847  0.00  0.00    +0.000 N 
ATOM     26  H   UNL     1       8.385   7.588  19.730  0.00  0.00    +0.000 HD
BRANCH  25  27
ATOM     27  C   UNL     1       7.938   5.738  18.783  0.00  0.00    +0.000 C 
BRANCH  27  28
ATOM     28  C   UNL     1       6.683   5.326  19.536  0.00  0.00    +0.000 C 
BRANCH  28  29
ATOM     29  C   UNL     1       5.460   5.511  18.648  0.00  0.00    +0.000 C 
BRANCH  29  30
ATOM     30  C   UNL     1       4.617   4.242  18.609  0.00  0.00    +0.000 C 
BRANCH  30  31
ATOM     31  C   UNL     1       4.166   3.945  17.184  0.00  0.00    +0.000 C 
BRANCH  31  32
ATOM     32  C   UNL     1       2.799   3.271  17.183  0.00  0.00    +0.000 C 
BRANCH  32  33
ATOM     33  C   UNL     1       1.914   3.843  18.283  0.00  0.00    +0.000 C 
BRANCH  33  34
ATOM     34  C   UNL     1       1.082   2.741  18.932  0.00  0.00    +0.000 C 
BRANCH  34  35
ATOM     35  C   UNL     1       0.685   3.127  20.355  0.00  0.00    +0.000 C 
BRANCH  35  36
ATOM     36  C   UNL     1       1.828   3.849  21.061  0.00  0.00    +0.000 C 
BRANCH  36  37
ATOM     37  N   UNL     1       2.372   3.011  22.122  0.00  0.00    +0.000 NA
ATOM     38  H   UNL     1       2.772   2.166  21.718  0.00  0.00    +0.000 HD
ATOM     39  H   UNL     1       1.614   2.708  22.732  0.00  0.00    +0.000 HD
ENDBRANCH  36  37
ENDBRANCH  35  36
ENDBRANCH  34  35
ENDBRANCH  33  34
ENDBRANCH  32  33
ENDBRANCH  31  32
ENDBRANCH  30  31
ENDBRANCH  29  30
ENDBRANCH  28  29
ENDBRANCH  27  28
ENDBRANCH  25  27
ENDBRANCH  22  23
ENDBRANCH  21  22
ENDBRANCH   3  21
TORSDOF 18
ENDMDL
MODEL 2
REMARK VINA RESULT:      -6.7      6.443     11.022
REMARK  Name = 
REMARK  18 active torsions:
REMARK  status: ('A' for Active; 'I' for Inactive)
REMARK    1  A    between atoms: N_3  and  C_4
REMARK    2  A    between atoms: C_6  and  N_7
REMARK    3  A    between atoms: C_9  and  C_10
REMARK    4  A    between atoms: C_10  and  C_11
REMARK    5  A    between atoms: C_11  and  C_12
REMARK    6  A    between atoms: N_14  and  C_15
REMARK    7  A    between atoms: C_15  and  C_16
REMARK    8  A    between atoms: C_16  and  C_17
REMARK    9  A    between atoms: C_17  and  C_18
REMARK   10  A    between atoms: C_18  and  C_19
REMARK   11  A    between atoms: C_19  and  C_20
REMARK   12  A    between atoms: C_20  and  C_21
REMARK   13  A    between atoms: C_21  and  C_22
REMARK   14  A    between atoms: C_22  and  C_23
REMARK   15  A    between atoms: C_23  and  C_24
REMARK   16  A    between atoms: C_24  and  N_25
REMARK   17  A    between atoms: C_32  and  C_33
REMARK   18  A    between atoms: C_33  and  O_34
REMARK                            x       y       z     vdW  Elec       q    Type
REMARK                         _______ _______ _______ _____ _____    ______ ____
ROOT
ATOM      1  N   UNL     1       4.131   4.249  19.033  0.00  0.00    +0.000 N 
ATOM      2  C   UNL     1       3.110   5.123  19.353  0.00  0.00    +0.000 A 
ATOM      3  C   UNL     1       2.231   4.884  20.342  0.00  0.00    +0.000 A 
ATOM      4  C   UNL     1       2.359   3.602  21.091  0.00  0.00    +0.000 A 
ATOM      5  O   UNL     1       1.702   3.362  22.095  0.00  0.00    +0.000 OA
ATOM      6  N   UNL     1       3.275   2.721  20.579  0.00  0.00    +0.000 N 
ATOM      7  C   UNL     1       4.271   3.027  19.681  0.00  0.00    +0.000 A 
ATOM      8  O   UNL     1       5.225   2.266  19.518  0.00  0.00    +0.000 OA
ATOM      9  H   UNL     1       3.408   1.862  21.083  0.00  0.00    +0.000 HD
ENDROOT
BRANCH   1  12
ATOM     10  C   UNL     1       5.787   6.170  16.402  0.00  0.00    +0.000 C 
ATOM     11  C   UNL     1       5.115   6.130  17.759  0.00  0.00    +0.000 C 
ATOM     12  C   UNL     1       5.245   4.663  18.190  0.00  0.00    +0.000 C 
ATOM     13  O   UNL     1       5.352   3.878  16.989  0.00  0.00    +0.000 OA
ATOM     14  C   UNL     1       5.464   4.775  15.862  0.00  0.00    +0.000 C 
BRANCH  10  17
ATOM     15  N   UNL     1       7.870   8.513  17.473  0.00  0.00    +0.000 NA
ATOM     16  N   UNL     1       7.567   7.500  17.062  0.00  0.00    +0.000 NA
ATOM     17  N   UNL     1       7.231   6.390  16.599  0.00  0.00    +0.000 NA
ENDBRANCH  10  17
BRANCH  14  18
ATOM     18  C   UNL     1       6.461   4.191  14.864  0.00  0.00    +0.000 C 
BRANCH  18  19
ATOM     19  O   UNL     1       6.976   5.240  14.052  0.00  0.00    +0.000 OA
ATOM     20  H   UNL     1       7.303   4.778  13.256  0.00  0.00    +0.000 HD
ENDBRANCH  18  19
ENDBRANCH  14  18
ENDBRANCH   1  12
BRANCH   3  21
ATOM     21  C   UNL     1       1.208   5.891  20.802  0.00  0.00    +0.000 C 
BRANCH  21  22
ATOM     22  C   UNL     1       1.694   7.338  20.768  0.00  0.00    +0.000 C 
BRANCH  22  23
ATOM     23  C   UNL     1       0.565   8.281  21.135  0.00  0.00    +0.000 C 
ATOM     24  O   UNL     1      -0.535   7.887  21.505  0.00  0.00    +0.000 OA
ATOM     25  N   UNL     1       0.912   9.608  21.046  0.00  0.00    +0.000 N 
ATOM     26  H   UNL     1       1.844   9.859  20.741  0.00  0.00    +0.000 HD
BRANCH  25  27
ATOM     27  C   UNL     1      -0.031  10.655  21.353  0.00  0.00    +0.000 C 
BRANCH  27  28
ATOM     28  C   UNL     1      -0.504  10.550  22.794  0.00  0.00    +0.000 C 
BRANCH  28  29
ATOM     29  C   UNL     1      -1.516  11.649  23.090  0.00  0.00    +0.000 C 
BRANCH  29  30
ATOM     30  C   UNL     1      -1.081  12.972  22.475  0.00  0.00    +0.000 C 
BRANCH  30  31
ATOM     31  C   UNL     1      -2.296  13.803  22.083  0.00  0.00    +0.000 C 
BRANCH  31  32
ATOM     32  C   UNL     1      -2.826  13.372  20.721  0.00  0.00    +0.000 C 
BRANCH  32  33
ATOM     33  C   UNL     1      -4.206  12.740  20.854  0.00  0.00    +0.000 C 
BRANCH  33  34
ATOM     34  C   UNL     1      -5.164  13.683  21.576  0.00  0.00    +0.000 C 
BRANCH  34  35
ATOM     35  C   UNL     1      -5.857  12.970  22.735  0.00  0.00    +0.000 C 
BRANCH  35  36
ATOM     36  C   UNL     1      -5.108  13.205  24.043  0.00  0.00    +0.000 C 
BRANCH  36  37
ATOM     37  N   UNL     1      -5.109  11.989  24.846  0.00  0.00    +0.000 NA
ATOM     38  H   UNL     1      -5.657  11.270  24.376  0.00  0.00    +0.000 HD
ATOM     39  H   UNL     1      -5.576  12.172  25.733  0.00  0.00    +0.000 HD
ENDBRANCH  36  37
ENDBRANCH  35  36
ENDBRANCH  34  35
ENDBRANCH  33  34
ENDBRANCH  32  33
ENDBRANCH  31  32
ENDBRANCH  30  31
ENDBRANCH  29  30
ENDBRANCH  28  29
ENDBRANCH  27  28
ENDBRANCH  25  27
ENDBRANCH  22  23
ENDBRANCH  21  22
ENDBRANCH   3  21
TORSDOF 18
ENDMDL
MODEL 3
REMARK VINA RESULT:      -6.5      5.954      7.750
REMARK  Name = 
REMARK  18 active torsions:
REMARK  status: ('A' for Active; 'I' for Inactive)
REMARK    1  A    between atoms: N_3  and  C_4
REMARK    2  A    between atoms: C_6  and  N_7
REMARK    3  A    between atoms: C_9  and  C_10
REMARK    4  A    between atoms: C_10  and  C_11
REMARK    5  A    between atoms: C_11  and  C_12
REMARK    6  A    between atoms: N_14  and  C_15
REMARK    7  A    between atoms: C_15  and  C_16
REMARK    8  A    between atoms: C_16  and  C_17
REMARK    9  A    between atoms: C_17  and  C_18
REMARK   10  A    between atoms: C_18  and  C_19
REMARK   11  A    between atoms: C_19  and  C_20
REMARK   12  A    between atoms: C_20  and  C_21
REMARK   13  A    between atoms: C_21  and  C_22
REMARK   14  A    between atoms: C_22  and  C_23
REMARK   15  A    between atoms: C_23  and  C_24
REMARK   16  A    between atoms: C_24  and  N_25
REMARK   17  A    between atoms: C_32  and  C_33
REMARK   18  A    between atoms: C_33  and  O_34
REMARK                            x       y       z     vdW  Elec       q    Type
REMARK                         _______ _______ _______ _____ _____    ______ ____
ROOT
ATOM      1  N   UNL     1       1.248   9.566  19.404  0.00  0.00    +0.000 N 
ATOM      2  C   UNL     1       1.256   8.472  20.249  0.00  0.00    +0.000 A 
ATOM      3  C   UNL     1       1.842   7.307  19.924  0.00  0.00    +0.000 A 
ATOM      4  C   UNL     1       2.474   7.197  18.580  0.00  0.00    +0.000 A 
ATOM      5  O   UNL     1       3.153   6.233  18.251  0.00  0.00    +0.000 OA
ATOM      6  N   UNL     1       2.249   8.261  17.745  0.00  0.00    +0.000 N 
ATOM      7  C   UNL     1       1.795   9.501  18.127  0.00  0.00    +0.000 A 
ATOM      8  O   UNL     1       1.918  10.472  17.381  0.00  0.00    +0.000 OA
ATOM      9  H   UNL     1       2.692   8.231  16.843  0.00  0.00    +0.000 HD
ENDROOT
BRANCH   1  12
ATOM     10  C   UNL     1      -0.268  11.992  21.678  0.00  0.00    +0.000 C 
ATOM     11  C   UNL     1       0.776  10.925  21.418  0.00  0.00    +0.000 C 
ATOM     12  C   UNL     1       0.897  10.894  19.889  0.00  0.00    +0.000 C 
ATOM     13  O   UNL     1      -0.355  11.365  19.356  0.00  0.00    +0.000 OA
ATOM     14  C   UNL     1      -1.170  11.838  20.451  0.00  0.00    +0.000 C 
BRANCH  10  17
ATOM     15  N   UNL     1      -0.366  14.813  23.412  0.00  0.00    +0.000 NA
ATOM     16  N   UNL     1       0.005  14.093  22.617  0.00  0.00    +0.000 NA
ATOM     17  N   UNL     1       0.403  13.303  21.736  0.00  0.00    +0.000 NA
ENDBRANCH  10  17
BRANCH  14  18
ATOM     18  C   UNL     1      -1.918  13.092  20.003  0.00  0.00    +0.000 C 
BRANCH  18  19
ATOM     19  O   UNL     1      -2.405  13.778  21.149  0.00  0.00    +0.000 OA
ATOM     20  H   UNL     1      -2.074  13.246  21.897  0.00  0.00    +0.000 HD
ENDBRANCH  18  19
ENDBRANCH  14  18
ENDBRANCH   1  12
BRANCH   3  21
ATOM     21  C   UNL     1       1.992   6.159  20.889  0.00  0.00    +0.000 C 
BRANCH  21  22
ATOM     22  C   UNL     1       1.112   4.952  20.571  0.00  0.00    +0.000 C 
BRANCH  22  23
ATOM     23  C   UNL     1       1.918   3.672  20.666  0.00  0.00    +0.000 C 
ATOM     24  O   UNL     1       1.730   2.833  21.540  0.00  0.00    +0.000 OA
ATOM     25  N   UNL     1       2.845   3.535  19.661  0.00  0.00    +0.000 N 
ATOM     26  H   UNL     1       2.939   4.266  18.968  0.00  0.00    +0.000 HD
BRANCH  25  27
ATOM     27  C   UNL     1       3.708   2.382  19.585  0.00  0.00    +0.000 C 
BRANCH  27  28
ATOM     28  C   UNL     1       3.494   1.631  18.281  0.00  0.00    +0.000 C 
BRANCH  28  29
ATOM     29  C   UNL     1       3.399   2.616  17.123  0.00  0.00    +0.000 C 
BRANCH  29  30
ATOM     30  C   UNL     1       4.752   3.251  16.833  0.00  0.00    +0.000 C 
BRANCH  30  31
ATOM     31  C   UNL     1       4.629   4.287  15.723  0.00  0.00    +0.000 C 
BRANCH  31  32
ATOM     32  C   UNL     1       5.499   5.502  16.022  0.00  0.00    +0.000 C 
BRANCH  32  33
ATOM     33  C   UNL     1       6.975   5.163  15.859  0.00  0.00    +0.000 C 
BRANCH  33  34
ATOM     34  C   UNL     1       7.576   4.715  17.187  0.00  0.00    +0.000 C 
BRANCH  34  35
ATOM     35  C   UNL     1       7.685   5.889  18.157  0.00  0.00    +0.000 C 
BRANCH  35  36
ATOM     36  C   UNL     1       7.036   5.551  19.495  0.00  0.00    +0.000 C 
BRANCH  36  37
ATOM     37  N   UNL     1       8.058   5.390  20.522  0.00  0.00    +0.000 NA
ATOM     38  H   UNL     1       8.418   6.304  20.791  0.00  0.00    +0.000 HD
ATOM     39  H   UNL     1       8.845   4.874  20.133  0.00  0.00    +0.000 HD
ENDBRANCH  36  37
ENDBRANCH  35  36
ENDBRANCH  34  35
ENDBRANCH  33  34
ENDBRANCH  32  33
ENDBRANCH  31  32
ENDBRANCH  30  31
ENDBRANCH  29  30
ENDBRANCH  28  29
ENDBRANCH  27  28
ENDBRANCH  25  27
ENDBRANCH  22  23
ENDBRANCH  21  22
ENDBRANCH   3  21
TORSDOF 18
ENDMDL
MODEL 4
REMARK VINA RESULT:      -6.5      6.771     10.835
REMARK  Name = 
REMARK  18 active torsions:
REMARK  status: ('A' for Active; 'I' for Inactive)
REMARK    1  A    between atoms: N_3  and  C_4
REMARK    2  A    between atoms: C_6  and  N_7
REMARK    3  A    between atoms: C_9  and  C_10
REMARK    4  A    between atoms: C_10  and  C_11
REMARK    5  A    between atoms: C_11  and  C_12
REMARK    6  A    between atoms: N_14  and  C_15
REMARK    7  A    between atoms: C_15  and  C_16
REMARK    8  A    between atoms: C_16  and  C_17
REMARK    9  A    between atoms: C_17  and  C_18
REMARK   10  A    between atoms: C_18  and  C_19
REMARK   11  A    between atoms: C_19  and  C_20
REMARK   12  A    between atoms: C_20  and  C_21
REMARK   13  A    between atoms: C_21  and  C_22
REMARK   14  A    between atoms: C_22  and  C_23
REMARK   15  A    between atoms: C_23  and  C_24
REMARK   16  A    between atoms: C_24  and  N_25
REMARK   17  A    between atoms: C_32  and  C_33
REMARK   18  A    between atoms: C_33  and  O_34
REMARK                            x       y       z     vdW  Elec       q    Type
REMARK                         _______ _______ _______ _____ _____    ______ ____
ROOT
ATOM      1  N   UNL     1       2.664   6.449  19.243  0.00  0.00    +0.000 N 
ATOM      2  C   UNL     1       1.852   7.272  20.001  0.00  0.00    +0.000 A 
ATOM      3  C   UNL     1       1.532   8.522  19.627  0.00  0.00    +0.000 A 
ATOM      4  C   UNL     1       2.114   9.038  18.356  0.00  0.00    +0.000 A 
ATOM      5  O   UNL     1       1.769  10.103  17.861  0.00  0.00    +0.000 OA
ATOM      6  N   UNL     1       3.053   8.224  17.775  0.00  0.00    +0.000 N 
ATOM      7  C   UNL     1       3.256   6.896  18.068  0.00  0.00    +0.000 A 
ATOM      8  O   UNL     1       3.889   6.174  17.298  0.00  0.00    +0.000 OA
ATOM      9  H   UNL     1       3.437   8.530  16.899  0.00  0.00    +0.000 HD
ENDROOT
BRANCH   1  12
ATOM     10  C   UNL     1       1.481   2.991  19.216  0.00  0.00    +0.000 C 
ATOM     11  C   UNL     1       1.954   4.212  18.454  0.00  0.00    +0.000 C 
ATOM     12  C   UNL     1       2.738   5.016  19.499  0.00  0.00    +0.000 C 
ATOM     13  O   UNL     1       2.214   4.657  20.790  0.00  0.00    +0.000 OA
ATOM     14  C   UNL     1       1.280   3.568  20.620  0.00  0.00    +0.000 C 
BRANCH  10  17
ATOM     15  N   UNL     1       4.756   2.705  19.631  0.00  0.00    +0.000 NA
ATOM     16  N   UNL     1       3.700   2.351  19.414  0.00  0.00    +0.000 NA
ATOM     17  N   UNL     1       2.539   1.966  19.164  0.00  0.00    +0.000 NA
ENDBRANCH  10  17
BRANCH  14  18
ATOM     18  C   UNL     1       1.444   2.590  21.780  0.00  0.00    +0.000 C 
BRANCH  18  19
ATOM     19  O   UNL     1       2.827   2.450  22.079  0.00  0.00    +0.000 OA
ATOM     20  H   UNL     1       3.254   3.140  21.535  0.00  0.00    +0.000 HD
ENDBRANCH  18  19
ENDBRANCH  14  18
ENDBRANCH   1  12
BRANCH   3  21
ATOM     21  C   UNL     1       0.531   9.376  20.362  0.00  0.00    +0.000 C 
BRANCH  21  22
ATOM     22  C   UNL     1      -0.002   8.751  21.648  0.00  0.00    +0.000 C 
BRANCH  22  23
ATOM     23  C   UNL     1      -0.210   9.817  22.706  0.00  0.00    +0.000 C 
ATOM     24  O   UNL     1       0.301   9.757  23.818  0.00  0.00    +0.000 OA
ATOM     25  N   UNL     1      -0.991  10.863  22.278  0.00  0.00    +0.000 N 
ATOM     26  H   UNL     1      -1.373  10.850  21.341  0.00  0.00    +0.000 HD
BRANCH  25  27
ATOM     27  C   UNL     1      -1.303  11.973  23.145  0.00  0.00    +0.000 C 
BRANCH  27  28
ATOM     28  C   UNL     1      -2.797  12.043  23.417  0.00  0.00    +0.000 C 
BRANCH  28  29
ATOM     29  C   UNL     1      -3.231  13.495  23.570  0.00  0.00    +0.000 C 
BRANCH  29  30
ATOM     30  C   UNL     1      -4.370  13.828  22.616  0.00  0.00    +0.000 C 
BRANCH  30  31
ATOM     31  C   UNL     1      -4.624  12.668  21.662  0.00  0.00    +0.000 C 
BRANCH  31  32
ATOM     32  C   UNL     1      -4.381  13.096  20.219  0.00  0.00    +0.000 C 
BRANCH  32  33
ATOM     33  C   UNL     1      -2.907  12.960  19.857  0.00  0.00    +0.000 C 
BRANCH  33  34
ATOM     34  C   UNL     1      -2.616  11.572  19.295  0.00  0.00    +0.000 C 
BRANCH  34  35
ATOM     35  C   UNL     1      -3.274  11.389  17.930  0.00  0.00    +0.000 C 
BRANCH  35  36
ATOM     36  C   UNL     1      -2.223  11.206  16.840  0.00  0.00    +0.000 C 
BRANCH  36  37
ATOM     37  N   UNL     1      -1.259  10.188  17.240  0.00  0.00    +0.000 NA
ATOM     38  H   UNL     1      -1.670   9.263  17.123  0.00  0.00    +0.000 HD
ATOM     39  H   UNL     1      -1.057  10.289  18.233  0.00  0.00    +0.000 HD
ENDBRANCH  36  37
ENDBRANCH  35  36
ENDBRANCH  34  35
ENDBRANCH  33  34
ENDBRANCH  32  33
ENDBRANCH  31  32
ENDBRANCH  30  31
ENDBRANCH  29  30
ENDBRANCH  28  29
ENDBRANCH  27  28
ENDBRANCH  25  27
ENDBRANCH  22  23
ENDBRANCH  21  22
ENDBRANCH   3  21
TORSDOF 18
ENDMDL
MODEL 5
REMARK VINA RESULT:      -6.5      6.468     10.826
REMARK  Name = 
REMARK  18 active torsions:
REMARK  status: ('A' for Active; 'I' for Inactive)
REMARK    1  A    between atoms: N_3  and  C_4
REMARK    2  A    between atoms: C_6  and  N_7
REMARK    3  A    between atoms: C_9  and  C_10
REMARK    4  A    between atoms: C_10  and  C_11
REMARK    5  A    between atoms: C_11  and  C_12
REMARK    6  A    between atoms: N_14  and  C_15
REMARK    7  A    between atoms: C_15  and  C_16
REMARK    8  A    between atoms: C_16  and  C_17
REMARK    9  A    between atoms: C_17  and  C_18
REMARK   10  A    between atoms: C_18  and  C_19
REMARK   11  A    between atoms: C_19  and  C_20
REMARK   12  A    between atoms: C_20  and  C_21
REMARK   13  A    between atoms: C_21  and  C_22
REMARK   14  A    between atoms: C_22  and  C_23
REMARK   15  A    between atoms: C_23  and  C_24
REMARK   16  A    between atoms: C_24  and  N_25
REMARK   17  A    between atoms: C_32  and  C_33
REMARK   18  A    between atoms: C_33  and  O_34
REMARK                            x       y       z     vdW  Elec       q    Type
REMARK                         _______ _______ _______ _____ _____    ______ ____
ROOT
ATOM      1  N   UNL     1       3.866   4.346  18.673  0.00  0.00    +0.000 N 
ATOM      2  C   UNL     1       3.012   5.324  19.147  0.00  0.00    +0.000 A 
ATOM      3  C   UNL     1       2.086   5.085  20.092  0.00  0.00    +0.000 A 
ATOM      4  C   UNL     1       1.968   3.695  20.613  0.00  0.00    +0.000 A 
ATOM      5  O   UNL     1       1.259   3.412  21.571  0.00  0.00    +0.000 OA
ATOM      6  N   UNL     1       2.720   2.760  19.950  0.00  0.00    +0.000 N 
ATOM      7  C   UNL     1       3.771   3.028  19.104  0.00  0.00    +0.000 A 
ATOM      8  O   UNL     1       4.575   2.146  18.804  0.00  0.00    +0.000 OA
ATOM      9  H   UNL     1       2.687   1.820  20.301  0.00  0.00    +0.000 HD
ENDROOT
BRANCH   1  12
ATOM     10  C   UNL     1       5.794   6.161  16.154  0.00  0.00    +0.000 C 
ATOM     11  C   UNL     1       5.043   6.162  17.471  0.00  0.00    +0.000 C 
ATOM     12  C   UNL     1       5.051   4.688  17.898  0.00  0.00    +0.000 C 
ATOM     13  O   UNL     1       5.176   3.901  16.700  0.00  0.00    +0.000 OA
ATOM     14  C   UNL     1       5.412   4.792  15.587  0.00  0.00    +0.000 C 
BRANCH  10  17
ATOM     15  N   UNL     1       7.957   8.344  17.392  0.00  0.00    +0.000 NA
ATOM     16  N   UNL     1       7.614   7.361  16.942  0.00  0.00    +0.000 NA
ATOM     17  N   UNL     1       7.236   6.284  16.435  0.00  0.00    +0.000 NA
ENDBRANCH  10  17
BRANCH  14  18
ATOM     18  C   UNL     1       6.424   4.146  14.645  0.00  0.00    +0.000 C 
BRANCH  18  19
ATOM     19  O   UNL     1       7.066   5.162  13.884  0.00  0.00    +0.000 OA
ATOM     20  H   UNL     1       7.923   5.286  14.338  0.00  0.00    +0.000 HD
ENDBRANCH  18  19
ENDBRANCH  14  18
ENDBRANCH   1  12
BRANCH   3  21
ATOM     21  C   UNL     1       1.253   6.169  20.728  0.00  0.00    +0.000 C 
BRANCH  21  22
ATOM     22  C   UNL     1       1.986   7.495  20.915  0.00  0.00    +0.000 C 
BRANCH  22  23
ATOM     23  C   UNL     1       0.992   8.626  21.091  0.00  0.00    +0.000 C 
ATOM     24  O   UNL     1       0.656   9.049  22.191  0.00  0.00    +0.000 OA
ATOM     25  N   UNL     1       0.543   9.147  19.901  0.00  0.00    +0.000 N 
ATOM     26  H   UNL     1       0.872   8.753  19.029  0.00  0.00    +0.000 HD
BRANCH  25  27
ATOM     27  C   UNL     1      -0.409  10.229  19.865  0.00  0.00    +0.000 C 
BRANCH  27  28
ATOM     28  C   UNL     1      -1.201  10.210  18.568  0.00  0.00    +0.000 C 
BRANCH  28  29
ATOM     29  C   UNL     1      -1.466  11.634  18.099  0.00  0.00    +0.000 C 
BRANCH  29  30
ATOM     30  C   UNL     1      -2.288  12.403  19.125  0.00  0.00    +0.000 C 
BRANCH  30  31
ATOM     31  C   UNL     1      -3.738  11.934  19.106  0.00  0.00    +0.000 C 
BRANCH  31  32
ATOM     32  C   UNL     1      -4.159  11.542  17.695  0.00  0.00    +0.000 C 
BRANCH  32  33
ATOM     33  C   UNL     1      -5.655  11.755  17.499  0.00  0.00    +0.000 C 
BRANCH  33  34
ATOM     34  C   UNL     1      -6.397  11.614  18.824  0.00  0.00    +0.000 C 
BRANCH  34  35
ATOM     35  C   UNL     1      -6.928  10.193  19.001  0.00  0.00    +0.000 C 
BRANCH  35  36
ATOM     36  C   UNL     1      -7.521  10.004  20.393  0.00  0.00    +0.000 C 
BRANCH  36  37
ATOM     37  N   UNL     1      -7.447   8.602  20.783  0.00  0.00    +0.000 NA
ATOM     38  H   UNL     1      -6.647   8.460  21.398  0.00  0.00    +0.000 HD
ATOM     39  H   UNL     1      -7.279   8.031  19.956  0.00  0.00    +0.000 HD
ENDBRANCH  36  37
ENDBRANCH  35  36
ENDBRANCH  34  35
ENDBRANCH  33  34
ENDBRANCH  32  33
ENDBRANCH  31  32
ENDBRANCH  30  31
ENDBRANCH  29  30
ENDBRANCH  28  29
ENDBRANCH  27  28
ENDBRANCH  25  27
ENDBRANCH  22  23
ENDBRANCH  21  22
ENDBRANCH   3  21
TORSDOF 18
ENDMDL
MODEL 6
REMARK VINA RESULT:      -6.4      5.540     10.833
REMARK  Name = 
REMARK  18 active torsions:
REMARK  status: ('A' for Active; 'I' for Inactive)
REMARK    1  A    between atoms: N_3  and  C_4
REMARK    2  A    between atoms: C_6  and  N_7
REMARK    3  A    between atoms: C_9  and  C_10
REMARK    4  A    between atoms: C_10  and  C_11
REMARK    5  A    between atoms: C_11  and  C_12
REMARK    6  A    between atoms: N_14  and  C_15
REMARK    7  A    between atoms: C_15  and  C_16
REMARK    8  A    between atoms: C_16  and  C_17
REMARK    9  A    between atoms: C_17  and  C_18
REMARK   10  A    between atoms: C_18  and  C_19
REMARK   11  A    between atoms: C_19  and  C_20
REMARK   12  A    between atoms: C_20  and  C_21
REMARK   13  A    between atoms: C_21  and  C_22
REMARK   14  A    between atoms: C_22  and  C_23
REMARK   15  A    between atoms: C_23  and  C_24
REMARK   16  A    between atoms: C_24  and  N_25
REMARK   17  A    between atoms: C_32  and  C_33
REMARK   18  A    between atoms: C_33  and  O_34
REMARK                            x       y       z     vdW  Elec       q    Type
REMARK                         _______ _______ _______ _____ _____    ______ ____
ROOT
ATOM      1  N   UNL     1       4.150   4.371  18.986  0.00  0.00    +0.000 N 
ATOM      2  C   UNL     1       3.168   5.283  19.326  0.00  0.00    +0.000 A 
ATOM      3  C   UNL     1       2.283   5.064  20.315  0.00  0.00    +0.000 A 
ATOM      4  C   UNL     1       2.359   3.766  21.040  0.00  0.00    +0.000 A 
ATOM      5  O   UNL     1       1.696   3.535  22.044  0.00  0.00    +0.000 OA
ATOM      6  N   UNL     1       3.235   2.854  20.509  0.00  0.00    +0.000 N 
ATOM      7  C   UNL     1       4.239   3.133  19.612  0.00  0.00    +0.000 A 
ATOM      8  O   UNL     1       5.158   2.335  19.431  0.00  0.00    +0.000 OA
ATOM      9  H   UNL     1       3.333   1.982  20.998  0.00  0.00    +0.000 HD
ENDROOT
BRANCH   1  12
ATOM     10  C   UNL     1       5.852   6.203  16.321  0.00  0.00    +0.000 C 
ATOM     11  C   UNL     1       5.163   6.207  17.671  0.00  0.00    +0.000 C 
ATOM     12  C   UNL     1       5.277   4.753  18.145  0.00  0.00    +0.000 C 
ATOM     13  O   UNL     1       5.392   3.932  16.969  0.00  0.00    +0.000 OA
ATOM     14  C   UNL     1       5.525   4.795  15.818  0.00  0.00    +0.000 C 
BRANCH  10  17
ATOM     15  N   UNL     1       7.928   8.499  17.500  0.00  0.00    +0.000 NA
ATOM     16  N   UNL     1       7.628   7.505  17.042  0.00  0.00    +0.000 NA
ATOM     17  N   UNL     1       7.295   6.417  16.529  0.00  0.00    +0.000 NA
ENDBRANCH  10  17
BRANCH  14  18
ATOM     18  C   UNL     1       6.529   4.175  14.849  0.00  0.00    +0.000 C 
BRANCH  18  19
ATOM     19  O   UNL     1       7.069   5.197  14.021  0.00  0.00    +0.000 OA
ATOM     20  H   UNL     1       7.696   5.663  14.607  0.00  0.00    +0.000 HD
ENDBRANCH  18  19
ENDBRANCH  14  18
ENDBRANCH   1  12
BRANCH   3  21
ATOM     21  C   UNL     1       1.307   6.106  20.797  0.00  0.00    +0.000 C 
BRANCH  21  22
ATOM     22  C   UNL     1       1.893   7.511  20.909  0.00  0.00    +0.000 C 
BRANCH  22  23
ATOM     23  C   UNL     1       0.784   8.535  21.053  0.00  0.00    +0.000 C 
ATOM     24  O   UNL     1       0.130   8.664  22.082  0.00  0.00    +0.000 OA
ATOM     25  N   UNL     1       0.618   9.319  19.937  0.00  0.00    +0.000 N 
ATOM     26  H   UNL     1       1.202   9.161  19.126  0.00  0.00    +0.000 HD
BRANCH  25  27
ATOM     27  C   UNL     1      -0.391  10.348  19.884  0.00  0.00    +0.000 C 
BRANCH  27  28
ATOM     28  C   UNL     1      -0.422  11.005  18.513  0.00  0.00    +0.000 C 
BRANCH  28  29
ATOM     29  C   UNL     1      -0.152  12.497  18.645  0.00  0.00    +0.000 C 
BRANCH  29  30
ATOM     30  C   UNL     1       0.475  12.822  19.994  0.00  0.00    +0.000 C 
BRANCH  30  31
ATOM     31  C   UNL     1       1.731  13.666  19.810  0.00  0.00    +0.000 C 
BRANCH  31  32
ATOM     32  C   UNL     1       2.333  13.440  18.429  0.00  0.00    +0.000 C 
BRANCH  32  33
ATOM     33  C   UNL     1       3.276  14.578  18.059  0.00  0.00    +0.000 C 
BRANCH  33  34
ATOM     34  C   UNL     1       3.993  15.108  19.296  0.00  0.00    +0.000 C 
BRANCH  34  35
ATOM     35  C   UNL     1       5.506  14.987  19.141  0.00  0.00    +0.000 C 
BRANCH  35  36
ATOM     36  C   UNL     1       5.881  14.669  17.698  0.00  0.00    +0.000 C 
BRANCH  36  37
ATOM     37  N   UNL     1       7.324  14.772  17.519  0.00  0.00    +0.000 NA
ATOM     38  H   UNL     1       7.779  14.800  18.430  0.00  0.00    +0.000 HD
ATOM     39  H   UNL     1       7.543  15.656  17.062  0.00  0.00    +0.000 HD
ENDBRANCH  36  37
ENDBRANCH  35  36
ENDBRANCH  34  35
ENDBRANCH  33  34
ENDBRANCH  32  33
ENDBRANCH  31  32
ENDBRANCH  30  31
ENDBRANCH  29  30
ENDBRANCH  28  29
ENDBRANCH  27  28
ENDBRANCH  25  27
ENDBRANCH  22  23
ENDBRANCH  21  22
ENDBRANCH   3  21
TORSDOF 18
ENDMDL
MODEL 7
REMARK VINA RESULT:      -6.3      6.491     11.183
REMARK  Name = 
REMARK  18 active torsions:
REMARK  status: ('A' for Active; 'I' for Inactive)
REMARK    1  A    between atoms: N_3  and  C_4
REMARK    2  A    between atoms: C_6  and  N_7
REMARK    3  A    between atoms: C_9  and  C_10
REMARK    4  A    between atoms: C_10  and  C_11
REMARK    5  A    between atoms: C_11  and  C_12
REMARK    6  A    between atoms: N_14  and  C_15
REMARK    7  A    between atoms: C_15  and  C_16
REMARK    8  A    between atoms: C_16  and  C_17
REMARK    9  A    between atoms: C_17  and  C_18
REMARK   10  A    between atoms: C_18  and  C_19
REMARK   11  A    between atoms: C_19  and  C_20
REMARK   12  A    between atoms: C_20  and  C_21
REMARK   13  A    between atoms: C_21  and  C_22
REMARK   14  A    between atoms: C_22  and  C_23
REMARK   15  A    between atoms: C_23  and  C_24
REMARK   16  A    between atoms: C_24  and  N_25
REMARK   17  A    between atoms: C_32  and  C_33
REMARK   18  A    between atoms: C_33  and  O_34
REMARK                            x       y       z     vdW  Elec       q    Type
REMARK                         _______ _______ _______ _____ _____    ______ ____
ROOT
ATOM      1  N   UNL     1       3.695   4.431  18.328  0.00  0.00    +0.000 N 
ATOM      2  C   UNL     1       3.035   5.468  18.960  0.00  0.00    +0.000 A 
ATOM      3  C   UNL     1       2.102   5.266  19.907  0.00  0.00    +0.000 A 
ATOM      4  C   UNL     1       1.755   3.860  20.252  0.00  0.00    +0.000 A 
ATOM      5  O   UNL     1       1.029   3.576  21.196  0.00  0.00    +0.000 OA
ATOM      6  N   UNL     1       2.318   2.907  19.442  0.00  0.00    +0.000 N 
ATOM      7  C   UNL     1       3.381   3.103  18.591  0.00  0.00    +0.000 A 
ATOM      8  O   UNL     1       4.013   2.145  18.146  0.00  0.00    +0.000 OA
ATOM      9  H   UNL     1       2.130   1.948  19.672  0.00  0.00    +0.000 HD
ENDROOT
BRANCH   1  12
ATOM     10  C   UNL     1       5.745   6.005  15.743  0.00  0.00    +0.000 C 
ATOM     11  C   UNL     1       4.983   6.114  17.049  0.00  0.00    +0.000 C 
ATOM     12  C   UNL     1       4.905   4.667  17.551  0.00  0.00    +0.000 C 
ATOM     13  O   UNL     1       4.996   3.813  16.396  0.00  0.00    +0.000 OA
ATOM     14  C   UNL     1       5.292   4.631  15.242  0.00  0.00    +0.000 C 
BRANCH  10  17
ATOM     15  N   UNL     1       7.949   7.969  17.246  0.00  0.00    +0.000 NA
ATOM     16  N   UNL     1       7.587   7.058  16.674  0.00  0.00    +0.000 NA
ATOM     17  N   UNL     1       7.188   6.062  16.035  0.00  0.00    +0.000 NA
ENDBRANCH  10  17
BRANCH  14  18
ATOM     18  C   UNL     1       6.276   3.883  14.346  0.00  0.00    +0.000 C 
BRANCH  18  19
ATOM     19  O   UNL     1       5.691   3.699  13.063  0.00  0.00    +0.000 OA
ATOM     20  H   UNL     1       6.249   3.013  12.649  0.00  0.00    +0.000 HD
ENDBRANCH  18  19
ENDBRANCH  14  18
ENDBRANCH   1  12
BRANCH   3  21
ATOM     21  C   UNL     1       1.485   6.382  20.711  0.00  0.00    +0.000 C 
BRANCH  21  22
ATOM     22  C   UNL     1       1.591   7.758  20.060  0.00  0.00    +0.000 C 
BRANCH  22  23
ATOM     23  C   UNL     1       1.268   8.844  21.067  0.00  0.00    +0.000 C 
ATOM     24  O   UNL     1       1.334   8.666  22.279  0.00  0.00    +0.000 OA
ATOM     25  N   UNL     1       0.935  10.044  20.488  0.00  0.00    +0.000 N 
ATOM     26  H   UNL     1       0.911  10.120  19.479  0.00  0.00    +0.000 HD
BRANCH  25  27
ATOM     27  C   UNL     1       0.594  11.196  21.285  0.00  0.00    +0.000 C 
BRANCH  27  28
ATOM     28  C   UNL     1      -0.599  11.929  20.693  0.00  0.00    +0.000 C 
BRANCH  28  29
ATOM     29  C   UNL     1      -1.189  11.122  19.545  0.00  0.00    +0.000 C 
BRANCH  29  30
ATOM     30  C   UNL     1      -2.438  11.794  18.989  0.00  0.00    +0.000 C 
BRANCH  30  31
ATOM     31  C   UNL     1      -2.984  12.810  19.984  0.00  0.00    +0.000 C 
BRANCH  31  32
ATOM     32  C   UNL     1      -4.460  12.550  20.262  0.00  0.00    +0.000 C 
BRANCH  32  33
ATOM     33  C   UNL     1      -4.805  12.887  21.707  0.00  0.00    +0.000 C 
BRANCH  33  34
ATOM     34  C   UNL     1      -3.640  12.548  22.632  0.00  0.00    +0.000 C 
BRANCH  34  35
ATOM     35  C   UNL     1      -4.029  12.753  24.093  0.00  0.00    +0.000 C 
BRANCH  35  36
ATOM     36  C   UNL     1      -3.465  14.066  24.627  0.00  0.00    +0.000 C 
BRANCH  36  37
ATOM     37  N   UNL     1      -4.490  15.102  24.597  0.00  0.00    +0.000 NA
ATOM     38  H   UNL     1      -4.234  15.816  23.917  0.00  0.00    +0.000 HD
ATOM     39  H   UNL     1      -4.524  15.566  25.503  0.00  0.00    +0.000 HD
ENDBRANCH  36  37
ENDBRANCH  35  36
ENDBRANCH  34  35
ENDBRANCH  33  34
ENDBRANCH  32  33
ENDBRANCH  31  32
ENDBRANCH  30  31
ENDBRANCH  29  30
ENDBRANCH  28  29
ENDBRANCH  27  28
ENDBRANCH  25  27
ENDBRANCH  22  23
ENDBRANCH  21  22
ENDBRANCH   3  21
TORSDOF 18
ENDMDL
MODEL 8
REMARK VINA RESULT:      -6.2      6.549     11.061
REMARK  Name = 
REMARK  18 active torsions:
REMARK  status: ('A' for Active; 'I' for Inactive)
REMARK    1  A    between atoms: N_3  and  C_4
REMARK    2  A    between atoms: C_6  and  N_7
REMARK    3  A    between atoms: C_9  and  C_10
REMARK    4  A    between atoms: C_10  and  C_11
REMARK    5  A    between atoms: C_11  and  C_12
REMARK    6  A    between atoms: N_14  and  C_15
REMARK    7  A    between atoms: C_15  and  C_16
REMARK    8  A    between atoms: C_16  and  C_17
REMARK    9  A    between atoms: C_17  and  C_18
REMARK   10  A    between atoms: C_18  and  C_19
REMARK   11  A    between atoms: C_19  and  C_20
REMARK   12  A    between atoms: C_20  and  C_21
REMARK   13  A    between atoms: C_21  and  C_22
REMARK   14  A    between atoms: C_22  and  C_23
REMARK   15  A    between atoms: C_23  and  C_24
REMARK   16  A    between atoms: C_24  and  N_25
REMARK   17  A    between atoms: C_32  and  C_33
REMARK   18  A    between atoms: C_33  and  O_34
REMARK                            x       y       z     vdW  Elec       q    Type
REMARK                         _______ _______ _______ _____ _____    ______ ____
ROOT
ATOM      1  N   UNL     1       3.490   3.704  18.280  0.00  0.00    +0.000 N 
ATOM      2  C   UNL     1       2.799   4.748  18.866  0.00  0.00    +0.000 A 
ATOM      3  C   UNL     1       1.666   4.568  19.565  0.00  0.00    +0.000 A 
ATOM      4  C   UNL     1       1.128   3.183  19.673  0.00  0.00    +0.000 A 
ATOM      5  O   UNL     1       0.188   2.899  20.404  0.00  0.00    +0.000 OA
ATOM      6  N   UNL     1       1.772   2.249  18.903  0.00  0.00    +0.000 N 
ATOM      7  C   UNL     1       3.010   2.401  18.324  0.00  0.00    +0.000 A 
ATOM      8  O   UNL     1       3.639   1.422  17.922  0.00  0.00    +0.000 OA
ATOM      9  H   UNL     1       1.454   1.300  18.981  0.00  0.00    +0.000 HD
ENDROOT
BRANCH   1  12
ATOM     10  C   UNL     1       6.384   5.558  17.036  0.00  0.00    +0.000 C 
ATOM     11  C   UNL     1       5.412   5.260  18.159  0.00  0.00    +0.000 C 
ATOM     12  C   UNL     1       4.858   3.873  17.809  0.00  0.00    +0.000 C 
ATOM     13  O   UNL     1       4.976   3.720  16.382  0.00  0.00    +0.000 OA
ATOM     14  C   UNL     1       5.714   4.846  15.858  0.00  0.00    +0.000 C 
BRANCH  10  17
ATOM     15  N   UNL     1       8.362   5.169  19.664  0.00  0.00    +0.000 NA
ATOM     16  N   UNL     1       8.043   5.075  18.579  0.00  0.00    +0.000 NA
ATOM     17  N   UNL     1       7.695   4.983  17.384  0.00  0.00    +0.000 NA
ENDBRANCH  10  17
BRANCH  14  18
ATOM     18  C   UNL     1       6.642   4.355  14.751  0.00  0.00    +0.000 C 
BRANCH  18  19
ATOM     19  O   UNL     1       7.615   5.356  14.480  0.00  0.00    +0.000 OA
ATOM     20  H   UNL     1       8.088   5.456  15.328  0.00  0.00    +0.000 HD
ENDBRANCH  18  19
ENDBRANCH  14  18
ENDBRANCH   1  12
BRANCH   3  21
ATOM     21  C   UNL     1       0.985   5.670  20.336  0.00  0.00    +0.000 C 
BRANCH  21  22
ATOM     22  C   UNL     1       1.926   6.765  20.829  0.00  0.00    +0.000 C 
BRANCH  22  23
ATOM     23  C   UNL     1       1.698   8.046  20.051  0.00  0.00    +0.000 C 
ATOM     24  O   UNL     1       2.121   8.215  18.912  0.00  0.00    +0.000 OA
ATOM     25  N   UNL     1       0.943   8.970  20.731  0.00  0.00    +0.000 N 
ATOM     26  H   UNL     1       0.619   8.758  21.666  0.00  0.00    +0.000 HD
BRANCH  25  27
ATOM     27  C   UNL     1       0.621  10.252  20.153  0.00  0.00    +0.000 C 
BRANCH  27  28
ATOM     28  C   UNL     1      -0.803  10.263  19.622  0.00  0.00    +0.000 C 
BRANCH  28  29
ATOM     29  C   UNL     1      -1.189  11.673  19.197  0.00  0.00    +0.000 C 
BRANCH  29  30
ATOM     30  C   UNL     1      -2.697  11.874  19.270  0.00  0.00    +0.000 C 
BRANCH  30  31
ATOM     31  C   UNL     1      -3.038  13.014  20.221  0.00  0.00    +0.000 C 
BRANCH  31  32
ATOM     32  C   UNL     1      -3.862  12.506  21.397  0.00  0.00    +0.000 C 
BRANCH  32  33
ATOM     33  C   UNL     1      -5.350  12.724  21.149  0.00  0.00    +0.000 C 
BRANCH  33  34
ATOM     34  C   UNL     1      -5.792  12.020  19.870  0.00  0.00    +0.000 C 
BRANCH  34  35
ATOM     35  C   UNL     1      -7.254  11.591  19.963  0.00  0.00    +0.000 C 
BRANCH  35  36
ATOM     36  C   UNL     1      -7.364  10.124  20.368  0.00  0.00    +0.000 C 
BRANCH  36  37
ATOM     37  N   UNL     1      -7.520   9.288  19.185  0.00  0.00    +0.000 NA
ATOM     38  H   UNL     1      -6.973   9.677  18.418  0.00  0.00    +0.000 HD
ATOM     39  H   UNL     1      -8.493   9.310  18.884  0.00  0.00    +0.000 HD
ENDBRANCH  36  37
ENDBRANCH  35  36
ENDBRANCH  34  35
ENDBRANCH  33  34
ENDBRANCH  32  33
ENDBRANCH  31  32
ENDBRANCH  30  31
ENDBRANCH  29  30
ENDBRANCH  28  29
ENDBRANCH  27  28
ENDBRANCH  25  27
ENDBRANCH  22  23
ENDBRANCH  21  22
ENDBRANCH   3  21
TORSDOF 18
ENDMDL
MODEL 9
REMARK VINA RESULT:      -6.2      7.411      9.892
REMARK  Name = 
REMARK  18 active torsions:
REMARK  status: ('A' for Active; 'I' for Inactive)
REMARK    1  A    between atoms: N_3  and  C_4
REMARK    2  A    between atoms: C_6  and  N_7
REMARK    3  A    between atoms: C_9  and  C_10
REMARK    4  A    between atoms: C_10  and  C_11
REMARK    5  A    between atoms: C_11  and  C_12
REMARK    6  A    between atoms: N_14  and  C_15
REMARK    7  A    between atoms: C_15  and  C_16
REMARK    8  A    between atoms: C_16  and  C_17
REMARK    9  A    between atoms: C_17  and  C_18
REMARK   10  A    between atoms: C_18  and  C_19
REMARK   11  A    between atoms: C_19  and  C_20
REMARK   12  A    between atoms: C_20  and  C_21
REMARK   13  A    between atoms: C_21  and  C_22
REMARK   14  A    between atoms: C_22  and  C_23
REMARK   15  A    between atoms: C_23  and  C_24
REMARK   16  A    between atoms: C_24  and  N_25
REMARK   17  A    between atoms: C_32  and  C_33
REMARK   18  A    between atoms: C_33  and  O_34
REMARK                            x       y       z     vdW  Elec       q    Type
REMARK                         _______ _______ _______ _____ _____    ______ ____
ROOT
ATOM      1  N   UNL     1      -0.978  11.758  18.600  0.00  0.00    +0.000 N 
ATOM      2  C   UNL     1      -0.818  10.765  19.548  0.00  0.00    +0.000 A 
ATOM      3  C   UNL     1       0.077  10.850  20.547  0.00  0.00    +0.000 A 
ATOM      4  C   UNL     1       0.949  12.057  20.597  0.00  0.00    +0.000 A 
ATOM      5  O   UNL     1       1.689  12.292  21.544  0.00  0.00    +0.000 OA
ATOM      6  N   UNL     1       0.850  12.891  19.513  0.00  0.00    +0.000 N 
ATOM      7  C   UNL     1      -0.167  12.886  18.587  0.00  0.00    +0.000 A 
ATOM      8  O   UNL     1      -0.340  13.850  17.841  0.00  0.00    +0.000 OA
ATOM      9  H   UNL     1       1.400  13.731  19.535  0.00  0.00    +0.000 HD
ENDROOT
BRANCH   1  12
ATOM     10  C   UNL     1      -4.349  10.861  17.508  0.00  0.00    +0.000 C 
ATOM     11  C   UNL     1      -3.443  11.539  18.516  0.00  0.00    +0.000 C 
ATOM     12  C   UNL     1      -2.149  11.794  17.733  0.00  0.00    +0.000 C 
ATOM     13  O   UNL     1      -2.089  10.812  16.682  0.00  0.00    +0.000 OA
ATOM     14  C   UNL     1      -3.336  10.082  16.665  0.00  0.00    +0.000 C 
BRANCH  10  17
ATOM     15  N   UNL     1      -7.155  12.618  17.613  0.00  0.00    +0.000 NA
ATOM     16  N   UNL     1      -6.154  12.281  17.199  0.00  0.00    +0.000 NA
ATOM     17  N   UNL     1      -5.057  11.900  16.740  0.00  0.00    +0.000 NA
ENDBRANCH  10  17
BRANCH  14  18
ATOM     18  C   UNL     1      -3.731   9.813  15.216  0.00  0.00    +0.000 C 
BRANCH  18  19
ATOM     19  O   UNL     1      -3.245  10.869  14.396  0.00  0.00    +0.000 OA
ATOM     20  H   UNL     1      -2.355  11.052  14.756  0.00  0.00    +0.000 HD
ENDBRANCH  18  19
ENDBRANCH  14  18
ENDBRANCH   1  12
BRANCH   3  21
ATOM     21  C   UNL     1       0.160   9.851  21.672  0.00  0.00    +0.000 C 
BRANCH  21  22
ATOM     22  C   UNL     1       1.502   9.130  21.773  0.00  0.00    +0.000 C 
BRANCH  22  23
ATOM     23  C   UNL     1       1.599   8.046  20.718  0.00  0.00    +0.000 C 
ATOM     24  O   UNL     1       1.817   8.289  19.536  0.00  0.00    +0.000 OA
ATOM     25  N   UNL     1       1.457   6.777  21.224  0.00  0.00    +0.000 N 
ATOM     26  H   UNL     1       1.289   6.652  22.214  0.00  0.00    +0.000 HD
BRANCH  25  27
ATOM     27  C   UNL     1       1.518   5.615  20.373  0.00  0.00    +0.000 C 
BRANCH  27  28
ATOM     28  C   UNL     1       2.274   4.485  21.053  0.00  0.00    +0.000 C 
BRANCH  28  29
ATOM     29  C   UNL     1       1.456   3.202  20.993  0.00  0.00    +0.000 C 
BRANCH  29  30
ATOM     30  C   UNL     1       0.712   3.090  19.668  0.00  0.00    +0.000 C 
BRANCH  30  31
ATOM     31  C   UNL     1       1.664   3.319  18.501  0.00  0.00    +0.000 C 
BRANCH  31  32
ATOM     32  C   UNL     1       2.453   2.052  18.193  0.00  0.00    +0.000 C 
BRANCH  32  33
ATOM     33  C   UNL     1       3.851   2.395  17.693  0.00  0.00    +0.000 C 
BRANCH  33  34
ATOM     34  C   UNL     1       4.117   3.891  17.820  0.00  0.00    +0.000 C 
BRANCH  34  35
ATOM     35  C   UNL     1       5.228   4.161  18.833  0.00  0.00    +0.000 C 
BRANCH  35  36
ATOM     36  C   UNL     1       6.377   4.928  18.186  0.00  0.00    +0.000 C 
BRANCH  36  37
ATOM     37  N   UNL     1       6.929   4.162  17.076  0.00  0.00    +0.000 NA
ATOM     38  H   UNL     1       6.224   3.518  16.721  0.00  0.00    +0.000 HD
ATOM     39  H   UNL     1       7.699   3.587  17.414  0.00  0.00    +0.000 HD
ENDBRANCH  36  37
ENDBRANCH  35  36
ENDBRANCH  34  35
ENDBRANCH  33  34
ENDBRANCH  32  33
ENDBRANCH  31  32
ENDBRANCH  30  31
ENDBRANCH  29  30
ENDBRANCH  28  29
ENDBRANCH  27  28
ENDBRANCH  25  27
ENDBRANCH  22  23
ENDBRANCH  21  22
ENDBRANCH   3  21
TORSDOF 18
ENDMDL
