MODEL 1
REMARK VINA RESULT:      -7.4      0.000      0.000
REMARK  Name = 
REMARK  8 active torsions:
REMARK  status: ('A' for Active; 'I' for Inactive)
REMARK    1  A    between atoms: C_1  and  C_2
REMARK    2  A    between atoms: C_4  and  C_5
REMARK    3  A    between atoms: C_9  and  C_10
REMARK    4  A    between atoms: N_15  and  C_16
REMARK    5  A    between atoms: C_16  and  C_17
REMARK    6  A    between atoms: C_17  and  O_18
REMARK    7  A    between atoms: C_23  and  C_24
REMARK    8  A    between atoms: C_25  and  C_26
REMARK                            x       y       z     vdW  Elec       q    Type
REMARK                         _______ _______ _______ _____ _____    ______ ____
ROOT
ATOM      1  C   UNL     1       2.139   6.471  20.212  0.00  0.00    +0.000 A 
ATOM      2  C   UNL     1       1.586   5.237  20.593  0.00  0.00    +0.000 A 
ATOM      3  C   UNL     1       2.270   4.038  20.372  0.00  0.00    +0.000 A 
ATOM      4  C   UNL     1       3.563   4.055  19.845  0.00  0.00    +0.000 A 
ATOM      5  C   UNL     1       4.146   5.275  19.486  0.00  0.00    +0.000 A 
ATOM      6  C   UNL     1       3.383   6.439  19.570  0.00  0.00    +0.000 A 
ENDROOT
BRANCH   1  10
ATOM      7  C   UNL     1      -0.388   9.586  23.209  0.00  0.00    +0.000 C 
ATOM      8  C   UNL     1       0.286   9.309  21.893  0.00  0.00    +0.000 A 
ATOM      9  C   UNL     1       0.882   8.058  21.696  0.00  0.00    +0.000 A 
ATOM     10  C   UNL     1       1.496   7.772  20.483  0.00  0.00    +0.000 A 
ATOM     11  N   UNL     1       1.538   8.684  19.474  0.00  0.00    +0.000 NA
ATOM     12  C   UNL     1       0.965   9.907  19.663  0.00  0.00    +0.000 A 
ATOM     13  C   UNL     1       1.052  10.867  18.508  0.00  0.00    +0.000 C 
ATOM     14  C   UNL     1       0.323  10.255  20.856  0.00  0.00    +0.000 A 
BRANCH  14  15
ATOM     15  C   UNL     1      -0.283  11.544  21.011  0.00  0.00    +0.000 C 
ATOM     16  N   UNL     1      -0.774  12.587  21.138  0.00  0.00    +0.000 NA
ENDBRANCH  14  15
ENDBRANCH   1  10
BRANCH   5  17
ATOM     17  C   UNL     1       5.544   5.294  18.978  0.00  0.00    +0.000 C 
ATOM     18  O   UNL     1       6.440   5.233  19.817  0.00  0.00    +0.000 OA
ATOM     19  N   UNL     1       5.808   5.381  17.608  0.00  0.00    +0.000 N 
ATOM     20  C   UNL     1       7.189   5.197  17.158  0.00  0.00    +0.000 C 
ATOM     21  C   UNL     1       7.256   4.070  16.107  0.00  0.00    +0.000 C 
ATOM     22  N   UNL     1       6.349   4.248  14.942  0.00  0.00    +0.000 NA
ATOM     23  C   UNL     1       4.968   4.478  15.459  0.00  0.00    +0.000 C 
ATOM     24  C   UNL     1       4.873   5.625  16.498  0.00  0.00    +0.000 C 
BRANCH  22  25
ATOM     25  C   UNL     1       6.757   5.366  14.060  0.00  0.00    +0.000 C 
BRANCH  25  26
ATOM     26  C   UNL     1       7.904   5.017  13.102  0.00  0.00    +0.000 C 
BRANCH  26  27
ATOM     27  O   UNL     1       8.962   5.964  13.202  0.00  0.00    +0.000 OA
ATOM     28  H   UNL     1       9.759   5.499  12.884  0.00  0.00    +0.000 HD
ENDBRANCH  26  27
ENDBRANCH  25  26
ENDBRANCH  22  25
ENDBRANCH   5  17
TORSDOF 6
ENDMDL
MODEL 2
REMARK VINA RESULT:      -7.3      3.688      9.519
REMARK  Name = 
REMARK  8 active torsions:
REMARK  status: ('A' for Active; 'I' for Inactive)
REMARK    1  A    between atoms: C_1  and  C_2
REMARK    2  A    between atoms: C_4  and  C_5
REMARK    3  A    between atoms: C_9  and  C_10
REMARK    4  A    between atoms: N_15  and  C_16
REMARK    5  A    between atoms: C_16  and  C_17
REMARK    6  A    between atoms: C_17  and  O_18
REMARK    7  A    between atoms: C_23  and  C_24
REMARK    8  A    between atoms: C_25  and  C_26
REMARK                            x       y       z     vdW  Elec       q    Type
REMARK                         _______ _______ _______ _____ _____    ______ ____
ROOT
ATOM      1  C   UNL     1       2.189   7.607  19.177  0.00  0.00    +0.000 A 
ATOM      2  C   UNL     1       2.443   8.311  17.988  0.00  0.00    +0.000 A 
ATOM      3  C   UNL     1       1.970   9.614  17.803  0.00  0.00    +0.000 A 
ATOM      4  C   UNL     1       1.306  10.272  18.840  0.00  0.00    +0.000 A 
ATOM      5  C   UNL     1       1.068   9.601  20.044  0.00  0.00    +0.000 A 
ATOM      6  C   UNL     1       1.411   8.254  20.145  0.00  0.00    +0.000 A 
ENDROOT
BRANCH   1  10
ATOM      7  C   UNL     1       1.903   3.149  21.439  0.00  0.00    +0.000 C 
ATOM      8  C   UNL     1       2.623   4.097  20.520  0.00  0.00    +0.000 A 
ATOM      9  C   UNL     1       2.066   5.360  20.289  0.00  0.00    +0.000 A 
ATOM     10  C   UNL     1       2.722   6.259  19.457  0.00  0.00    +0.000 A 
ATOM     11  N   UNL     1       3.898   5.941  18.852  0.00  0.00    +0.000 NA
ATOM     12  C   UNL     1       4.442   4.709  19.067  0.00  0.00    +0.000 A 
ATOM     13  C   UNL     1       5.740   4.423  18.363  0.00  0.00    +0.000 C 
ATOM     14  C   UNL     1       3.838   3.761  19.900  0.00  0.00    +0.000 A 
BRANCH  14  15
ATOM     15  C   UNL     1       4.448   2.483  20.116  0.00  0.00    +0.000 C 
ATOM     16  N   UNL     1       4.943   1.448  20.290  0.00  0.00    +0.000 NA
ENDBRANCH  14  15
ENDBRANCH   1  10
BRANCH   5  17
ATOM     17  C   UNL     1       0.412  10.325  21.165  0.00  0.00    +0.000 C 
ATOM     18  O   UNL     1       0.980  10.294  22.254  0.00  0.00    +0.000 OA
ATOM     19  N   UNL     1      -0.797  11.002  20.972  0.00  0.00    +0.000 N 
ATOM     20  C   UNL     1      -1.291  11.855  22.054  0.00  0.00    +0.000 C 
ATOM     21  C   UNL     1      -1.532  13.285  21.529  0.00  0.00    +0.000 C 
ATOM     22  N   UNL     1      -2.429  13.374  20.347  0.00  0.00    +0.000 NA
ATOM     23  C   UNL     1      -1.907  12.451  19.297  0.00  0.00    +0.000 C 
ATOM     24  C   UNL     1      -1.682  11.000  19.796  0.00  0.00    +0.000 C 
BRANCH  22  25
ATOM     25  C   UNL     1      -3.837  13.039  20.665  0.00  0.00    +0.000 C 
BRANCH  25  26
ATOM     26  C   UNL     1      -4.308  13.562  22.029  0.00  0.00    +0.000 C 
BRANCH  26  27
ATOM     27  O   UNL     1      -4.733  12.496  22.869  0.00  0.00    +0.000 OA
ATOM     28  H   UNL     1      -4.508  12.773  23.777  0.00  0.00    +0.000 HD
ENDBRANCH  26  27
ENDBRANCH  25  26
ENDBRANCH  22  25
ENDBRANCH   5  17
TORSDOF 6
ENDMDL
MODEL 3
REMARK VINA RESULT:      -7.3      3.958      8.865
REMARK  Name = 
REMARK  8 active torsions:
REMARK  status: ('A' for Active; 'I' for Inactive)
REMARK    1  A    between atoms: C_1  and  C_2
REMARK    2  A    between atoms: C_4  and  C_5
REMARK    3  A    between atoms: C_9  and  C_10
REMARK    4  A    between atoms: N_15  and  C_16
REMARK    5  A    between atoms: C_16  and  C_17
REMARK    6  A    between atoms: C_17  and  O_18
REMARK    7  A    between atoms: C_23  and  C_24
REMARK    8  A    between atoms: C_25  and  C_26
REMARK                            x       y       z     vdW  Elec       q    Type
REMARK                         _______ _______ _______ _____ _____    ______ ____
ROOT
ATOM      1  C   UNL     1       2.000   7.789  19.390  0.00  0.00    +0.000 A 
ATOM      2  C   UNL     1       1.661   7.576  20.737  0.00  0.00    +0.000 A 
ATOM      3  C   UNL     1       0.871   8.492  21.439  0.00  0.00    +0.000 A 
ATOM      4  C   UNL     1       0.328   9.597  20.780  0.00  0.00    +0.000 A 
ATOM      5  C   UNL     1       0.627   9.813  19.431  0.00  0.00    +0.000 A 
ATOM      6  C   UNL     1       1.542   8.972  18.799  0.00  0.00    +0.000 A 
ENDROOT
BRANCH   1  10
ATOM      7  C   UNL     1       2.565   3.285  17.277  0.00  0.00    +0.000 C 
ATOM      8  C   UNL     1       3.083   4.672  17.540  0.00  0.00    +0.000 A 
ATOM      9  C   UNL     1       2.305   5.543  18.311  0.00  0.00    +0.000 A 
ATOM     10  C   UNL     1       2.770   6.824  18.581  0.00  0.00    +0.000 A 
ATOM     11  N   UNL     1       3.969   7.260  18.108  0.00  0.00    +0.000 NA
ATOM     12  C   UNL     1       4.729   6.418  17.350  0.00  0.00    +0.000 A 
ATOM     13  C   UNL     1       6.040   6.967  16.857  0.00  0.00    +0.000 C 
ATOM     14  C   UNL     1       4.323   5.113  17.049  0.00  0.00    +0.000 A 
BRANCH  14  15
ATOM     15  C   UNL     1       5.155   4.252  16.263  0.00  0.00    +0.000 C 
ATOM     16  N   UNL     1       5.829   3.555  15.627  0.00  0.00    +0.000 NA
ENDBRANCH  14  15
ENDBRANCH   1  10
BRANCH   5  17
ATOM     17  C   UNL     1       0.001  10.959  18.720  0.00  0.00    +0.000 C 
ATOM     18  O   UNL     1      -1.059  10.740  18.138  0.00  0.00    +0.000 OA
ATOM     19  N   UNL     1       0.605  12.220  18.721  0.00  0.00    +0.000 N 
ATOM     20  C   UNL     1      -0.151  13.348  18.175  0.00  0.00    +0.000 C 
ATOM     21  C   UNL     1      -0.251  14.474  19.225  0.00  0.00    +0.000 C 
ATOM     22  N   UNL     1       1.053  14.937  19.770  0.00  0.00    +0.000 NA
ATOM     23  C   UNL     1       1.799  13.744  20.267  0.00  0.00    +0.000 C 
ATOM     24  C   UNL     1       1.934  12.610  19.218  0.00  0.00    +0.000 C 
BRANCH  22  25
ATOM     25  C   UNL     1       1.868  15.669  18.772  0.00  0.00    +0.000 C 
BRANCH  25  26
ATOM     26  C   UNL     1       1.410  17.115  18.533  0.00  0.00    +0.000 C 
BRANCH  26  27
ATOM     27  O   UNL     1       2.135  17.713  17.465  0.00  0.00    +0.000 OA
ATOM     28  H   UNL     1       1.472  18.193  16.935  0.00  0.00    +0.000 HD
ENDBRANCH  26  27
ENDBRANCH  25  26
ENDBRANCH  22  25
ENDBRANCH   5  17
TORSDOF 6
ENDMDL
MODEL 4
REMARK VINA RESULT:      -7.2      0.548      1.667
REMARK  Name = 
REMARK  8 active torsions:
REMARK  status: ('A' for Active; 'I' for Inactive)
REMARK    1  A    between atoms: C_1  and  C_2
REMARK    2  A    between atoms: C_4  and  C_5
REMARK    3  A    between atoms: C_9  and  C_10
REMARK    4  A    between atoms: N_15  and  C_16
REMARK    5  A    between atoms: C_16  and  C_17
REMARK    6  A    between atoms: C_17  and  O_18
REMARK    7  A    between atoms: C_23  and  C_24
REMARK    8  A    between atoms: C_25  and  C_26
REMARK                            x       y       z     vdW  Elec       q    Type
REMARK                         _______ _______ _______ _____ _____    ______ ____
ROOT
ATOM      1  C   UNL     1       2.161   6.610  20.159  0.00  0.00    +0.000 A 
ATOM      2  C   UNL     1       1.590   5.395  20.573  0.00  0.00    +0.000 A 
ATOM      3  C   UNL     1       2.252   4.179  20.378  0.00  0.00    +0.000 A 
ATOM      4  C   UNL     1       3.542   4.162  19.844  0.00  0.00    +0.000 A 
ATOM      5  C   UNL     1       4.144   5.363  19.453  0.00  0.00    +0.000 A 
ATOM      6  C   UNL     1       3.401   6.541  19.512  0.00  0.00    +0.000 A 
ENDROOT
BRANCH   1  10
ATOM      7  C   UNL     1       0.793  11.174  18.621  0.00  0.00    +0.000 C 
ATOM      8  C   UNL     1       0.859  10.133  19.704  0.00  0.00    +0.000 A 
ATOM      9  C   UNL     1       1.454   8.899  19.413  0.00  0.00    +0.000 A 
ATOM     10  C   UNL     1       1.542   7.928  20.401  0.00  0.00    +0.000 A 
ATOM     11  N   UNL     1       1.057   8.142  21.654  0.00  0.00    +0.000 NA
ATOM     12  C   UNL     1       0.469   9.338  21.942  0.00  0.00    +0.000 A 
ATOM     13  C   UNL     1      -0.049   9.504  23.345  0.00  0.00    +0.000 C 
ATOM     14  C   UNL     1       0.356  10.362  20.995  0.00  0.00    +0.000 A 
BRANCH  14  15
ATOM     15  C   UNL     1      -0.252  11.612  21.339  0.00  0.00    +0.000 C 
ATOM     16  N   UNL     1      -0.744  12.625  21.617  0.00  0.00    +0.000 NA
ENDBRANCH  14  15
ENDBRANCH   1  10
BRANCH   5  17
ATOM     17  C   UNL     1       5.539   5.345  18.938  0.00  0.00    +0.000 C 
ATOM     18  O   UNL     1       6.438   5.273  19.772  0.00  0.00    +0.000 OA
ATOM     19  N   UNL     1       5.798   5.412  17.566  0.00  0.00    +0.000 N 
ATOM     20  C   UNL     1       7.172   5.193  17.111  0.00  0.00    +0.000 C 
ATOM     21  C   UNL     1       7.208   4.054  16.071  0.00  0.00    +0.000 C 
ATOM     22  N   UNL     1       6.300   4.240  14.909  0.00  0.00    +0.000 NA
ATOM     23  C   UNL     1       4.927   4.506  15.430  0.00  0.00    +0.000 C 
ATOM     24  C   UNL     1       4.863   5.666  16.458  0.00  0.00    +0.000 C 
BRANCH  22  25
ATOM     25  C   UNL     1       6.727   5.340  14.013  0.00  0.00    +0.000 C 
BRANCH  25  26
ATOM     26  C   UNL     1       7.939   4.994  13.137  0.00  0.00    +0.000 C 
BRANCH  26  27
ATOM     27  O   UNL     1       8.951   5.989  13.243  0.00  0.00    +0.000 OA
ATOM     28  H   UNL     1       8.755   6.473  14.068  0.00  0.00    +0.000 HD
ENDBRANCH  26  27
ENDBRANCH  25  26
ENDBRANCH  22  25
ENDBRANCH   5  17
TORSDOF 6
ENDMDL
MODEL 5
REMARK VINA RESULT:      -7.2      3.623      9.742
REMARK  Name = 
REMARK  8 active torsions:
REMARK  status: ('A' for Active; 'I' for Inactive)
REMARK    1  A    between atoms: C_1  and  C_2
REMARK    2  A    between atoms: C_4  and  C_5
REMARK    3  A    between atoms: C_9  and  C_10
REMARK    4  A    between atoms: N_15  and  C_16
REMARK    5  A    between atoms: C_16  and  C_17
REMARK    6  A    between atoms: C_17  and  O_18
REMARK    7  A    between atoms: C_23  and  C_24
REMARK    8  A    between atoms: C_25  and  C_26
REMARK                            x       y       z     vdW  Elec       q    Type
REMARK                         _______ _______ _______ _____ _____    ______ ____
ROOT
ATOM      1  C   UNL     1       2.092   7.656  18.757  0.00  0.00    +0.000 A 
ATOM      2  C   UNL     1       2.317   8.622  17.762  0.00  0.00    +0.000 A 
ATOM      3  C   UNL     1       1.944   9.956  17.949  0.00  0.00    +0.000 A 
ATOM      4  C   UNL     1       1.418  10.371  19.174  0.00  0.00    +0.000 A 
ATOM      5  C   UNL     1       1.213   9.432  20.191  0.00  0.00    +0.000 A 
ATOM      6  C   UNL     1       1.446   8.084  19.923  0.00  0.00    +0.000 A 
ENDROOT
BRANCH   1  10
ATOM      7  C   UNL     1       4.771   4.048  16.550  0.00  0.00    +0.000 C 
ATOM      8  C   UNL     1       3.804   4.481  17.617  0.00  0.00    +0.000 A 
ATOM      9  C   UNL     1       3.432   5.829  17.677  0.00  0.00    +0.000 A 
ATOM     10  C   UNL     1       2.527   6.250  18.644  0.00  0.00    +0.000 A 
ATOM     11  N   UNL     1       1.991   5.382  19.543  0.00  0.00    +0.000 NA
ATOM     12  C   UNL     1       2.355   4.068  19.494  0.00  0.00    +0.000 A 
ATOM     13  C   UNL     1       1.728   3.166  20.521  0.00  0.00    +0.000 C 
ATOM     14  C   UNL     1       3.255   3.578  18.541  0.00  0.00    +0.000 A 
BRANCH  14  15
ATOM     15  C   UNL     1       3.600   2.188  18.509  0.00  0.00    +0.000 C 
ATOM     16  N   UNL     1       3.880   1.063  18.484  0.00  0.00    +0.000 NA
ENDBRANCH  14  15
ENDBRANCH   1  10
BRANCH   5  17
ATOM     17  C   UNL     1       0.706   9.889  21.513  0.00  0.00    +0.000 C 
ATOM     18  O   UNL     1       1.373   9.584  22.499  0.00  0.00    +0.000 OA
ATOM     19  N   UNL     1      -0.479  10.625  21.612  0.00  0.00    +0.000 N 
ATOM     20  C   UNL     1      -0.822  11.211  22.908  0.00  0.00    +0.000 C 
ATOM     21  C   UNL     1      -1.038  12.731  22.760  0.00  0.00    +0.000 C 
ATOM     22  N   UNL     1      -2.038  13.123  21.731  0.00  0.00    +0.000 NA
ATOM     23  C   UNL     1      -1.668  12.460  20.447  0.00  0.00    +0.000 C 
ATOM     24  C   UNL     1      -1.471  10.927  20.568  0.00  0.00    +0.000 C 
BRANCH  22  25
ATOM     25  C   UNL     1      -3.424  12.761  22.110  0.00  0.00    +0.000 C 
BRANCH  25  26
ATOM     26  C   UNL     1      -3.796  13.143  23.550  0.00  0.00    +0.000 C 
BRANCH  26  27
ATOM     27  O   UNL     1      -4.289  12.017  24.268  0.00  0.00    +0.000 OA
ATOM     28  H   UNL     1      -3.536  11.401  24.337  0.00  0.00    +0.000 HD
ENDBRANCH  26  27
ENDBRANCH  25  26
ENDBRANCH  22  25
ENDBRANCH   5  17
TORSDOF 6
ENDMDL
MODEL 6
REMARK VINA RESULT:      -7.1      4.083      8.959
REMARK  Name = 
REMARK  8 active torsions:
REMARK  status: ('A' for Active; 'I' for Inactive)
REMARK    1  A    between atoms: C_1  and  C_2
REMARK    2  A    between atoms: C_4  and  C_5
REMARK    3  A    between atoms: C_9  and  C_10
REMARK    4  A    between atoms: N_15  and  C_16
REMARK    5  A    between atoms: C_16  and  C_17
REMARK    6  A    between atoms: C_17  and  O_18
REMARK    7  A    between atoms: C_23  and  C_24
REMARK    8  A    between atoms: C_25  and  C_26
REMARK                            x       y       z     vdW  Elec       q    Type
REMARK                         _______ _______ _______ _____ _____    ______ ____
ROOT
ATOM      1  C   UNL     1       1.270   8.366  20.686  0.00  0.00    +0.000 A 
ATOM      2  C   UNL     1       0.926   8.521  22.039  0.00  0.00    +0.000 A 
ATOM      3  C   UNL     1       0.298   9.683  22.498  0.00  0.00    +0.000 A 
ATOM      4  C   UNL     1      -0.081  10.678  21.595  0.00  0.00    +0.000 A 
ATOM      5  C   UNL     1       0.225  10.532  20.238  0.00  0.00    +0.000 A 
ATOM      6  C   UNL     1       0.990   9.439  19.832  0.00  0.00    +0.000 A 
ENDROOT
BRANCH   1  10
ATOM      7  C   UNL     1       4.101   5.991  17.307  0.00  0.00    +0.000 C 
ATOM      8  C   UNL     1       3.228   5.950  18.531  0.00  0.00    +0.000 A 
ATOM      9  C   UNL     1       2.692   7.150  19.012  0.00  0.00    +0.000 A 
ATOM     10  C   UNL     1       1.870   7.136  20.132  0.00  0.00    +0.000 A 
ATOM     11  N   UNL     1       1.573   5.978  20.782  0.00  0.00    +0.000 NA
ATOM     12  C   UNL     1       2.099   4.807  20.323  0.00  0.00    +0.000 A 
ATOM     13  C   UNL     1       1.733   3.567  21.092  0.00  0.00    +0.000 C 
ATOM     14  C   UNL     1       2.926   4.751  19.195  0.00  0.00    +0.000 A 
BRANCH  14  15
ATOM     15  C   UNL     1       3.446   3.499  18.732  0.00  0.00    +0.000 C 
ATOM     16  N   UNL     1       3.868   2.486  18.356  0.00  0.00    +0.000 NA
ENDBRANCH  14  15
ENDBRANCH   1  10
BRANCH   5  17
ATOM     17  C   UNL     1      -0.230  11.567  19.272  0.00  0.00    +0.000 C 
ATOM     18  O   UNL     1      -1.251  11.321  18.634  0.00  0.00    +0.000 OA
ATOM     19  N   UNL     1       0.484  12.758  19.108  0.00  0.00    +0.000 N 
ATOM     20  C   UNL     1      -0.116  13.817  18.294  0.00  0.00    +0.000 C 
ATOM     21  C   UNL     1      -0.202  15.123  19.109  0.00  0.00    +0.000 C 
ATOM     22  N   UNL     1       1.086  15.583  19.691  0.00  0.00    +0.000 NA
ATOM     23  C   UNL     1       1.674  14.453  20.468  0.00  0.00    +0.000 C 
ATOM     24  C   UNL     1       1.796  13.135  19.659  0.00  0.00    +0.000 C 
BRANCH  22  25
ATOM     25  C   UNL     1       2.048  16.052  18.666  0.00  0.00    +0.000 C 
BRANCH  25  26
ATOM     26  C   UNL     1       1.664  17.390  18.018  0.00  0.00    +0.000 C 
BRANCH  26  27
ATOM     27  O   UNL     1       2.450  17.643  16.860  0.00  0.00    +0.000 OA
ATOM     28  H   UNL     1       2.486  18.615  16.776  0.00  0.00    +0.000 HD
ENDBRANCH  26  27
ENDBRANCH  25  26
ENDBRANCH  22  25
ENDBRANCH   5  17
TORSDOF 6
ENDMDL
MODEL 7
REMARK VINA RESULT:      -7.1      4.087      8.858
REMARK  Name = 
REMARK  8 active torsions:
REMARK  status: ('A' for Active; 'I' for Inactive)
REMARK    1  A    between atoms: C_1  and  C_2
REMARK    2  A    between atoms: C_4  and  C_5
REMARK    3  A    between atoms: C_9  and  C_10
REMARK    4  A    between atoms: N_15  and  C_16
REMARK    5  A    between atoms: C_16  and  C_17
REMARK    6  A    between atoms: C_17  and  O_18
REMARK    7  A    between atoms: C_23  and  C_24
REMARK    8  A    between atoms: C_25  and  C_26
REMARK                            x       y       z     vdW  Elec       q    Type
REMARK                         _______ _______ _______ _____ _____    ______ ____
ROOT
ATOM      1  C   UNL     1       1.064   8.583  20.891  0.00  0.00    +0.000 A 
ATOM      2  C   UNL     1       0.692   8.726  22.238  0.00  0.00    +0.000 A 
ATOM      3  C   UNL     1       0.059   9.885  22.697  0.00  0.00    +0.000 A 
ATOM      4  C   UNL     1      -0.296  10.892  21.797  0.00  0.00    +0.000 A 
ATOM      5  C   UNL     1       0.038  10.759  20.444  0.00  0.00    +0.000 A 
ATOM      6  C   UNL     1       0.806   9.667  20.043  0.00  0.00    +0.000 A 
ENDROOT
BRANCH   1  10
ATOM      7  C   UNL     1       1.796   3.630  20.945  0.00  0.00    +0.000 C 
ATOM      8  C   UNL     1       2.046   4.975  20.319  0.00  0.00    +0.000 A 
ATOM      9  C   UNL     1       1.440   6.102  20.887  0.00  0.00    +0.000 A 
ATOM     10  C   UNL     1       1.670   7.356  20.337  0.00  0.00    +0.000 A 
ATOM     11  N   UNL     1       2.471   7.521  19.249  0.00  0.00    +0.000 NA
ATOM     12  C   UNL     1       3.058   6.426  18.687  0.00  0.00    +0.000 A 
ATOM     13  C   UNL     1       3.926   6.681  17.485  0.00  0.00    +0.000 C 
ATOM     14  C   UNL     1       2.875   5.136  19.197  0.00  0.00    +0.000 A 
BRANCH  14  15
ATOM     15  C   UNL     1       3.522   4.011  18.590  0.00  0.00    +0.000 C 
ATOM     16  N   UNL     1       4.046   3.101  18.098  0.00  0.00    +0.000 NA
ENDBRANCH  14  15
ENDBRANCH   1  10
BRANCH   5  17
ATOM     17  C   UNL     1      -0.392  11.807  19.481  0.00  0.00    +0.000 C 
ATOM     18  O   UNL     1      -1.445  11.609  18.879  0.00  0.00    +0.000 OA
ATOM     19  N   UNL     1       0.379  12.955  19.279  0.00  0.00    +0.000 N 
ATOM     20  C   UNL     1      -0.189  14.036  18.471  0.00  0.00    +0.000 C 
ATOM     21  C   UNL     1      -0.178  15.354  19.271  0.00  0.00    +0.000 C 
ATOM     22  N   UNL     1       1.151  15.750  19.807  0.00  0.00    +0.000 NA
ATOM     23  C   UNL     1       1.703  14.598  20.578  0.00  0.00    +0.000 C 
ATOM     24  C   UNL     1       1.727  13.267  19.783  0.00  0.00    +0.000 C 
BRANCH  22  25
ATOM     25  C   UNL     1       2.102  16.155  18.746  0.00  0.00    +0.000 C 
BRANCH  25  26
ATOM     26  C   UNL     1       1.653  17.384  17.943  0.00  0.00    +0.000 C 
BRANCH  26  27
ATOM     27  O   UNL     1       2.524  17.626  16.844  0.00  0.00    +0.000 OA
ATOM     28  H   UNL     1       2.365  16.894  16.219  0.00  0.00    +0.000 HD
ENDBRANCH  26  27
ENDBRANCH  25  26
ENDBRANCH  22  25
ENDBRANCH   5  17
TORSDOF 6
ENDMDL
MODEL 8
REMARK VINA RESULT:      -7.0      1.569      1.884
REMARK  Name = 
REMARK  8 active torsions:
REMARK  status: ('A' for Active; 'I' for Inactive)
REMARK    1  A    between atoms: C_1  and  C_2
REMARK    2  A    between atoms: C_4  and  C_5
REMARK    3  A    between atoms: C_9  and  C_10
REMARK    4  A    between atoms: N_15  and  C_16
REMARK    5  A    between atoms: C_16  and  C_17
REMARK    6  A    between atoms: C_17  and  O_18
REMARK    7  A    between atoms: C_23  and  C_24
REMARK    8  A    between atoms: C_25  and  C_26
REMARK                            x       y       z     vdW  Elec       q    Type
REMARK                         _______ _______ _______ _____ _____    ______ ____
ROOT
ATOM      1  C   UNL     1       2.150   5.382  20.249  0.00  0.00    +0.000 A 
ATOM      2  C   UNL     1       2.151   4.571  21.397  0.00  0.00    +0.000 A 
ATOM      3  C   UNL     1       2.611   3.252  21.351  0.00  0.00    +0.000 A 
ATOM      4  C   UNL     1       3.165   2.743  20.175  0.00  0.00    +0.000 A 
ATOM      5  C   UNL     1       3.203   3.543  19.027  0.00  0.00    +0.000 A 
ATOM      6  C   UNL     1       2.595   4.797  19.057  0.00  0.00    +0.000 A 
ENDROOT
BRANCH   1  10
ATOM      7  C   UNL     1       0.036   9.344  22.464  0.00  0.00    +0.000 C 
ATOM      8  C   UNL     1       0.740   8.737  21.281  0.00  0.00    +0.000 A 
ATOM      9  C   UNL     1       1.106   7.387  21.339  0.00  0.00    +0.000 A 
ATOM     10  C   UNL     1       1.743   6.801  20.252  0.00  0.00    +0.000 A 
ATOM     11  N   UNL     1       2.026   7.509  19.126  0.00  0.00    +0.000 NA
ATOM     12  C   UNL     1       1.679   8.827  19.067  0.00  0.00    +0.000 A 
ATOM     13  C   UNL     1       2.027   9.550  17.794  0.00  0.00    +0.000 C 
ATOM     14  C   UNL     1       1.028   9.476  20.122  0.00  0.00    +0.000 A 
BRANCH  14  15
ATOM     15  C   UNL     1       0.663  10.857  20.017  0.00  0.00    +0.000 C 
ATOM     16  N   UNL     1       0.367  11.975  19.932  0.00  0.00    +0.000 NA
ENDBRANCH  14  15
ENDBRANCH   1  10
BRANCH   5  17
ATOM     17  C   UNL     1       3.845   3.017  17.793  0.00  0.00    +0.000 C 
ATOM     18  O   UNL     1       3.483   1.906  17.410  0.00  0.00    +0.000 OA
ATOM     19  N   UNL     1       4.814   3.761  17.115  0.00  0.00    +0.000 N 
ATOM     20  C   UNL     1       5.264   3.281  15.807  0.00  0.00    +0.000 C 
ATOM     21  C   UNL     1       5.078   4.386  14.748  0.00  0.00    +0.000 C 
ATOM     22  N   UNL     1       5.726   5.684  15.077  0.00  0.00    +0.000 NA
ATOM     23  C   UNL     1       5.270   6.099  16.435  0.00  0.00    +0.000 C 
ATOM     24  C   UNL     1       5.473   5.013  17.523  0.00  0.00    +0.000 C 
BRANCH  22  25
ATOM     25  C   UNL     1       7.205   5.615  15.034  0.00  0.00    +0.000 C 
BRANCH  25  26
ATOM     26  C   UNL     1       7.771   5.231  13.659  0.00  0.00    +0.000 C 
BRANCH  26  27
ATOM     27  O   UNL     1       8.929   5.998  13.348  0.00  0.00    +0.000 OA
ATOM     28  H   UNL     1       8.670   6.929  13.486  0.00  0.00    +0.000 HD
ENDBRANCH  26  27
ENDBRANCH  25  26
ENDBRANCH  22  25
ENDBRANCH   5  17
TORSDOF 6
ENDMDL
MODEL 9
REMARK VINA RESULT:      -7.0      3.765      9.624
REMARK  Name = 
REMARK  8 active torsions:
REMARK  status: ('A' for Active; 'I' for Inactive)
REMARK    1  A    between atoms: C_1  and  C_2
REMARK    2  A    between atoms: C_4  and  C_5
REMARK    3  A    between atoms: C_9  and  C_10
REMARK    4  A    between atoms: N_15  and  C_16
REMARK    5  A    between atoms: C_16  and  C_17
REMARK    6  A    between atoms: C_17  and  O_18
REMARK    7  A    between atoms: C_23  and  C_24
REMARK    8  A    between atoms: C_25  and  C_26
REMARK                            x       y       z     vdW  Elec       q    Type
REMARK                         _______ _______ _______ _____ _____    ______ ____
ROOT
ATOM      1  C   UNL     1       2.188   7.691  19.110  0.00  0.00    +0.000 A 
ATOM      2  C   UNL     1       2.240   8.407  17.902  0.00  0.00    +0.000 A 
ATOM      3  C   UNL     1       1.675   9.681  17.791  0.00  0.00    +0.000 A 
ATOM      4  C   UNL     1       1.123  10.303  18.912  0.00  0.00    +0.000 A 
ATOM      5  C   UNL     1       1.088   9.621  20.133  0.00  0.00    +0.000 A 
ATOM      6  C   UNL     1       1.515   8.295  20.178  0.00  0.00    +0.000 A 
ENDROOT
BRANCH   1  10
ATOM      7  C   UNL     1       5.798   4.365  18.120  0.00  0.00    +0.000 C 
ATOM      8  C   UNL     1       4.548   4.744  18.866  0.00  0.00    +0.000 A 
ATOM      9  C   UNL     1       3.991   6.008  18.641  0.00  0.00    +0.000 A 
ATOM     10  C   UNL     1       2.828   6.375  19.307  0.00  0.00    +0.000 A 
ATOM     11  N   UNL     1       2.213   5.534  20.181  0.00  0.00    +0.000 NA
ATOM     12  C   UNL     1       2.756   4.304  20.410  0.00  0.00    +0.000 A 
ATOM     13  C   UNL     1       2.027   3.428  21.392  0.00  0.00    +0.000 C 
ATOM     14  C   UNL     1       3.920   3.869  19.767  0.00  0.00    +0.000 A 
BRANCH  14  15
ATOM     15  C   UNL     1       4.451   2.563  20.020  0.00  0.00    +0.000 C 
ATOM     16  N   UNL     1       4.882   1.506  20.225  0.00  0.00    +0.000 NA
ENDBRANCH  14  15
ENDBRANCH   1  10
BRANCH   5  17
ATOM     17  C   UNL     1       0.551  10.310  21.337  0.00  0.00    +0.000 C 
ATOM     18  O   UNL     1       1.111  10.075  22.406  0.00  0.00    +0.000 OA
ATOM     19  N   UNL     1      -0.541  11.176  21.241  0.00  0.00    +0.000 N 
ATOM     20  C   UNL     1      -0.898  11.971  22.417  0.00  0.00    +0.000 C 
ATOM     21  C   UNL     1      -0.922  13.470  22.053  0.00  0.00    +0.000 C 
ATOM     22  N   UNL     1      -1.799  13.820  20.904  0.00  0.00    +0.000 NA
ATOM     23  C   UNL     1      -1.424  12.949  19.752  0.00  0.00    +0.000 C 
ATOM     24  C   UNL     1      -1.419  11.435  20.088  0.00  0.00    +0.000 C 
BRANCH  22  25
ATOM     25  C   UNL     1      -3.240  13.667  21.211  0.00  0.00    +0.000 C 
BRANCH  25  26
ATOM     26  C   UNL     1      -4.056  14.954  21.022  0.00  0.00    +0.000 C 
BRANCH  26  27
ATOM     27  O   UNL     1      -3.318  15.928  20.294  0.00  0.00    +0.000 OA
ATOM     28  H   UNL     1      -2.757  16.377  20.953  0.00  0.00    +0.000 HD
ENDBRANCH  26  27
ENDBRANCH  25  26
ENDBRANCH  22  25
ENDBRANCH   5  17
TORSDOF 6
ENDMDL
