MODEL 1
REMARK VINA RESULT:      -7.8      0.000      0.000
REMARK  Name = 
REMARK  10 active torsions:
REMARK  status: ('A' for Active; 'I' for Inactive)
REMARK    1  A    between atoms: C_1  and  O_2
REMARK    2  A    between atoms: O_2  and  C_3
REMARK    3  A    between atoms: C_5  and  O_6
REMARK    4  A    between atoms: O_6  and  C_7
REMARK    5  A    between atoms: C_7  and  C_8
REMARK    6  A    between atoms: C_8  and  C_9
REMARK    7  A    between atoms: C_8  and  C_10
REMARK    8  A    between atoms: C_13  and  C_14
REMARK    9  A    between atoms: C_20  and  S_21
REMARK   10  A    between atoms: S_21  and  N_24
REMARK                            x       y       z     vdW  Elec       q    Type
REMARK                         _______ _______ _______ _____ _____    ______ ____
ROOT
ATOM      1  C   UNL     1       0.601   9.288  19.444  0.00  0.00    +0.000 A 
ATOM      2  N   UNL     1       0.663   9.426  20.783  0.00  0.00    +0.000 NA
ATOM      3  C   UNL     1       1.117  10.612  21.234  0.00  0.00    +0.000 A 
ATOM      4  C   UNL     1       1.333  11.627  20.349  0.00  0.00    +0.000 A 
ATOM      5  C   UNL     1       0.244  11.617  19.543  0.00  0.00    +0.000 A 
ATOM      6  C   UNL     1      -0.710  12.567  19.925  0.00  0.00    +0.000 A 
ATOM      7  C   UNL     1      -2.037  12.400  19.589  0.00  0.00    +0.000 A 
ATOM      8  C   UNL     1      -2.336  11.479  18.577  0.00  0.00    +0.000 A 
ATOM      9  C   UNL     1      -1.350  10.523  18.191  0.00  0.00    +0.000 A 
ATOM     10  C   UNL     1      -0.046  10.422  18.835  0.00  0.00    +0.000 A 
ENDROOT
BRANCH   1  16
ATOM     11  C   UNL     1       2.169   7.033  19.689  0.00  0.00    +0.000 A 
ATOM     12  C   UNL     1       3.187   6.204  19.065  0.00  0.00    +0.000 A 
ATOM     13  C   UNL     1       3.874   6.529  17.882  0.00  0.00    +0.000 A 
ATOM     14  C   UNL     1       3.472   7.682  17.258  0.00  0.00    +0.000 A 
ATOM     15  C   UNL     1       2.493   8.509  17.885  0.00  0.00    +0.000 A 
ATOM     16  C   UNL     1       1.779   8.264  19.134  0.00  0.00    +0.000 A 
BRANCH  11  18
ATOM     17  C   UNL     1       1.788   4.982  20.762  0.00  0.00    +0.000 C 
ATOM     18  O   UNL     1       1.612   6.385  20.759  0.00  0.00    +0.000 OA
ENDBRANCH  11  18
BRANCH  13  19
ATOM     19  O   UNL     1       4.834   5.646  17.470  0.00  0.00    +0.000 OA
BRANCH  19  20
ATOM     20  C   UNL     1       6.163   6.030  17.058  0.00  0.00    +0.000 C 
BRANCH  20  21
ATOM     21  C   UNL     1       6.951   6.816  18.130  0.00  0.00    +0.000 C 
ATOM     22  C   UNL     1       7.910   5.926  18.918  0.00  0.00    +0.000 C 
ATOM     23  C   UNL     1       7.768   7.981  17.536  0.00  0.00    +0.000 C 
ENDBRANCH  20  21
ENDBRANCH  19  20
ENDBRANCH  13  19
ENDBRANCH   1  16
BRANCH   7  24
ATOM     24  S   UNL     1      -3.250  13.245  20.601  0.00  0.00    +0.000 S 
ATOM     25  O   UNL     1      -3.525  12.418  21.760  0.00  0.00    +0.000 OA
ATOM     26  O   UNL     1      -2.812  14.617  20.761  0.00  0.00    +0.000 OA
BRANCH  24  27
ATOM     27  N   UNL     1      -4.694  13.300  19.696  0.00  0.00    +0.000 N 
ATOM     28  C   UNL     1      -5.783  12.525  20.121  0.00  0.00    +0.000 A 
ATOM     29  C   UNL     1      -6.691  12.979  21.033  0.00  0.00    +0.000 A 
ATOM     30  C   UNL     1      -7.755  12.121  21.260  0.00  0.00    +0.000 A 
ATOM     31  N   UNL     1      -7.873  10.921  20.659  0.00  0.00    +0.000 NA
ATOM     32  C   UNL     1      -6.891  10.589  19.808  0.00  0.00    +0.000 A 
ATOM     33  N   UNL     1      -5.842  11.353  19.479  0.00  0.00    +0.000 NA
ATOM     34  H   UNL     1      -4.479  13.150  18.716  0.00  0.00    +0.000 HD
ENDBRANCH  24  27
ENDBRANCH   7  24
TORSDOF 7
ENDMDL
MODEL 2
REMARK VINA RESULT:      -7.6      3.190      5.384
REMARK  Name = 
REMARK  10 active torsions:
REMARK  status: ('A' for Active; 'I' for Inactive)
REMARK    1  A    between atoms: C_1  and  O_2
REMARK    2  A    between atoms: O_2  and  C_3
REMARK    3  A    between atoms: C_5  and  O_6
REMARK    4  A    between atoms: O_6  and  C_7
REMARK    5  A    between atoms: C_7  and  C_8
REMARK    6  A    between atoms: C_8  and  C_9
REMARK    7  A    between atoms: C_8  and  C_10
REMARK    8  A    between atoms: C_13  and  C_14
REMARK    9  A    between atoms: C_20  and  S_21
REMARK   10  A    between atoms: S_21  and  N_24
REMARK                            x       y       z     vdW  Elec       q    Type
REMARK                         _______ _______ _______ _____ _____    ______ ____
ROOT
ATOM      1  C   UNL     1       1.100   9.201  20.040  0.00  0.00    +0.000 A 
ATOM      2  N   UNL     1       1.447   9.896  18.939  0.00  0.00    +0.000 NA
ATOM      3  C   UNL     1       0.445  10.192  18.088  0.00  0.00    +0.000 A 
ATOM      4  C   UNL     1      -0.842   9.919  18.448  0.00  0.00    +0.000 A 
ATOM      5  C   UNL     1      -0.937  10.346  19.730  0.00  0.00    +0.000 A 
ATOM      6  C   UNL     1      -1.507  11.622  19.826  0.00  0.00    +0.000 A 
ATOM      7  C   UNL     1      -1.248  12.423  20.918  0.00  0.00    +0.000 A 
ATOM      8  C   UNL     1      -0.718  11.807  22.060  0.00  0.00    +0.000 A 
ATOM      9  C   UNL     1      -0.150  10.503  21.948  0.00  0.00    +0.000 A 
ATOM     10  C   UNL     1      -0.048   9.787  20.683  0.00  0.00    +0.000 A 
ENDROOT
BRANCH   1  16
ATOM     11  C   UNL     1       2.651   7.266  18.835  0.00  0.00    +0.000 A 
ATOM     12  C   UNL     1       3.199   5.924  18.945  0.00  0.00    +0.000 A 
ATOM     13  C   UNL     1       2.875   5.004  19.958  0.00  0.00    +0.000 A 
ATOM     14  C   UNL     1       2.037   5.470  20.938  0.00  0.00    +0.000 A 
ATOM     15  C   UNL     1       1.477   6.776  20.814  0.00  0.00    +0.000 A 
ATOM     16  C   UNL     1       1.725   7.762  19.767  0.00  0.00    +0.000 A 
BRANCH  11  18
ATOM     17  C   UNL     1       4.247   7.220  17.116  0.00  0.00    +0.000 C 
ATOM     18  O   UNL     1       3.254   7.947  17.811  0.00  0.00    +0.000 OA
ENDBRANCH  11  18
BRANCH  13  19
ATOM     19  O   UNL     1       3.456   3.769  19.872  0.00  0.00    +0.000 OA
BRANCH  19  20
ATOM     20  C   UNL     1       2.777   2.533  20.175  0.00  0.00    +0.000 C 
BRANCH  20  21
ATOM     21  C   UNL     1       2.018   1.922  18.975  0.00  0.00    +0.000 C 
ATOM     22  C   UNL     1       0.598   2.466  18.845  0.00  0.00    +0.000 C 
ATOM     23  C   UNL     1       2.739   2.158  17.631  0.00  0.00    +0.000 C 
ENDBRANCH  20  21
ENDBRANCH  19  20
ENDBRANCH  13  19
ENDBRANCH   1  16
BRANCH   7  24
ATOM     24  S   UNL     1      -1.449  14.190  20.703  0.00  0.00    +0.000 S 
ATOM     25  O   UNL     1      -2.866  14.493  20.772  0.00  0.00    +0.000 OA
ATOM     26  O   UNL     1      -0.509  14.851  21.587  0.00  0.00    +0.000 OA
BRANCH  24  27
ATOM     27  N   UNL     1      -0.955  14.552  19.112  0.00  0.00    +0.000 N 
ATOM     28  C   UNL     1       0.404  14.801  18.871  0.00  0.00    +0.000 A 
ATOM     29  C   UNL     1       1.292  13.801  18.598  0.00  0.00    +0.000 A 
ATOM     30  C   UNL     1       2.570  14.237  18.286  0.00  0.00    +0.000 A 
ATOM     31  N   UNL     1       2.923  15.538  18.284  0.00  0.00    +0.000 NA
ATOM     32  C   UNL     1       1.956  16.411  18.602  0.00  0.00    +0.000 A 
ATOM     33  N   UNL     1       0.681  16.109  18.876  0.00  0.00    +0.000 NA
ATOM     34  H   UNL     1      -1.548  15.285  18.738  0.00  0.00    +0.000 HD
ENDBRANCH  24  27
ENDBRANCH   7  24
TORSDOF 7
ENDMDL
MODEL 3
REMARK VINA RESULT:      -7.6      2.918      3.926
REMARK  Name = 
REMARK  10 active torsions:
REMARK  status: ('A' for Active; 'I' for Inactive)
REMARK    1  A    between atoms: C_1  and  O_2
REMARK    2  A    between atoms: O_2  and  C_3
REMARK    3  A    between atoms: C_5  and  O_6
REMARK    4  A    between atoms: O_6  and  C_7
REMARK    5  A    between atoms: C_7  and  C_8
REMARK    6  A    between atoms: C_8  and  C_9
REMARK    7  A    between atoms: C_8  and  C_10
REMARK    8  A    between atoms: C_13  and  C_14
REMARK    9  A    between atoms: C_20  and  S_21
REMARK   10  A    between atoms: S_21  and  N_24
REMARK                            x       y       z     vdW  Elec       q    Type
REMARK                         _______ _______ _______ _____ _____    ______ ____
ROOT
ATOM      1  C   UNL     1       0.219   9.390  20.354  0.00  0.00    +0.000 A 
ATOM      2  N   UNL     1      -0.491   8.517  21.095  0.00  0.00    +0.000 NA
ATOM      3  C   UNL     1      -0.391   8.659  22.431  0.00  0.00    +0.000 A 
ATOM      4  C   UNL     1       0.272   9.735  22.943  0.00  0.00    +0.000 A 
ATOM      5  C   UNL     1      -0.168  10.788  22.213  0.00  0.00    +0.000 A 
ATOM      6  C   UNL     1      -1.186  11.497  22.862  0.00  0.00    +0.000 A 
ATOM      7  C   UNL     1      -2.086  12.249  22.137  0.00  0.00    +0.000 A 
ATOM      8  C   UNL     1      -1.744  12.570  20.816  0.00  0.00    +0.000 A 
ATOM      9  C   UNL     1      -0.697  11.845  20.172  0.00  0.00    +0.000 A 
ATOM     10  C   UNL     1       0.013  10.742  20.807  0.00  0.00    +0.000 A 
ENDROOT
BRANCH   1  16
ATOM     11  C   UNL     1       1.875   7.206  20.055  0.00  0.00    +0.000 A 
ATOM     12  C   UNL     1       2.834   6.534  19.193  0.00  0.00    +0.000 A 
ATOM     13  C   UNL     1       3.359   7.069  18.003  0.00  0.00    +0.000 A 
ATOM     14  C   UNL     1       2.847   8.283  17.621  0.00  0.00    +0.000 A 
ATOM     15  C   UNL     1       1.928   8.955  18.481  0.00  0.00    +0.000 A 
ATOM     16  C   UNL     1       1.382   8.486  19.751  0.00  0.00    +0.000 A 
BRANCH  11  18
ATOM     17  C   UNL     1       1.509   4.997  20.754  0.00  0.00    +0.000 C 
ATOM     18  O   UNL     1       1.475   6.375  21.067  0.00  0.00    +0.000 OA
ENDBRANCH  11  18
BRANCH  13  19
ATOM     19  O   UNL     1       4.287   6.309  17.348  0.00  0.00    +0.000 OA
BRANCH  19  20
ATOM     20  C   UNL     1       5.398   6.853  16.604  0.00  0.00    +0.000 C 
BRANCH  20  21
ATOM     21  C   UNL     1       6.783   6.442  17.154  0.00  0.00    +0.000 C 
ATOM     22  C   UNL     1       7.618   7.645  17.588  0.00  0.00    +0.000 C 
ATOM     23  C   UNL     1       6.687   5.477  18.353  0.00  0.00    +0.000 C 
ENDBRANCH  20  21
ENDBRANCH  19  20
ENDBRANCH  13  19
ENDBRANCH   1  16
BRANCH   7  24
ATOM     24  S   UNL     1      -3.672  12.587  22.897  0.00  0.00    +0.000 S 
ATOM     25  O   UNL     1      -4.703  12.382  21.898  0.00  0.00    +0.000 OA
ATOM     26  O   UNL     1      -3.716  11.875  24.159  0.00  0.00    +0.000 OA
BRANCH  24  27
ATOM     27  N   UNL     1      -3.693  14.248  23.278  0.00  0.00    +0.000 N 
ATOM     28  C   UNL     1      -2.572  14.806  23.912  0.00  0.00    +0.000 A 
ATOM     29  C   UNL     1      -1.502  15.287  23.215  0.00  0.00    +0.000 A 
ATOM     30  C   UNL     1      -0.532  15.892  23.997  0.00  0.00    +0.000 A 
ATOM     31  N   UNL     1      -0.616  15.974  25.339  0.00  0.00    +0.000 NA
ATOM     32  C   UNL     1      -1.709  15.432  25.896  0.00  0.00    +0.000 A 
ATOM     33  N   UNL     1      -2.727  14.863  25.239  0.00  0.00    +0.000 NA
ATOM     34  H   UNL     1      -4.554  14.468  23.765  0.00  0.00    +0.000 HD
ENDBRANCH  24  27
ENDBRANCH   7  24
TORSDOF 7
ENDMDL
MODEL 4
REMARK VINA RESULT:      -7.5      2.241      3.099
REMARK  Name = 
REMARK  10 active torsions:
REMARK  status: ('A' for Active; 'I' for Inactive)
REMARK    1  A    between atoms: C_1  and  O_2
REMARK    2  A    between atoms: O_2  and  C_3
REMARK    3  A    between atoms: C_5  and  O_6
REMARK    4  A    between atoms: O_6  and  C_7
REMARK    5  A    between atoms: C_7  and  C_8
REMARK    6  A    between atoms: C_8  and  C_9
REMARK    7  A    between atoms: C_8  and  C_10
REMARK    8  A    between atoms: C_13  and  C_14
REMARK    9  A    between atoms: C_20  and  S_21
REMARK   10  A    between atoms: S_21  and  N_24
REMARK                            x       y       z     vdW  Elec       q    Type
REMARK                         _______ _______ _______ _____ _____    ______ ____
ROOT
ATOM      1  C   UNL     1       0.510   9.260  19.563  0.00  0.00    +0.000 A 
ATOM      2  N   UNL     1       0.404   9.151  20.903  0.00  0.00    +0.000 NA
ATOM      3  C   UNL     1       0.777  10.233  21.614  0.00  0.00    +0.000 A 
ATOM      4  C   UNL     1       1.082  11.391  20.962  0.00  0.00    +0.000 A 
ATOM      5  C   UNL     1       0.101  11.533  20.039  0.00  0.00    +0.000 A 
ATOM      6  C   UNL     1      -0.911  12.402  20.466  0.00  0.00    +0.000 A 
ATOM      7  C   UNL     1      -2.183  12.306  19.943  0.00  0.00    +0.000 A 
ATOM      8  C   UNL     1      -2.338  11.586  18.751  0.00  0.00    +0.000 A 
ATOM      9  C   UNL     1      -1.294  10.712  18.324  0.00  0.00    +0.000 A 
ATOM     10  C   UNL     1      -0.078  10.489  19.096  0.00  0.00    +0.000 A 
ENDROOT
BRANCH   1  16
ATOM     11  C   UNL     1       2.184   7.076  19.735  0.00  0.00    +0.000 A 
ATOM     12  C   UNL     1       3.240   6.318  19.086  0.00  0.00    +0.000 A 
ATOM     13  C   UNL     1       3.912   6.715  17.916  0.00  0.00    +0.000 A 
ATOM     14  C   UNL     1       3.456   7.868  17.331  0.00  0.00    +0.000 A 
ATOM     15  C   UNL     1       2.438   8.626  17.983  0.00  0.00    +0.000 A 
ATOM     16  C   UNL     1       1.736   8.305  19.222  0.00  0.00    +0.000 A 
BRANCH  11  18
ATOM     17  C   UNL     1       1.590   4.969  20.578  0.00  0.00    +0.000 C 
ATOM     18  O   UNL     1       1.657   6.366  20.782  0.00  0.00    +0.000 OA
ENDBRANCH  11  18
BRANCH  13  19
ATOM     19  O   UNL     1       4.913   5.894  17.476  0.00  0.00    +0.000 OA
BRANCH  19  20
ATOM     20  C   UNL     1       5.978   6.315  16.598  0.00  0.00    +0.000 C 
BRANCH  20  21
ATOM     21  C   UNL     1       7.326   6.553  17.316  0.00  0.00    +0.000 C 
ATOM     22  C   UNL     1       7.600   8.035  17.565  0.00  0.00    +0.000 C 
ATOM     23  C   UNL     1       7.419   5.821  18.670  0.00  0.00    +0.000 C 
ENDBRANCH  20  21
ENDBRANCH  19  20
ENDBRANCH  13  19
ENDBRANCH   1  16
BRANCH   7  24
ATOM     24  S   UNL     1      -3.527  12.957  20.932  0.00  0.00    +0.000 S 
ATOM     25  O   UNL     1      -4.691  13.090  20.077  0.00  0.00    +0.000 OA
ATOM     26  O   UNL     1      -3.593  12.179  22.153  0.00  0.00    +0.000 OA
BRANCH  24  27
ATOM     27  N   UNL     1      -3.081  14.538  21.389  0.00  0.00    +0.000 N 
ATOM     28  C   UNL     1      -2.793  14.791  22.738  0.00  0.00    +0.000 A 
ATOM     29  C   UNL     1      -1.547  14.611  23.265  0.00  0.00    +0.000 A 
ATOM     30  C   UNL     1      -1.420  15.006  24.588  0.00  0.00    +0.000 A 
ATOM     31  N   UNL     1      -2.446  15.497  25.309  0.00  0.00    +0.000 NA
ATOM     32  C   UNL     1      -3.623  15.590  24.673  0.00  0.00    +0.000 A 
ATOM     33  N   UNL     1      -3.852  15.282  23.391  0.00  0.00    +0.000 NA
ATOM     34  H   UNL     1      -3.756  15.195  21.014  0.00  0.00    +0.000 HD
ENDBRANCH  24  27
ENDBRANCH   7  24
TORSDOF 7
ENDMDL
MODEL 5
REMARK VINA RESULT:      -7.5      2.550      3.302
REMARK  Name = 
REMARK  10 active torsions:
REMARK  status: ('A' for Active; 'I' for Inactive)
REMARK    1  A    between atoms: C_1  and  O_2
REMARK    2  A    between atoms: O_2  and  C_3
REMARK    3  A    between atoms: C_5  and  O_6
REMARK    4  A    between atoms: O_6  and  C_7
REMARK    5  A    between atoms: C_7  and  C_8
REMARK    6  A    between atoms: C_8  and  C_9
REMARK    7  A    between atoms: C_8  and  C_10
REMARK    8  A    between atoms: C_13  and  C_14
REMARK    9  A    between atoms: C_20  and  S_21
REMARK   10  A    between atoms: S_21  and  N_24
REMARK                            x       y       z     vdW  Elec       q    Type
REMARK                         _______ _______ _______ _____ _____    ______ ____
ROOT
ATOM      1  C   UNL     1       1.554   8.608  20.197  0.00  0.00    +0.000 A 
ATOM      2  N   UNL     1       2.045   9.589  19.414  0.00  0.00    +0.000 NA
ATOM      3  C   UNL     1       1.155  10.201  18.608  0.00  0.00    +0.000 A 
ATOM      4  C   UNL     1      -0.172   9.915  18.736  0.00  0.00    +0.000 A 
ATOM      5  C   UNL     1      -0.398   9.924  20.071  0.00  0.00    +0.000 A 
ATOM      6  C   UNL     1      -0.934  11.140  20.513  0.00  0.00    +0.000 A 
ATOM      7  C   UNL     1      -0.776  11.539  21.823  0.00  0.00    +0.000 A 
ATOM      8  C   UNL     1      -0.398  10.564  22.755  0.00  0.00    +0.000 A 
ATOM      9  C   UNL     1       0.138   9.326  22.289  0.00  0.00    +0.000 A 
ATOM     10  C   UNL     1       0.360   9.037  20.878  0.00  0.00    +0.000 A 
ENDROOT
BRANCH   1  16
ATOM     11  C   UNL     1       1.993   5.916  19.787  0.00  0.00    +0.000 A 
ATOM     12  C   UNL     1       2.530   4.911  18.886  0.00  0.00    +0.000 A 
ATOM     13  C   UNL     1       3.253   5.186  17.712  0.00  0.00    +0.000 A 
ATOM     14  C   UNL     1       3.373   6.513  17.385  0.00  0.00    +0.000 A 
ATOM     15  C   UNL     1       2.871   7.500  18.285  0.00  0.00    +0.000 A 
ATOM     16  C   UNL     1       2.161   7.290  19.542  0.00  0.00    +0.000 A 
BRANCH  11  18
ATOM     17  C   UNL     1       1.081   3.930  20.639  0.00  0.00    +0.000 C 
ATOM     18  O   UNL     1       1.243   5.329  20.771  0.00  0.00    +0.000 OA
ENDBRANCH  11  18
BRANCH  13  19
ATOM     19  O   UNL     1       3.721   4.108  17.013  0.00  0.00    +0.000 OA
BRANCH  19  20
ATOM     20  C   UNL     1       5.118   3.856  16.753  0.00  0.00    +0.000 C 
BRANCH  20  21
ATOM     21  C   UNL     1       5.719   4.745  15.640  0.00  0.00    +0.000 C 
ATOM     22  C   UNL     1       6.908   5.569  16.131  0.00  0.00    +0.000 C 
ATOM     23  C   UNL     1       6.183   3.932  14.413  0.00  0.00    +0.000 C 
ENDBRANCH  20  21
ENDBRANCH  19  20
ENDBRANCH  13  19
ENDBRANCH   1  16
BRANCH   7  24
ATOM     24  S   UNL     1      -0.896  13.294  22.164  0.00  0.00    +0.000 S 
ATOM     25  O   UNL     1       0.446  13.805  22.372  0.00  0.00    +0.000 OA
ATOM     26  O   UNL     1      -1.760  13.880  21.159  0.00  0.00    +0.000 OA
BRANCH  24  27
ATOM     27  N   UNL     1      -1.708  13.452  23.654  0.00  0.00    +0.000 N 
ATOM     28  C   UNL     1      -3.095  13.662  23.644  0.00  0.00    +0.000 A 
ATOM     29  C   UNL     1      -3.989  12.631  23.609  0.00  0.00    +0.000 A 
ATOM     30  C   UNL     1      -5.316  13.019  23.706  0.00  0.00    +0.000 A 
ATOM     31  N   UNL     1      -5.701  14.307  23.795  0.00  0.00    +0.000 NA
ATOM     32  C   UNL     1      -4.717  15.218  23.788  0.00  0.00    +0.000 A 
ATOM     33  N   UNL     1      -3.404  14.958  23.742  0.00  0.00    +0.000 NA
ATOM     34  H   UNL     1      -1.224  14.134  24.227  0.00  0.00    +0.000 HD
ENDBRANCH  24  27
ENDBRANCH   7  24
TORSDOF 7
ENDMDL
MODEL 6
REMARK VINA RESULT:      -7.5      2.315      3.067
REMARK  Name = 
REMARK  10 active torsions:
REMARK  status: ('A' for Active; 'I' for Inactive)
REMARK    1  A    between atoms: C_1  and  O_2
REMARK    2  A    between atoms: O_2  and  C_3
REMARK    3  A    between atoms: C_5  and  O_6
REMARK    4  A    between atoms: O_6  and  C_7
REMARK    5  A    between atoms: C_7  and  C_8
REMARK    6  A    between atoms: C_8  and  C_9
REMARK    7  A    between atoms: C_8  and  C_10
REMARK    8  A    between atoms: C_13  and  C_14
REMARK    9  A    between atoms: C_20  and  S_21
REMARK   10  A    between atoms: S_21  and  N_24
REMARK                            x       y       z     vdW  Elec       q    Type
REMARK                         _______ _______ _______ _____ _____    ______ ____
ROOT
ATOM      1  C   UNL     1       0.546   9.201  19.521  0.00  0.00    +0.000 A 
ATOM      2  N   UNL     1       0.592   9.285  20.865  0.00  0.00    +0.000 NA
ATOM      3  C   UNL     1       1.014  10.462  21.369  0.00  0.00    +0.000 A 
ATOM      4  C   UNL     1       1.214  11.517  20.529  0.00  0.00    +0.000 A 
ATOM      5  C   UNL     1       0.133  11.515  19.713  0.00  0.00    +0.000 A 
ATOM      6  C   UNL     1      -0.847  12.426  20.124  0.00  0.00    +0.000 A 
ATOM      7  C   UNL     1      -2.166  12.243  19.768  0.00  0.00    +0.000 A 
ATOM      8  C   UNL     1      -2.434  11.357  18.715  0.00  0.00    +0.000 A 
ATOM      9  C   UNL     1      -1.422  10.441  18.301  0.00  0.00    +0.000 A 
ATOM     10  C   UNL     1      -0.122  10.344  18.954  0.00  0.00    +0.000 A 
ENDROOT
BRANCH   1  16
ATOM     11  C   UNL     1       2.157   6.969  19.680  0.00  0.00    +0.000 A 
ATOM     12  C   UNL     1       3.203   6.195  19.034  0.00  0.00    +0.000 A 
ATOM     13  C   UNL     1       3.904   6.593  17.882  0.00  0.00    +0.000 A 
ATOM     14  C   UNL     1       3.488   7.768  17.310  0.00  0.00    +0.000 A 
ATOM     15  C   UNL     1       2.481   8.542  17.960  0.00  0.00    +0.000 A 
ATOM     16  C   UNL     1       1.751   8.219  19.182  0.00  0.00    +0.000 A 
BRANCH  11  18
ATOM     17  C   UNL     1       2.074   4.933  20.841  0.00  0.00    +0.000 C 
ATOM     18  O   UNL     1       1.595   6.256  20.706  0.00  0.00    +0.000 OA
ENDBRANCH  11  18
BRANCH  13  19
ATOM     19  O   UNL     1       4.889   5.752  17.443  0.00  0.00    +0.000 OA
BRANCH  19  20
ATOM     20  C   UNL     1       5.827   5.082  18.312  0.00  0.00    +0.000 C 
BRANCH  20  21
ATOM     21  C   UNL     1       7.291   5.543  18.131  0.00  0.00    +0.000 C 
ATOM     22  C   UNL     1       7.399   6.842  17.337  0.00  0.00    +0.000 C 
ATOM     23  C   UNL     1       8.022   5.748  19.475  0.00  0.00    +0.000 C 
ENDBRANCH  20  21
ENDBRANCH  19  20
ENDBRANCH  13  19
ENDBRANCH   1  16
BRANCH   7  24
ATOM     24  S   UNL     1      -3.409  13.016  20.800  0.00  0.00    +0.000 S 
ATOM     25  O   UNL     1      -3.252  14.455  20.692  0.00  0.00    +0.000 OA
ATOM     26  O   UNL     1      -4.681  12.389  20.504  0.00  0.00    +0.000 OA
BRANCH  24  27
ATOM     27  N   UNL     1      -3.032  12.611  22.413  0.00  0.00    +0.000 N 
ATOM     28  C   UNL     1      -2.803  13.647  23.330  0.00  0.00    +0.000 A 
ATOM     29  C   UNL     1      -3.813  14.238  24.032  0.00  0.00    +0.000 A 
ATOM     30  C   UNL     1      -3.395  15.173  24.965  0.00  0.00    +0.000 A 
ATOM     31  N   UNL     1      -2.100  15.500  25.147  0.00  0.00    +0.000 NA
ATOM     32  C   UNL     1      -1.216  14.863  24.367  0.00  0.00    +0.000 A 
ATOM     33  N   UNL     1      -1.500  13.914  23.466  0.00  0.00    +0.000 NA
ATOM     34  H   UNL     1      -2.284  11.926  22.418  0.00  0.00    +0.000 HD
ENDBRANCH  24  27
ENDBRANCH   7  24
TORSDOF 7
ENDMDL
MODEL 7
REMARK VINA RESULT:      -7.5      3.029      4.587
REMARK  Name = 
REMARK  10 active torsions:
REMARK  status: ('A' for Active; 'I' for Inactive)
REMARK    1  A    between atoms: C_1  and  O_2
REMARK    2  A    between atoms: O_2  and  C_3
REMARK    3  A    between atoms: C_5  and  O_6
REMARK    4  A    between atoms: O_6  and  C_7
REMARK    5  A    between atoms: C_7  and  C_8
REMARK    6  A    between atoms: C_8  and  C_9
REMARK    7  A    between atoms: C_8  and  C_10
REMARK    8  A    between atoms: C_13  and  C_14
REMARK    9  A    between atoms: C_20  and  S_21
REMARK   10  A    between atoms: S_21  and  N_24
REMARK                            x       y       z     vdW  Elec       q    Type
REMARK                         _______ _______ _______ _____ _____    ______ ____
ROOT
ATOM      1  C   UNL     1       1.523   9.095  19.633  0.00  0.00    +0.000 A 
ATOM      2  N   UNL     1       1.731   9.881  18.558  0.00  0.00    +0.000 NA
ATOM      3  C   UNL     1       0.662  10.092  17.765  0.00  0.00    +0.000 A 
ATOM      4  C   UNL     1      -0.564   9.644  18.159  0.00  0.00    +0.000 A 
ATOM      5  C   UNL     1      -0.651   9.992  19.466  0.00  0.00    +0.000 A 
ATOM      6  C   UNL     1      -1.368  11.180  19.654  0.00  0.00    +0.000 A 
ATOM      7  C   UNL     1      -1.159  11.952  20.778  0.00  0.00    +0.000 A 
ATOM      8  C   UNL     1      -0.506  11.351  21.862  0.00  0.00    +0.000 A 
ATOM      9  C   UNL     1       0.211  10.135  21.656  0.00  0.00    +0.000 A 
ATOM     10  C   UNL     1       0.342   9.500  20.351  0.00  0.00    +0.000 A 
ENDROOT
BRANCH   1  16
ATOM     11  C   UNL     1       2.242   6.434  19.714  0.00  0.00    +0.000 A 
ATOM     12  C   UNL     1       2.950   5.360  19.038  0.00  0.00    +0.000 A 
ATOM     13  C   UNL     1       3.751   5.520  17.894  0.00  0.00    +0.000 A 
ATOM     14  C   UNL     1       3.780   6.783  17.360  0.00  0.00    +0.000 A 
ATOM     15  C   UNL     1       3.108   7.842  18.040  0.00  0.00    +0.000 A 
ATOM     16  C   UNL     1       2.305   7.761  19.256  0.00  0.00    +0.000 A 
BRANCH  11  18
ATOM     17  C   UNL     1       1.387   4.523  20.773  0.00  0.00    +0.000 C 
ATOM     18  O   UNL     1       1.460   5.934  20.721  0.00  0.00    +0.000 OA
ENDBRANCH  11  18
BRANCH  13  19
ATOM     19  O   UNL     1       4.379   4.400  17.424  0.00  0.00    +0.000 OA
BRANCH  19  20
ATOM     20  C   UNL     1       4.608   4.127  16.025  0.00  0.00    +0.000 C 
BRANCH  20  21
ATOM     21  C   UNL     1       5.938   4.700  15.484  0.00  0.00    +0.000 C 
ATOM     22  C   UNL     1       7.093   4.520  16.466  0.00  0.00    +0.000 C 
ATOM     23  C   UNL     1       6.357   4.068  14.140  0.00  0.00    +0.000 C 
ENDBRANCH  20  21
ENDBRANCH  19  20
ENDBRANCH  13  19
ENDBRANCH   1  16
BRANCH   7  24
ATOM     24  S   UNL     1      -1.584  13.689  20.668  0.00  0.00    +0.000 S 
ATOM     25  O   UNL     1      -3.030  13.802  20.711  0.00  0.00    +0.000 OA
ATOM     26  O   UNL     1      -0.760  14.405  21.621  0.00  0.00    +0.000 OA
BRANCH  24  27
ATOM     27  N   UNL     1      -1.105  14.217  19.120  0.00  0.00    +0.000 N 
ATOM     28  C   UNL     1       0.234  14.585  18.920  0.00  0.00    +0.000 A 
ATOM     29  C   UNL     1       1.197  13.679  18.579  0.00  0.00    +0.000 A 
ATOM     30  C   UNL     1       2.442  14.233  18.324  0.00  0.00    +0.000 A 
ATOM     31  N   UNL     1       2.695  15.552  18.433  0.00  0.00    +0.000 NA
ATOM     32  C   UNL     1       1.663  16.322  18.807  0.00  0.00    +0.000 A 
ATOM     33  N   UNL     1       0.412  15.904  19.036  0.00  0.00    +0.000 NA
ATOM     34  H   UNL     1      -1.748  14.932  18.798  0.00  0.00    +0.000 HD
ENDBRANCH  24  27
ENDBRANCH   7  24
TORSDOF 7
ENDMDL
MODEL 8
REMARK VINA RESULT:      -7.5      1.174      1.638
REMARK  Name = 
REMARK  10 active torsions:
REMARK  status: ('A' for Active; 'I' for Inactive)
REMARK    1  A    between atoms: C_1  and  O_2
REMARK    2  A    between atoms: O_2  and  C_3
REMARK    3  A    between atoms: C_5  and  O_6
REMARK    4  A    between atoms: O_6  and  C_7
REMARK    5  A    between atoms: C_7  and  C_8
REMARK    6  A    between atoms: C_8  and  C_9
REMARK    7  A    between atoms: C_8  and  C_10
REMARK    8  A    between atoms: C_13  and  C_14
REMARK    9  A    between atoms: C_20  and  S_21
REMARK   10  A    between atoms: S_21  and  N_24
REMARK                            x       y       z     vdW  Elec       q    Type
REMARK                         _______ _______ _______ _____ _____    ______ ____
ROOT
ATOM      1  C   UNL     1       0.395   9.540  19.550  0.00  0.00    +0.000 A 
ATOM      2  N   UNL     1       0.448   9.683  20.890  0.00  0.00    +0.000 NA
ATOM      3  C   UNL     1       0.862  10.883  21.340  0.00  0.00    +0.000 A 
ATOM      4  C   UNL     1       1.050  11.902  20.454  0.00  0.00    +0.000 A 
ATOM      5  C   UNL     1      -0.034  11.857  19.643  0.00  0.00    +0.000 A 
ATOM      6  C   UNL     1      -1.019  12.778  20.020  0.00  0.00    +0.000 A 
ATOM      7  C   UNL     1      -2.339  12.569  19.678  0.00  0.00    +0.000 A 
ATOM      8  C   UNL     1      -2.605  11.637  18.666  0.00  0.00    +0.000 A 
ATOM      9  C   UNL     1      -1.587  10.711  18.287  0.00  0.00    +0.000 A 
ATOM     10  C   UNL     1      -0.284  10.652  18.937  0.00  0.00    +0.000 A 
ENDROOT
BRANCH   1  16
ATOM     11  C   UNL     1       2.024   7.329  19.798  0.00  0.00    +0.000 A 
ATOM     12  C   UNL     1       3.073   6.535  19.181  0.00  0.00    +0.000 A 
ATOM     13  C   UNL     1       3.766   6.889  18.009  0.00  0.00    +0.000 A 
ATOM     14  C   UNL     1       3.340   8.035  17.390  0.00  0.00    +0.000 A 
ATOM     15  C   UNL     1       2.330   8.829  18.011  0.00  0.00    +0.000 A 
ATOM     16  C   UNL     1       1.607   8.553  19.248  0.00  0.00    +0.000 A 
BRANCH  11  18
ATOM     17  C   UNL     1       1.607   5.250  20.801  0.00  0.00    +0.000 C 
ATOM     18  O   UNL     1       1.472   6.656  20.855  0.00  0.00    +0.000 OA
ENDBRANCH  11  18
BRANCH  13  19
ATOM     19  O   UNL     1       4.756   6.037  17.603  0.00  0.00    +0.000 OA
BRANCH  19  20
ATOM     20  C   UNL     1       4.914   4.688  18.091  0.00  0.00    +0.000 C 
BRANCH  20  21
ATOM     21  C   UNL     1       4.470   3.601  17.086  0.00  0.00    +0.000 C 
ATOM     22  C   UNL     1       2.963   3.354  17.122  0.00  0.00    +0.000 C 
ATOM     23  C   UNL     1       4.859   3.938  15.632  0.00  0.00    +0.000 C 
ENDBRANCH  20  21
ENDBRANCH  19  20
ENDBRANCH  13  19
ENDBRANCH   1  16
BRANCH   7  24
ATOM     24  S   UNL     1      -3.582  13.378  20.682  0.00  0.00    +0.000 S 
ATOM     25  O   UNL     1      -3.786  12.579  21.876  0.00  0.00    +0.000 OA
ATOM     26  O   UNL     1      -3.224  14.778  20.784  0.00  0.00    +0.000 OA
BRANCH  24  27
ATOM     27  N   UNL     1      -5.043  13.313  19.805  0.00  0.00    +0.000 N 
ATOM     28  C   UNL     1      -6.026  12.395  20.205  0.00  0.00    +0.000 A 
ATOM     29  C   UNL     1      -6.960  12.694  21.155  0.00  0.00    +0.000 A 
ATOM     30  C   UNL     1      -7.914  11.708  21.352  0.00  0.00    +0.000 A 
ATOM     31  N   UNL     1      -7.907  10.536  20.688  0.00  0.00    +0.000 NA
ATOM     32  C   UNL     1      -6.913  10.364  19.805  0.00  0.00    +0.000 A 
ATOM     33  N   UNL     1      -5.966  11.261  19.501  0.00  0.00    +0.000 NA
ATOM     34  H   UNL     1      -4.834  13.239  18.815  0.00  0.00    +0.000 HD
ENDBRANCH  24  27
ENDBRANCH   7  24
TORSDOF 7
ENDMDL
MODEL 9
REMARK VINA RESULT:      -7.4      2.389      3.204
REMARK  Name = 
REMARK  10 active torsions:
REMARK  status: ('A' for Active; 'I' for Inactive)
REMARK    1  A    between atoms: C_1  and  O_2
REMARK    2  A    between atoms: O_2  and  C_3
REMARK    3  A    between atoms: C_5  and  O_6
REMARK    4  A    between atoms: O_6  and  C_7
REMARK    5  A    between atoms: C_7  and  C_8
REMARK    6  A    between atoms: C_8  and  C_9
REMARK    7  A    between atoms: C_8  and  C_10
REMARK    8  A    between atoms: C_13  and  C_14
REMARK    9  A    between atoms: C_20  and  S_21
REMARK   10  A    between atoms: S_21  and  N_24
REMARK                            x       y       z     vdW  Elec       q    Type
REMARK                         _______ _______ _______ _____ _____    ______ ____
ROOT
ATOM      1  C   UNL     1       0.638   9.060  19.518  0.00  0.00    +0.000 A 
ATOM      2  N   UNL     1       0.548   9.073  20.863  0.00  0.00    +0.000 NA
ATOM      3  C   UNL     1       0.970  10.199  21.472  0.00  0.00    +0.000 A 
ATOM      4  C   UNL     1       1.308  11.283  20.716  0.00  0.00    +0.000 A 
ATOM      5  C   UNL     1       0.319  11.380  19.795  0.00  0.00    +0.000 A 
ATOM      6  C   UNL     1      -0.654  12.321  20.155  0.00  0.00    +0.000 A 
ATOM      7  C   UNL     1      -1.936  12.226  19.656  0.00  0.00    +0.000 A 
ATOM      8  C   UNL     1      -2.134  11.411  18.534  0.00  0.00    +0.000 A 
ATOM      9  C   UNL     1      -1.130  10.464  18.175  0.00  0.00    +0.000 A 
ATOM     10  C   UNL     1       0.088  10.264  18.950  0.00  0.00    +0.000 A 
ENDROOT
BRANCH   1  16
ATOM     11  C   UNL     1       2.186   6.797  19.812  0.00  0.00    +0.000 A 
ATOM     12  C   UNL     1       3.224   5.968  19.224  0.00  0.00    +0.000 A 
ATOM     13  C   UNL     1       3.957   6.294  18.070  0.00  0.00    +0.000 A 
ATOM     14  C   UNL     1       3.584   7.452  17.437  0.00  0.00    +0.000 A 
ATOM     15  C   UNL     1       2.586   8.281  18.030  0.00  0.00    +0.000 A 
ATOM     16  C   UNL     1       1.823   8.033  19.249  0.00  0.00    +0.000 A 
BRANCH  11  18
ATOM     17  C   UNL     1       1.441   4.751  20.684  0.00  0.00    +0.000 C 
ATOM     18  O   UNL     1       1.586   6.147  20.857  0.00  0.00    +0.000 OA
ENDBRANCH  11  18
BRANCH  13  19
ATOM     19  O   UNL     1       4.929   5.410  17.690  0.00  0.00    +0.000 OA
BRANCH  19  20
ATOM     20  C   UNL     1       4.854   4.583  16.510  0.00  0.00    +0.000 C 
BRANCH  20  21
ATOM     21  C   UNL     1       5.728   5.082  15.337  0.00  0.00    +0.000 C 
ATOM     22  C   UNL     1       7.191   5.261  15.736  0.00  0.00    +0.000 C 
ATOM     23  C   UNL     1       5.684   4.138  14.117  0.00  0.00    +0.000 C 
ENDBRANCH  20  21
ENDBRANCH  19  20
ENDBRANCH  13  19
ENDBRANCH   1  16
BRANCH   7  24
ATOM     24  S   UNL     1      -3.241  13.012  20.598  0.00  0.00    +0.000 S 
ATOM     25  O   UNL     1      -3.034  14.447  20.544  0.00  0.00    +0.000 OA
ATOM     26  O   UNL     1      -4.500  12.432  20.176  0.00  0.00    +0.000 OA
BRANCH  24  27
ATOM     27  N   UNL     1      -3.017  12.556  22.226  0.00  0.00    +0.000 N 
ATOM     28  C   UNL     1      -2.845  13.562  23.188  0.00  0.00    +0.000 A 
ATOM     29  C   UNL     1      -3.900  14.161  23.815  0.00  0.00    +0.000 A 
ATOM     30  C   UNL     1      -3.543  15.060  24.807  0.00  0.00    +0.000 A 
ATOM     31  N   UNL     1      -2.262  15.348  25.111  0.00  0.00    +0.000 NA
ATOM     32  C   UNL     1      -1.327  14.708  24.394  0.00  0.00    +0.000 A 
ATOM     33  N   UNL     1      -1.554  13.791  23.445  0.00  0.00    +0.000 NA
ATOM     34  H   UNL     1      -2.290  11.852  22.277  0.00  0.00    +0.000 HD
ENDBRANCH  24  27
ENDBRANCH   7  24
TORSDOF 7
ENDMDL
