MODEL 1
REMARK VINA RESULT:      -7.3      0.000      0.000
REMARK  Name = 
REMARK  7 active torsions:
REMARK  status: ('A' for Active; 'I' for Inactive)
REMARK    1  A    between atoms: C_1  and  N_2
REMARK    2  A    between atoms: N_2  and  C_3
REMARK    3  A    between atoms: N_2  and  S_14
REMARK    4  A    between atoms: C_3  and  C_4
REMARK    5  A    between atoms: N_6  and  C_7
REMARK    6  A    between atoms: C_7  and  C_8
REMARK    7  A    between atoms: S_14  and  C_17
REMARK                            x       y       z     vdW  Elec       q    Type
REMARK                         _______ _______ _______ _____ _____    ______ ____
ROOT
ATOM      1  C   UNL     1       1.075   2.822  18.925  0.00  0.00    +0.000 C 
ATOM      2  N   UNL     1       2.265   2.090  19.440  0.00  0.00    +0.000 NA
ENDROOT
BRANCH   2   3
ATOM      3  S   UNL     1       3.162   2.997  20.603  0.00  0.00    +0.000 S 
ATOM      4  O   UNL     1       2.601   2.730  21.911  0.00  0.00    +0.000 OA
ATOM      5  O   UNL     1       4.566   2.781  20.329  0.00  0.00    +0.000 OA
BRANCH   3   6
ATOM      6  C   UNL     1       2.760   4.685  20.208  0.00  0.00    +0.000 A 
ATOM      7  C   UNL     1       1.717   5.308  20.902  0.00  0.00    +0.000 A 
ATOM      8  C   UNL     1       1.396   6.637  20.622  0.00  0.00    +0.000 A 
ATOM      9  C   UNL     1       2.122   7.337  19.657  0.00  0.00    +0.000 A 
ATOM     10 BR   UNL     1       1.670   9.131  19.265  0.00  0.00    +0.000 Br
ATOM     11  C   UNL     1       3.179   6.724  18.980  0.00  0.00    +0.000 A 
ATOM     12  C   UNL     1       3.506   5.393  19.259  0.00  0.00    +0.000 A 
ENDBRANCH   3   6
ENDBRANCH   2   3
BRANCH   2  13
ATOM     13  C   UNL     1       3.157   1.627  18.316  0.00  0.00    +0.000 C 
BRANCH  13  14
ATOM     14  C   UNL     1       3.498   2.721  17.307  0.00  0.00    +0.000 C 
ATOM     15  O   UNL     1       2.647   3.247  16.597  0.00  0.00    +0.000 OA
ATOM     16  N   UNL     1       4.827   3.074  17.269  0.00  0.00    +0.000 N 
ATOM     17  H   UNL     1       5.458   2.654  17.942  0.00  0.00    +0.000 HD
BRANCH  16  18
ATOM     18  C   UNL     1       5.356   4.028  16.319  0.00  0.00    +0.000 C 
BRANCH  18  19
ATOM     19  C   UNL     1       6.240   5.072  16.956  0.00  0.00    +0.000 A 
ATOM     20  C   UNL     1       7.000   4.760  18.083  0.00  0.00    +0.000 A 
ATOM     21  C   UNL     1       7.772   5.756  18.671  0.00  0.00    +0.000 A 
ATOM     22  C   UNL     1       7.776   7.031  18.118  0.00  0.00    +0.000 A 
ATOM     23  C   UNL     1       7.009   7.254  16.986  0.00  0.00    +0.000 A 
ATOM     24  N   UNL     1       6.246   6.309  16.393  0.00  0.00    +0.000 NA
ENDBRANCH  18  19
ENDBRANCH  16  18
ENDBRANCH  13  14
ENDBRANCH   2  13
TORSDOF 6
ENDMDL
MODEL 2
REMARK VINA RESULT:      -7.2      3.217      6.466
REMARK  Name = 
REMARK  7 active torsions:
REMARK  status: ('A' for Active; 'I' for Inactive)
REMARK    1  A    between atoms: C_1  and  N_2
REMARK    2  A    between atoms: N_2  and  C_3
REMARK    3  A    between atoms: N_2  and  S_14
REMARK    4  A    between atoms: C_3  and  C_4
REMARK    5  A    between atoms: N_6  and  C_7
REMARK    6  A    between atoms: C_7  and  C_8
REMARK    7  A    between atoms: S_14  and  C_17
REMARK                            x       y       z     vdW  Elec       q    Type
REMARK                         _______ _______ _______ _____ _____    ______ ____
ROOT
ATOM      1  C   UNL     1       7.756   7.428  17.818  0.00  0.00    +0.000 C 
ATOM      2  N   UNL     1       6.547   6.585  18.030  0.00  0.00    +0.000 NA
ENDROOT
BRANCH   2   3
ATOM      3  S   UNL     1       6.884   4.893  17.958  0.00  0.00    +0.000 S 
ATOM      4  O   UNL     1       8.310   4.712  18.129  0.00  0.00    +0.000 OA
ATOM      5  O   UNL     1       5.933   4.227  18.820  0.00  0.00    +0.000 OA
BRANCH   3   6
ATOM      6  C   UNL     1       6.512   4.471  16.270  0.00  0.00    +0.000 A 
ATOM      7  C   UNL     1       5.348   3.742  16.000  0.00  0.00    +0.000 A 
ATOM      8  C   UNL     1       5.025   3.417  14.682  0.00  0.00    +0.000 A 
ATOM      9  C   UNL     1       5.862   3.825  13.642  0.00  0.00    +0.000 A 
ATOM     10 BR   UNL     1       5.433   3.363  11.860  0.00  0.00    +0.000 Br
ATOM     11  C   UNL     1       7.011   4.574  13.908  0.00  0.00    +0.000 A 
ATOM     12  C   UNL     1       7.337   4.905  15.226  0.00  0.00    +0.000 A 
ENDBRANCH   3   6
ENDBRANCH   2   3
BRANCH   2  13
ATOM     13  C   UNL     1       5.442   6.954  17.072  0.00  0.00    +0.000 C 
BRANCH  13  14
ATOM     14  C   UNL     1       4.062   7.030  17.720  0.00  0.00    +0.000 C 
ATOM     15  O   UNL     1       3.194   7.802  17.326  0.00  0.00    +0.000 OA
ATOM     16  N   UNL     1       3.869   6.159  18.767  0.00  0.00    +0.000 N 
ATOM     17  H   UNL     1       4.603   5.493  18.983  0.00  0.00    +0.000 HD
BRANCH  16  18
ATOM     18  C   UNL     1       2.659   6.145  19.560  0.00  0.00    +0.000 C 
BRANCH  18  19
ATOM     19  C   UNL     1       2.021   4.780  19.643  0.00  0.00    +0.000 A 
ATOM     20  C   UNL     1       1.714   4.074  18.480  0.00  0.00    +0.000 A 
ATOM     21  C   UNL     1       1.087   2.837  18.590  0.00  0.00    +0.000 A 
ATOM     22  C   UNL     1       0.793   2.331  19.851  0.00  0.00    +0.000 A 
ATOM     23  C   UNL     1       1.148   3.086  20.956  0.00  0.00    +0.000 A 
ATOM     24  N   UNL     1       1.755   4.292  20.883  0.00  0.00    +0.000 NA
ENDBRANCH  18  19
ENDBRANCH  16  18
ENDBRANCH  13  14
ENDBRANCH   2  13
TORSDOF 6
ENDMDL
MODEL 3
REMARK VINA RESULT:      -7.1      4.155      6.041
REMARK  Name = 
REMARK  7 active torsions:
REMARK  status: ('A' for Active; 'I' for Inactive)
REMARK    1  A    between atoms: C_1  and  N_2
REMARK    2  A    between atoms: N_2  and  C_3
REMARK    3  A    between atoms: N_2  and  S_14
REMARK    4  A    between atoms: C_3  and  C_4
REMARK    5  A    between atoms: N_6  and  C_7
REMARK    6  A    between atoms: C_7  and  C_8
REMARK    7  A    between atoms: S_14  and  C_17
REMARK                            x       y       z     vdW  Elec       q    Type
REMARK                         _______ _______ _______ _____ _____    ______ ____
ROOT
ATOM      1  C   UNL     1       7.392   4.840  16.745  0.00  0.00    +0.000 C 
ATOM      2  N   UNL     1       6.415   5.822  17.291  0.00  0.00    +0.000 NA
ENDROOT
BRANCH   2   3
ATOM      3  S   UNL     1       4.818   5.597  16.674  0.00  0.00    +0.000 S 
ATOM      4  O   UNL     1       4.213   6.902  16.509  0.00  0.00    +0.000 OA
ATOM      5  O   UNL     1       4.910   4.666  15.571  0.00  0.00    +0.000 OA
BRANCH   3   6
ATOM      6  C   UNL     1       3.966   4.802  18.018  0.00  0.00    +0.000 A 
ATOM      7  C   UNL     1       2.734   5.319  18.433  0.00  0.00    +0.000 A 
ATOM      8  C   UNL     1       2.038   4.701  19.473  0.00  0.00    +0.000 A 
ATOM      9  C   UNL     1       2.573   3.567  20.087  0.00  0.00    +0.000 A 
ATOM     10 BR   UNL     1       1.637   2.745  21.509  0.00  0.00    +0.000 Br
ATOM     11  C   UNL     1       3.791   3.036  19.658  0.00  0.00    +0.000 A 
ATOM     12  C   UNL     1       4.491   3.650  18.615  0.00  0.00    +0.000 A 
ENDBRANCH   3   6
ENDBRANCH   2   3
BRANCH   2  13
ATOM     13  C   UNL     1       6.879   7.241  17.075  0.00  0.00    +0.000 C 
BRANCH  13  14
ATOM     14  C   UNL     1       7.901   7.719  18.103  0.00  0.00    +0.000 C 
ATOM     15  O   UNL     1       8.429   6.958  18.908  0.00  0.00    +0.000 OA
ATOM     16  N   UNL     1       8.189   9.063  18.045  0.00  0.00    +0.000 N 
ATOM     17  H   UNL     1       7.777   9.614  17.300  0.00  0.00    +0.000 HD
BRANCH  16  18
ATOM     18  C   UNL     1       9.067   9.717  18.992  0.00  0.00    +0.000 C 
BRANCH  18  19
ATOM     19  C   UNL     1       9.614  11.029  18.486  0.00  0.00    +0.000 A 
ATOM     20  C   UNL     1       8.774  11.946  17.855  0.00  0.00    +0.000 A 
ATOM     21  C   UNL     1       9.317  13.128  17.363  0.00  0.00    +0.000 A 
ATOM     22  C   UNL     1      10.677  13.371  17.520  0.00  0.00    +0.000 A 
ATOM     23  C   UNL     1      11.438  12.418  18.175  0.00  0.00    +0.000 A 
ATOM     24  N   UNL     1      10.941  11.259  18.662  0.00  0.00    +0.000 NA
ENDBRANCH  18  19
ENDBRANCH  16  18
ENDBRANCH  13  14
ENDBRANCH   2  13
TORSDOF 6
ENDMDL
MODEL 4
REMARK VINA RESULT:      -7.1      2.295      3.145
REMARK  Name = 
REMARK  7 active torsions:
REMARK  status: ('A' for Active; 'I' for Inactive)
REMARK    1  A    between atoms: C_1  and  N_2
REMARK    2  A    between atoms: N_2  and  C_3
REMARK    3  A    between atoms: N_2  and  S_14
REMARK    4  A    between atoms: C_3  and  C_4
REMARK    5  A    between atoms: N_6  and  C_7
REMARK    6  A    between atoms: C_7  and  C_8
REMARK    7  A    between atoms: S_14  and  C_17
REMARK                            x       y       z     vdW  Elec       q    Type
REMARK                         _______ _______ _______ _____ _____    ______ ____
ROOT
ATOM      1  C   UNL     1       4.713   1.986  20.750  0.00  0.00    +0.000 C 
ATOM      2  N   UNL     1       4.176   3.169  20.020  0.00  0.00    +0.000 NA
ENDROOT
BRANCH   2   3
ATOM      3  S   UNL     1       2.518   3.487  20.381  0.00  0.00    +0.000 S 
ATOM      4  O   UNL     1       1.703   2.676  19.502  0.00  0.00    +0.000 OA
ATOM      5  O   UNL     1       2.369   3.420  21.818  0.00  0.00    +0.000 OA
BRANCH   3   6
ATOM      6  C   UNL     1       2.302   5.177  19.867  0.00  0.00    +0.000 A 
ATOM      7  C   UNL     1       1.943   6.131  20.825  0.00  0.00    +0.000 A 
ATOM      8  C   UNL     1       1.787   7.466  20.448  0.00  0.00    +0.000 A 
ATOM      9  C   UNL     1       1.997   7.840  19.120  0.00  0.00    +0.000 A 
ATOM     10 BR   UNL     1       1.764   9.646  18.609  0.00  0.00    +0.000 Br
ATOM     11  C   UNL     1       2.379   6.893  18.167  0.00  0.00    +0.000 A 
ATOM     12  C   UNL     1       2.540   5.556  18.540  0.00  0.00    +0.000 A 
ENDBRANCH   3   6
ENDBRANCH   2   3
BRANCH   2  13
ATOM     13  C   UNL     1       4.386   3.041  18.532  0.00  0.00    +0.000 C 
BRANCH  13  14
ATOM     14  C   UNL     1       5.481   3.952  17.982  0.00  0.00    +0.000 C 
ATOM     15  O   UNL     1       6.411   4.352  18.675  0.00  0.00    +0.000 OA
ATOM     16  N   UNL     1       5.345   4.275  16.652  0.00  0.00    +0.000 N 
ATOM     17  H   UNL     1       4.598   3.841  16.123  0.00  0.00    +0.000 HD
BRANCH  16  18
ATOM     18  C   UNL     1       6.234   5.196  15.976  0.00  0.00    +0.000 C 
BRANCH  18  19
ATOM     19  C   UNL     1       6.516   4.805  14.546  0.00  0.00    +0.000 A 
ATOM     20  C   UNL     1       5.736   3.840  13.912  0.00  0.00    +0.000 A 
ATOM     21  C   UNL     1       6.048   3.472  12.607  0.00  0.00    +0.000 A 
ATOM     22  C   UNL     1       7.119   4.082  11.966  0.00  0.00    +0.000 A 
ATOM     23  C   UNL     1       7.832   5.046  12.658  0.00  0.00    +0.000 A 
ATOM     24  N   UNL     1       7.557   5.423  13.927  0.00  0.00    +0.000 NA
ENDBRANCH  18  19
ENDBRANCH  16  18
ENDBRANCH  13  14
ENDBRANCH   2  13
TORSDOF 6
ENDMDL
MODEL 5
REMARK VINA RESULT:      -7.1      4.691      6.558
REMARK  Name = 
REMARK  7 active torsions:
REMARK  status: ('A' for Active; 'I' for Inactive)
REMARK    1  A    between atoms: C_1  and  N_2
REMARK    2  A    between atoms: N_2  and  C_3
REMARK    3  A    between atoms: N_2  and  S_14
REMARK    4  A    between atoms: C_3  and  C_4
REMARK    5  A    between atoms: N_6  and  C_7
REMARK    6  A    between atoms: C_7  and  C_8
REMARK    7  A    between atoms: S_14  and  C_17
REMARK                            x       y       z     vdW  Elec       q    Type
REMARK                         _______ _______ _______ _____ _____    ______ ____
ROOT
ATOM      1  C   UNL     1       7.977   6.034  19.175  0.00  0.00    +0.000 C 
ATOM      2  N   UNL     1       7.262   6.784  18.105  0.00  0.00    +0.000 NA
ENDROOT
BRANCH   2   3
ATOM      3  S   UNL     1       6.503   5.749  16.949  0.00  0.00    +0.000 S 
ATOM      4  O   UNL     1       6.056   6.565  15.841  0.00  0.00    +0.000 OA
ATOM      5  O   UNL     1       7.380   4.617  16.744  0.00  0.00    +0.000 OA
BRANCH   3   6
ATOM      6  C   UNL     1       5.042   5.188  17.796  0.00  0.00    +0.000 A 
ATOM      7  C   UNL     1       3.837   5.866  17.579  0.00  0.00    +0.000 A 
ATOM      8  C   UNL     1       2.674   5.432  18.217  0.00  0.00    +0.000 A 
ATOM      9  C   UNL     1       2.720   4.323  19.062  0.00  0.00    +0.000 A 
ATOM     10 BR   UNL     1       1.146   3.752  19.942  0.00  0.00    +0.000 Br
ATOM     11  C   UNL     1       3.917   3.631  19.261  0.00  0.00    +0.000 A 
ATOM     12  C   UNL     1       5.084   4.059  18.622  0.00  0.00    +0.000 A 
ENDBRANCH   3   6
ENDBRANCH   2   3
BRANCH   2  13
ATOM     13  C   UNL     1       8.171   7.775  17.423  0.00  0.00    +0.000 C 
BRANCH  13  14
ATOM     14  C   UNL     1       8.180   9.155  18.074  0.00  0.00    +0.000 C 
ATOM     15  O   UNL     1       7.407  10.046  17.737  0.00  0.00    +0.000 OA
ATOM     16  N   UNL     1       9.112   9.314  19.073  0.00  0.00    +0.000 N 
ATOM     17  H   UNL     1       9.661   8.508  19.354  0.00  0.00    +0.000 HD
BRANCH  16  18
ATOM     18  C   UNL     1       9.330  10.575  19.747  0.00  0.00    +0.000 C 
BRANCH  18  19
ATOM     19  C   UNL     1       9.901  11.640  18.844  0.00  0.00    +0.000 A 
ATOM     20  C   UNL     1      11.149  11.462  18.246  0.00  0.00    +0.000 A 
ATOM     21  C   UNL     1      11.665  12.481  17.452  0.00  0.00    +0.000 A 
ATOM     22  C   UNL     1      10.924  13.641  17.264  0.00  0.00    +0.000 A 
ATOM     23  C   UNL     1       9.685  13.731  17.877  0.00  0.00    +0.000 A 
ATOM     24  N   UNL     1       9.157  12.761  18.657  0.00  0.00    +0.000 NA
ENDBRANCH  18  19
ENDBRANCH  16  18
ENDBRANCH  13  14
ENDBRANCH   2  13
TORSDOF 6
ENDMDL
MODEL 6
REMARK VINA RESULT:      -7.0      4.601      6.539
REMARK  Name = 
REMARK  7 active torsions:
REMARK  status: ('A' for Active; 'I' for Inactive)
REMARK    1  A    between atoms: C_1  and  N_2
REMARK    2  A    between atoms: N_2  and  C_3
REMARK    3  A    between atoms: N_2  and  S_14
REMARK    4  A    between atoms: C_3  and  C_4
REMARK    5  A    between atoms: N_6  and  C_7
REMARK    6  A    between atoms: C_7  and  C_8
REMARK    7  A    between atoms: S_14  and  C_17
REMARK                            x       y       z     vdW  Elec       q    Type
REMARK                         _______ _______ _______ _____ _____    ______ ____
ROOT
ATOM      1  C   UNL     1       7.293   5.744  18.993  0.00  0.00    +0.000 C 
ATOM      2  N   UNL     1       6.919   6.651  17.872  0.00  0.00    +0.000 NA
ENDROOT
BRANCH   2   3
ATOM      3  S   UNL     1       6.249   5.811  16.521  0.00  0.00    +0.000 S 
ATOM      4  O   UNL     1       5.741   6.795  15.589  0.00  0.00    +0.000 OA
ATOM      5  O   UNL     1       7.213   4.814  16.112  0.00  0.00    +0.000 OA
BRANCH   3   6
ATOM      6  C   UNL     1       4.834   4.982  17.213  0.00  0.00    +0.000 A 
ATOM      7  C   UNL     1       3.807   5.754  17.768  0.00  0.00    +0.000 A 
ATOM      8  C   UNL     1       2.679   5.126  18.299  0.00  0.00    +0.000 A 
ATOM      9  C   UNL     1       2.581   3.735  18.267  0.00  0.00    +0.000 A 
ATOM     10 BR   UNL     1       1.061   2.887  19.007  0.00  0.00    +0.000 Br
ATOM     11  C   UNL     1       3.594   2.964  17.692  0.00  0.00    +0.000 A 
ATOM     12  C   UNL     1       4.725   3.588  17.156  0.00  0.00    +0.000 A 
ENDBRANCH   3   6
ENDBRANCH   2   3
BRANCH   2  13
ATOM     13  C   UNL     1       8.083   7.511  17.447  0.00  0.00    +0.000 C 
BRANCH  13  14
ATOM     14  C   UNL     1       8.073   8.910  18.056  0.00  0.00    +0.000 C 
ATOM     15  O   UNL     1       7.312   9.790  17.666  0.00  0.00    +0.000 OA
ATOM     16  N   UNL     1       8.973   9.099  19.079  0.00  0.00    +0.000 N 
ATOM     17  H   UNL     1       9.511   8.303  19.402  0.00  0.00    +0.000 HD
BRANCH  16  18
ATOM     18  C   UNL     1       9.170  10.380  19.721  0.00  0.00    +0.000 C 
BRANCH  18  19
ATOM     19  C   UNL     1       9.948  11.355  18.872  0.00  0.00    +0.000 A 
ATOM     20  C   UNL     1       9.290  12.379  18.192  0.00  0.00    +0.000 A 
ATOM     21  C   UNL     1      10.031  13.236  17.384  0.00  0.00    +0.000 A 
ATOM     22  C   UNL     1      11.406  13.059  17.285  0.00  0.00    +0.000 A 
ATOM     23  C   UNL     1      11.986  12.031  18.008  0.00  0.00    +0.000 A 
ATOM     24  N   UNL     1      11.294  11.180  18.799  0.00  0.00    +0.000 NA
ENDBRANCH  18  19
ENDBRANCH  16  18
ENDBRANCH  13  14
ENDBRANCH   2  13
TORSDOF 6
ENDMDL
MODEL 7
REMARK VINA RESULT:      -7.0      2.593      5.189
REMARK  Name = 
REMARK  7 active torsions:
REMARK  status: ('A' for Active; 'I' for Inactive)
REMARK    1  A    between atoms: C_1  and  N_2
REMARK    2  A    between atoms: N_2  and  C_3
REMARK    3  A    between atoms: N_2  and  S_14
REMARK    4  A    between atoms: C_3  and  C_4
REMARK    5  A    between atoms: N_6  and  C_7
REMARK    6  A    between atoms: C_7  and  C_8
REMARK    7  A    between atoms: S_14  and  C_17
REMARK                            x       y       z     vdW  Elec       q    Type
REMARK                         _______ _______ _______ _____ _____    ______ ____
ROOT
ATOM      1  C   UNL     1       5.345   4.591  14.842  0.00  0.00    +0.000 C 
ATOM      2  N   UNL     1       5.324   5.107  16.239  0.00  0.00    +0.000 NA
ENDROOT
BRANCH   2   3
ATOM      3  S   UNL     1       5.234   6.830  16.319  0.00  0.00    +0.000 S 
ATOM      4  O   UNL     1       6.477   7.319  16.877  0.00  0.00    +0.000 OA
ATOM      5  O   UNL     1       4.750   7.296  15.039  0.00  0.00    +0.000 OA
BRANCH   3   6
ATOM      6  C   UNL     1       3.973   7.119  17.542  0.00  0.00    +0.000 A 
ATOM      7  C   UNL     1       3.774   6.161  18.542  0.00  0.00    +0.000 A 
ATOM      8  C   UNL     1       2.804   6.376  19.523  0.00  0.00    +0.000 A 
ATOM      9  C   UNL     1       2.045   7.547  19.502  0.00  0.00    +0.000 A 
ATOM     10 BR   UNL     1       0.718   7.824  20.820  0.00  0.00    +0.000 Br
ATOM     11  C   UNL     1       2.260   8.515  18.518  0.00  0.00    +0.000 A 
ATOM     12  C   UNL     1       3.232   8.307  17.535  0.00  0.00    +0.000 A 
ENDBRANCH   3   6
ENDBRANCH   2   3
BRANCH   2  13
ATOM     13  C   UNL     1       6.497   4.593  17.035  0.00  0.00    +0.000 C 
BRANCH  13  14
ATOM     14  C   UNL     1       6.143   4.179  18.461  0.00  0.00    +0.000 C 
ATOM     15  O   UNL     1       6.679   4.682  19.443  0.00  0.00    +0.000 OA
ATOM     16  N   UNL     1       5.170   3.211  18.554  0.00  0.00    +0.000 N 
ATOM     17  H   UNL     1       4.713   2.902  17.703  0.00  0.00    +0.000 HD
BRANCH  16  18
ATOM     18  C   UNL     1       4.763   2.630  19.814  0.00  0.00    +0.000 C 
BRANCH  18  19
ATOM     19  C   UNL     1       3.279   2.739  20.066  0.00  0.00    +0.000 A 
ATOM     20  C   UNL     1       2.792   2.853  21.368  0.00  0.00    +0.000 A 
ATOM     21  C   UNL     1       1.416   2.910  21.569  0.00  0.00    +0.000 A 
ATOM     22  C   UNL     1       0.565   2.863  20.472  0.00  0.00    +0.000 A 
ATOM     23  C   UNL     1       1.129   2.769  19.211  0.00  0.00    +0.000 A 
ATOM     24  N   UNL     1       2.460   2.709  18.982  0.00  0.00    +0.000 NA
ENDBRANCH  18  19
ENDBRANCH  16  18
ENDBRANCH  13  14
ENDBRANCH   2  13
TORSDOF 6
ENDMDL
MODEL 8
REMARK VINA RESULT:      -6.9      4.436      6.299
REMARK  Name = 
REMARK  7 active torsions:
REMARK  status: ('A' for Active; 'I' for Inactive)
REMARK    1  A    between atoms: C_1  and  N_2
REMARK    2  A    between atoms: N_2  and  C_3
REMARK    3  A    between atoms: N_2  and  S_14
REMARK    4  A    between atoms: C_3  and  C_4
REMARK    5  A    between atoms: N_6  and  C_7
REMARK    6  A    between atoms: C_7  and  C_8
REMARK    7  A    between atoms: S_14  and  C_17
REMARK                            x       y       z     vdW  Elec       q    Type
REMARK                         _______ _______ _______ _____ _____    ______ ____
ROOT
ATOM      1  C   UNL     1       6.729   5.347  19.274  0.00  0.00    +0.000 C 
ATOM      2  N   UNL     1       6.552   6.200  18.065  0.00  0.00    +0.000 NA
ENDROOT
BRANCH   2   3
ATOM      3  S   UNL     1       5.985   5.317  16.695  0.00  0.00    +0.000 S 
ATOM      4  O   UNL     1       5.611   6.269  15.671  0.00  0.00    +0.000 OA
ATOM      5  O   UNL     1       6.945   4.267  16.431  0.00  0.00    +0.000 OA
BRANCH   3   6
ATOM      6  C   UNL     1       4.478   4.573  17.279  0.00  0.00    +0.000 A 
ATOM      7  C   UNL     1       4.392   3.177  17.330  0.00  0.00    +0.000 A 
ATOM      8  C   UNL     1       3.227   2.572  17.804  0.00  0.00    +0.000 A 
ATOM      9  C   UNL     1       2.159   3.363  18.229  0.00  0.00    +0.000 A 
ATOM     10 BR   UNL     1       0.574   2.539  18.849  0.00  0.00    +0.000 Br
ATOM     11  C   UNL     1       2.252   4.756  18.202  0.00  0.00    +0.000 A 
ATOM     12  C   UNL     1       3.418   5.368  17.731  0.00  0.00    +0.000 A 
ENDBRANCH   3   6
ENDBRANCH   2   3
BRANCH   2  13
ATOM     13  C   UNL     1       7.815   6.954  17.733  0.00  0.00    +0.000 C 
BRANCH  13  14
ATOM     14  C   UNL     1       7.627   8.466  17.648  0.00  0.00    +0.000 C 
ATOM     15  O   UNL     1       6.697   8.979  17.034  0.00  0.00    +0.000 OA
ATOM     16  N   UNL     1       8.574   9.203  18.323  0.00  0.00    +0.000 N 
ATOM     17  H   UNL     1       9.265   8.709  18.877  0.00  0.00    +0.000 HD
BRANCH  16  18
ATOM     18  C   UNL     1       8.613  10.648  18.286  0.00  0.00    +0.000 C 
BRANCH  18  19
ATOM     19  C   UNL     1       9.906  11.221  18.814  0.00  0.00    +0.000 A 
ATOM     20  C   UNL     1      10.989  11.420  17.959  0.00  0.00    +0.000 A 
ATOM     21  C   UNL     1      12.180  11.910  18.485  0.00  0.00    +0.000 A 
ATOM     22  C   UNL     1      12.258  12.198  19.842  0.00  0.00    +0.000 A 
ATOM     23  C   UNL     1      11.131  11.991  20.619  0.00  0.00    +0.000 A 
ATOM     24  N   UNL     1       9.961  11.513  20.140  0.00  0.00    +0.000 NA
ENDBRANCH  18  19
ENDBRANCH  16  18
ENDBRANCH  13  14
ENDBRANCH   2  13
TORSDOF 6
ENDMDL
MODEL 9
REMARK VINA RESULT:      -6.9      4.182      6.125
REMARK  Name = 
REMARK  7 active torsions:
REMARK  status: ('A' for Active; 'I' for Inactive)
REMARK    1  A    between atoms: C_1  and  N_2
REMARK    2  A    between atoms: N_2  and  C_3
REMARK    3  A    between atoms: N_2  and  S_14
REMARK    4  A    between atoms: C_3  and  C_4
REMARK    5  A    between atoms: N_6  and  C_7
REMARK    6  A    between atoms: C_7  and  C_8
REMARK    7  A    between atoms: S_14  and  C_17
REMARK                            x       y       z     vdW  Elec       q    Type
REMARK                         _______ _______ _______ _____ _____    ______ ____
ROOT
ATOM      1  C   UNL     1       7.442   4.730  17.067  0.00  0.00    +0.000 C 
ATOM      2  N   UNL     1       6.517   5.841  17.427  0.00  0.00    +0.000 NA
ENDROOT
BRANCH   2   3
ATOM      3  S   UNL     1       4.965   5.692  16.686  0.00  0.00    +0.000 S 
ATOM      4  O   UNL     1       4.434   7.024  16.486  0.00  0.00    +0.000 OA
ATOM      5  O   UNL     1       5.100   4.764  15.586  0.00  0.00    +0.000 OA
BRANCH   3   6
ATOM      6  C   UNL     1       3.975   4.930  17.953  0.00  0.00    +0.000 A 
ATOM      7  C   UNL     1       3.471   3.644  17.730  0.00  0.00    +0.000 A 
ATOM      8  C   UNL     1       2.708   3.019  18.718  0.00  0.00    +0.000 A 
ATOM      9  C   UNL     1       2.460   3.678  19.923  0.00  0.00    +0.000 A 
ATOM     10 BR   UNL     1       1.408   2.836  21.249  0.00  0.00    +0.000 Br
ATOM     11  C   UNL     1       2.983   4.951  20.156  0.00  0.00    +0.000 A 
ATOM     12  C   UNL     1       3.750   5.581  19.172  0.00  0.00    +0.000 A 
ENDBRANCH   3   6
ENDBRANCH   2   3
BRANCH   2  13
ATOM     13  C   UNL     1       7.129   7.187  17.129  0.00  0.00    +0.000 C 
BRANCH  13  14
ATOM     14  C   UNL     1       8.058   7.700  18.225  0.00  0.00    +0.000 C 
ATOM     15  O   UNL     1       8.488   6.973  19.115  0.00  0.00    +0.000 OA
ATOM     16  N   UNL     1       8.383   9.034  18.127  0.00  0.00    +0.000 N 
ATOM     17  H   UNL     1       8.057   9.551  17.318  0.00  0.00    +0.000 HD
BRANCH  16  18
ATOM     18  C   UNL     1       9.180   9.720  19.119  0.00  0.00    +0.000 C 
BRANCH  18  19
ATOM     19  C   UNL     1       9.358  11.189  18.825  0.00  0.00    +0.000 A 
ATOM     20  C   UNL     1       8.642  11.793  17.791  0.00  0.00    +0.000 A 
ATOM     21  C   UNL     1       8.860  13.139  17.518  0.00  0.00    +0.000 A 
ATOM     22  C   UNL     1       9.774  13.851  18.286  0.00  0.00    +0.000 A 
ATOM     23  C   UNL     1      10.429  13.183  19.307  0.00  0.00    +0.000 A 
ATOM     24  N   UNL     1      10.243  11.876  19.595  0.00  0.00    +0.000 NA
ENDBRANCH  18  19
ENDBRANCH  16  18
ENDBRANCH  13  14
ENDBRANCH   2  13
TORSDOF 6
ENDMDL
