MODEL 1
REMARK VINA RESULT:      -8.1      0.000      0.000
REMARK  Name = 
REMARK  8 active torsions:
REMARK  status: ('A' for Active; 'I' for Inactive)
REMARK    1  A    between atoms: C_1  and  O_2
REMARK    2  A    between atoms: O_2  and  C_3
REMARK    3  A    between atoms: C_4  and  C_5
REMARK    4  A    between atoms: C_8  and  C_9
REMARK    5  A    between atoms: C_9  and  S_10
REMARK    6  A    between atoms: S_10  and  C_12
REMARK    7  A    between atoms: C_15  and  C_16
REMARK    8  A    between atoms: C_23  and  C_24
REMARK                            x       y       z     vdW  Elec       q    Type
REMARK                         _______ _______ _______ _____ _____    ______ ____
ROOT
ATOM      1  S   UNL     1       7.416   5.017  18.375  0.00  0.00    +0.000 S 
ATOM      2  O   UNL     1       8.443   4.232  17.475  0.00  0.00    +0.000 OA
ENDROOT
BRANCH   1   3
ATOM      3  C   UNL     1       7.657   6.715  18.075  0.00  0.00    +0.000 A 
ATOM      4  N   UNL     1       7.048   7.378  17.111  0.00  0.00    +0.000 NA
ATOM      5  N   UNL     1       7.458   8.676  17.191  0.00  0.00    +0.000 NA
ATOM      6  C   UNL     1       8.302   8.742  18.199  0.00  0.00    +0.000 A 
ATOM      7  O   UNL     1       8.484   7.529  18.818  0.00  0.00    +0.000 OA
BRANCH   6   8
ATOM      8  C   UNL     1       9.016   9.905  18.700  0.00  0.00    +0.000 A 
ATOM      9  C   UNL     1       9.613  10.772  17.767  0.00  0.00    +0.000 A 
ATOM     10  C   UNL     1      10.338  11.887  18.180  0.00  0.00    +0.000 A 
ATOM     11  C   UNL     1      10.485  12.151  19.540  0.00  0.00    +0.000 A 
ATOM     12  C   UNL     1       9.895  11.308  20.478  0.00  0.00    +0.000 A 
ATOM     13  C   UNL     1       9.158  10.190  20.063  0.00  0.00    +0.000 A 
ENDBRANCH   6   8
ENDBRANCH   1   3
BRANCH   1  14
ATOM     14  C   UNL     1       5.738   4.862  17.670  0.00  0.00    +0.000 C 
BRANCH  14  20
ATOM     15  C   UNL     1       2.582   4.845  19.866  0.00  0.00    +0.000 A 
ATOM     16  C   UNL     1       2.759   3.614  20.506  0.00  0.00    +0.000 A 
ATOM     17  C   UNL     1       1.801   2.969  21.456  0.00  0.00    +0.000 C 
ATOM     18  C   UNL     1       3.927   2.923  20.210  0.00  0.00    +0.000 A 
ATOM     19  N   UNL     1       4.856   3.318  19.317  0.00  0.00    +0.000 NA
ATOM     20  C   UNL     1       4.671   4.500  18.681  0.00  0.00    +0.000 A 
ATOM     21  C   UNL     1       3.531   5.291  18.910  0.00  0.00    +0.000 A 
ATOM     22  C   UNL     1       3.292   6.600  18.203  0.00  0.00    +0.000 C 
BRANCH  15  24
ATOM     23  C   UNL     1       1.504   6.658  21.003  0.00  0.00    +0.000 C 
ATOM     24  O   UNL     1       1.473   5.649  20.000  0.00  0.00    +0.000 OA
ENDBRANCH  15  24
ENDBRANCH  14  20
ENDBRANCH   1  14
TORSDOF 5
ENDMDL
MODEL 2
REMARK VINA RESULT:      -7.8      4.084      6.357
REMARK  Name = 
REMARK  8 active torsions:
REMARK  status: ('A' for Active; 'I' for Inactive)
REMARK    1  A    between atoms: C_1  and  O_2
REMARK    2  A    between atoms: O_2  and  C_3
REMARK    3  A    between atoms: C_4  and  C_5
REMARK    4  A    between atoms: C_8  and  C_9
REMARK    5  A    between atoms: C_9  and  S_10
REMARK    6  A    between atoms: S_10  and  C_12
REMARK    7  A    between atoms: C_15  and  C_16
REMARK    8  A    between atoms: C_23  and  C_24
REMARK                            x       y       z     vdW  Elec       q    Type
REMARK                         _______ _______ _______ _____ _____    ______ ____
ROOT
ATOM      1  S   UNL     1       6.061   5.799  17.936  0.00  0.00    +0.000 S 
ATOM      2  O   UNL     1       6.200   4.463  18.759  0.00  0.00    +0.000 OA
ENDROOT
BRANCH   1   3
ATOM      3  C   UNL     1       6.538   5.451  16.299  0.00  0.00    +0.000 A 
ATOM      4  N   UNL     1       7.604   5.974  15.724  0.00  0.00    +0.000 NA
ATOM      5  N   UNL     1       7.675   5.462  14.461  0.00  0.00    +0.000 NA
ATOM      6  C   UNL     1       6.646   4.653  14.326  0.00  0.00    +0.000 A 
ATOM      7  O   UNL     1       5.868   4.590  15.457  0.00  0.00    +0.000 OA
BRANCH   6   8
ATOM      8  C   UNL     1       6.272   3.859  13.167  0.00  0.00    +0.000 A 
ATOM      9  C   UNL     1       4.912   3.794  12.816  0.00  0.00    +0.000 A 
ATOM     10  C   UNL     1       4.482   3.027  11.736  0.00  0.00    +0.000 A 
ATOM     11  C   UNL     1       5.409   2.304  10.989  0.00  0.00    +0.000 A 
ATOM     12  C   UNL     1       6.761   2.363  11.317  0.00  0.00    +0.000 A 
ATOM     13  C   UNL     1       7.196   3.141  12.399  0.00  0.00    +0.000 A 
ENDBRANCH   6   8
ENDBRANCH   1   3
BRANCH   1  14
ATOM     14  C   UNL     1       4.297   6.150  17.626  0.00  0.00    +0.000 C 
BRANCH  14  20
ATOM     15  C   UNL     1       1.781   3.926  19.500  0.00  0.00    +0.000 A 
ATOM     16  C   UNL     1       1.600   2.928  18.536  0.00  0.00    +0.000 A 
ATOM     17  C   UNL     1       0.650   1.776  18.628  0.00  0.00    +0.000 C 
ATOM     18  C   UNL     1       2.364   3.036  17.381  0.00  0.00    +0.000 A 
ATOM     19  N   UNL     1       3.205   4.050  17.100  0.00  0.00    +0.000 NA
ATOM     20  C   UNL     1       3.361   5.029  18.024  0.00  0.00    +0.000 A 
ATOM     21  C   UNL     1       2.648   5.018  19.237  0.00  0.00    +0.000 A 
ATOM     22  C   UNL     1       2.789   6.102  20.274  0.00  0.00    +0.000 C 
BRANCH  15  24
ATOM     23  C   UNL     1       1.423   3.093  21.718  0.00  0.00    +0.000 C 
ATOM     24  O   UNL     1       1.085   4.011  20.684  0.00  0.00    +0.000 OA
ENDBRANCH  15  24
ENDBRANCH  14  20
ENDBRANCH   1  14
TORSDOF 5
ENDMDL
MODEL 3
REMARK VINA RESULT:      -7.8      4.286      6.750
REMARK  Name = 
REMARK  8 active torsions:
REMARK  status: ('A' for Active; 'I' for Inactive)
REMARK    1  A    between atoms: C_1  and  O_2
REMARK    2  A    between atoms: O_2  and  C_3
REMARK    3  A    between atoms: C_4  and  C_5
REMARK    4  A    between atoms: C_8  and  C_9
REMARK    5  A    between atoms: C_9  and  S_10
REMARK    6  A    between atoms: S_10  and  C_12
REMARK    7  A    between atoms: C_15  and  C_16
REMARK    8  A    between atoms: C_23  and  C_24
REMARK                            x       y       z     vdW  Elec       q    Type
REMARK                         _______ _______ _______ _____ _____    ______ ____
ROOT
ATOM      1  S   UNL     1       6.783   4.969  17.569  0.00  0.00    +0.000 S 
ATOM      2  O   UNL     1       8.146   4.416  18.132  0.00  0.00    +0.000 OA
ENDROOT
BRANCH   1   3
ATOM      3  C   UNL     1       6.851   4.844  15.834  0.00  0.00    +0.000 A 
ATOM      4  N   UNL     1       7.619   5.606  15.079  0.00  0.00    +0.000 NA
ATOM      5  N   UNL     1       7.430   5.214  13.786  0.00  0.00    +0.000 NA
ATOM      6  C   UNL     1       6.553   4.234  13.814  0.00  0.00    +0.000 A 
ATOM      7  O   UNL     1       6.131   3.937  15.088  0.00  0.00    +0.000 OA
BRANCH   6   8
ATOM      8  C   UNL     1       6.017   3.473  12.697  0.00  0.00    +0.000 A 
ATOM      9  C   UNL     1       4.712   3.763  12.259  0.00  0.00    +0.000 A 
ATOM     10  C   UNL     1       4.127   3.051  11.215  0.00  0.00    +0.000 A 
ATOM     11  C   UNL     1       4.839   2.029  10.592  0.00  0.00    +0.000 A 
ATOM     12  C   UNL     1       6.134   1.733  11.007  0.00  0.00    +0.000 A 
ATOM     13  C   UNL     1       6.727   2.454  12.053  0.00  0.00    +0.000 A 
ENDBRANCH   6   8
ENDBRANCH   1   3
BRANCH   1  14
ATOM     14  C   UNL     1       5.456   3.751  17.867  0.00  0.00    +0.000 C 
BRANCH  14  20
ATOM     15  C   UNL     1       2.169   4.111  19.830  0.00  0.00    +0.000 A 
ATOM     16  C   UNL     1       2.205   5.488  20.078  0.00  0.00    +0.000 A 
ATOM     17  C   UNL     1       1.217   6.262  20.893  0.00  0.00    +0.000 C 
ATOM     18  C   UNL     1       3.269   6.190  19.529  0.00  0.00    +0.000 A 
ATOM     19  N   UNL     1       4.288   5.640  18.840  0.00  0.00    +0.000 NA
ATOM     20  C   UNL     1       4.264   4.302  18.621  0.00  0.00    +0.000 A 
ATOM     21  C   UNL     1       3.229   3.491  19.118  0.00  0.00    +0.000 A 
ATOM     22  C   UNL     1       3.187   2.000  18.904  0.00  0.00    +0.000 C 
BRANCH  15  24
ATOM     23  C   UNL     1       1.390   2.766  21.654  0.00  0.00    +0.000 C 
ATOM     24  O   UNL     1       1.220   3.247  20.324  0.00  0.00    +0.000 OA
ENDBRANCH  15  24
ENDBRANCH  14  20
ENDBRANCH   1  14
TORSDOF 5
ENDMDL
MODEL 4
REMARK VINA RESULT:      -7.8      1.381      2.155
REMARK  Name = 
REMARK  8 active torsions:
REMARK  status: ('A' for Active; 'I' for Inactive)
REMARK    1  A    between atoms: C_1  and  O_2
REMARK    2  A    between atoms: O_2  and  C_3
REMARK    3  A    between atoms: C_4  and  C_5
REMARK    4  A    between atoms: C_8  and  C_9
REMARK    5  A    between atoms: C_9  and  S_10
REMARK    6  A    between atoms: S_10  and  C_12
REMARK    7  A    between atoms: C_15  and  C_16
REMARK    8  A    between atoms: C_23  and  C_24
REMARK                            x       y       z     vdW  Elec       q    Type
REMARK                         _______ _______ _______ _____ _____    ______ ____
ROOT
ATOM      1  S   UNL     1       7.179   5.243  18.213  0.00  0.00    +0.000 S 
ATOM      2  O   UNL     1       8.293   4.415  17.468  0.00  0.00    +0.000 OA
ENDROOT
BRANCH   1   3
ATOM      3  C   UNL     1       7.539   6.929  17.973  0.00  0.00    +0.000 A 
ATOM      4  N   UNL     1       6.950   7.677  17.059  0.00  0.00    +0.000 NA
ATOM      5  N   UNL     1       7.461   8.936  17.176  0.00  0.00    +0.000 NA
ATOM      6  C   UNL     1       8.341   8.895  18.154  0.00  0.00    +0.000 A 
ATOM      7  O   UNL     1       8.451   7.646  18.716  0.00  0.00    +0.000 OA
BRANCH   6   8
ATOM      8  C   UNL     1       9.159   9.978  18.674  0.00  0.00    +0.000 A 
ATOM      9  C   UNL     1       9.166  10.199  20.063  0.00  0.00    +0.000 A 
ATOM     10  C   UNL     1       9.903  11.238  20.624  0.00  0.00    +0.000 A 
ATOM     11  C   UNL     1      10.645  12.082  19.801  0.00  0.00    +0.000 A 
ATOM     12  C   UNL     1      10.657  11.874  18.424  0.00  0.00    +0.000 A 
ATOM     13  C   UNL     1       9.921  10.823  17.859  0.00  0.00    +0.000 A 
ENDBRANCH   6   8
ENDBRANCH   1   3
BRANCH   1  14
ATOM     14  C   UNL     1       5.621   5.169  17.263  0.00  0.00    +0.000 C 
BRANCH  14  20
ATOM     15  C   UNL     1       2.611   3.593  19.064  0.00  0.00    +0.000 A 
ATOM     16  C   UNL     1       2.186   4.702  19.804  0.00  0.00    +0.000 A 
ATOM     17  C   UNL     1       1.071   4.720  20.801  0.00  0.00    +0.000 C 
ATOM     18  C   UNL     1       2.883   5.887  19.604  0.00  0.00    +0.000 A 
ATOM     19  N   UNL     1       3.962   6.026  18.809  0.00  0.00    +0.000 NA
ATOM     20  C   UNL     1       4.387   4.945  18.110  0.00  0.00    +0.000 A 
ATOM     21  C   UNL     1       3.751   3.696  18.224  0.00  0.00    +0.000 A 
ATOM     22  C   UNL     1       4.213   2.475  17.472  0.00  0.00    +0.000 C 
BRANCH  15  24
ATOM     23  C   UNL     1       0.735   2.145  18.711  0.00  0.00    +0.000 C 
ATOM     24  O   UNL     1       2.074   2.331  19.159  0.00  0.00    +0.000 OA
ENDBRANCH  15  24
ENDBRANCH  14  20
ENDBRANCH   1  14
TORSDOF 5
ENDMDL
MODEL 5
REMARK VINA RESULT:      -7.7      4.541      5.994
REMARK  Name = 
REMARK  8 active torsions:
REMARK  status: ('A' for Active; 'I' for Inactive)
REMARK    1  A    between atoms: C_1  and  O_2
REMARK    2  A    between atoms: O_2  and  C_3
REMARK    3  A    between atoms: C_4  and  C_5
REMARK    4  A    between atoms: C_8  and  C_9
REMARK    5  A    between atoms: C_9  and  S_10
REMARK    6  A    between atoms: S_10  and  C_12
REMARK    7  A    between atoms: C_15  and  C_16
REMARK    8  A    between atoms: C_23  and  C_24
REMARK                            x       y       z     vdW  Elec       q    Type
REMARK                         _______ _______ _______ _____ _____    ______ ____
ROOT
ATOM      1  S   UNL     1       4.862   4.342  19.363  0.00  0.00    +0.000 S 
ATOM      2  O   UNL     1       4.867   2.848  19.862  0.00  0.00    +0.000 OA
ENDROOT
BRANCH   1   3
ATOM      3  C   UNL     1       5.967   4.443  18.021  0.00  0.00    +0.000 A 
ATOM      4  N   UNL     1       7.274   4.558  18.160  0.00  0.00    +0.000 NA
ATOM      5  N   UNL     1       7.813   4.585  16.908  0.00  0.00    +0.000 NA
ATOM      6  C   UNL     1       6.809   4.489  16.064  0.00  0.00    +0.000 A 
ATOM      7  O   UNL     1       5.592   4.395  16.696  0.00  0.00    +0.000 OA
BRANCH   6   8
ATOM      8  C   UNL     1       6.853   4.469  14.611  0.00  0.00    +0.000 A 
ATOM      9  C   UNL     1       6.014   3.567  13.932  0.00  0.00    +0.000 A 
ATOM     10  C   UNL     1       6.029   3.475  12.543  0.00  0.00    +0.000 A 
ATOM     11  C   UNL     1       6.892   4.283  11.805  0.00  0.00    +0.000 A 
ATOM     12  C   UNL     1       7.723   5.187  12.460  0.00  0.00    +0.000 A 
ATOM     13  C   UNL     1       7.704   5.286  13.858  0.00  0.00    +0.000 A 
ENDBRANCH   6   8
ENDBRANCH   1   3
BRANCH   1  14
ATOM     14  C   UNL     1       3.315   4.681  18.454  0.00  0.00    +0.000 C 
BRANCH  14  20
ATOM     15  C   UNL     1       1.699   7.833  19.951  0.00  0.00    +0.000 A 
ATOM     16  C   UNL     1       1.914   8.721  18.891  0.00  0.00    +0.000 A 
ATOM     17  C   UNL     1       1.577  10.178  18.881  0.00  0.00    +0.000 C 
ATOM     18  C   UNL     1       2.514   8.196  17.753  0.00  0.00    +0.000 A 
ATOM     19  N   UNL     1       2.954   6.930  17.624  0.00  0.00    +0.000 NA
ATOM     20  C   UNL     1       2.767   6.077  18.660  0.00  0.00    +0.000 A 
ATOM     21  C   UNL     1       2.159   6.493  19.858  0.00  0.00    +0.000 A 
ATOM     22  C   UNL     1       1.954   5.571  21.032  0.00  0.00    +0.000 C 
BRANCH  15  24
ATOM     23  C   UNL     1      -0.252   8.350  21.242  0.00  0.00    +0.000 C 
ATOM     24  O   UNL     1       1.159   8.176  21.168  0.00  0.00    +0.000 OA
ENDBRANCH  15  24
ENDBRANCH  14  20
ENDBRANCH   1  14
TORSDOF 5
ENDMDL
MODEL 6
REMARK VINA RESULT:      -7.6      1.964      2.479
REMARK  Name = 
REMARK  8 active torsions:
REMARK  status: ('A' for Active; 'I' for Inactive)
REMARK    1  A    between atoms: C_1  and  O_2
REMARK    2  A    between atoms: O_2  and  C_3
REMARK    3  A    between atoms: C_4  and  C_5
REMARK    4  A    between atoms: C_8  and  C_9
REMARK    5  A    between atoms: C_9  and  S_10
REMARK    6  A    between atoms: S_10  and  C_12
REMARK    7  A    between atoms: C_15  and  C_16
REMARK    8  A    between atoms: C_23  and  C_24
REMARK                            x       y       z     vdW  Elec       q    Type
REMARK                         _______ _______ _______ _____ _____    ______ ____
ROOT
ATOM      1  S   UNL     1       6.722   5.420  16.090  0.00  0.00    +0.000 S 
ATOM      2  O   UNL     1       7.525   5.587  14.746  0.00  0.00    +0.000 OA
ENDROOT
BRANCH   1   3
ATOM      3  C   UNL     1       7.436   6.496  17.257  0.00  0.00    +0.000 A 
ATOM      4  N   UNL     1       7.875   6.103  18.438  0.00  0.00    +0.000 NA
ATOM      5  N   UNL     1       8.384   7.202  19.066  0.00  0.00    +0.000 NA
ATOM      6  C   UNL     1       8.227   8.214  18.239  0.00  0.00    +0.000 A 
ATOM      7  O   UNL     1       7.627   7.846  17.059  0.00  0.00    +0.000 OA
BRANCH   6   8
ATOM      8  C   UNL     1       8.608   9.603  18.435  0.00  0.00    +0.000 A 
ATOM      9  C   UNL     1       8.127  10.560  17.523  0.00  0.00    +0.000 A 
ATOM     10  C   UNL     1       8.479  11.903  17.635  0.00  0.00    +0.000 A 
ATOM     11  C   UNL     1       9.326  12.312  18.662  0.00  0.00    +0.000 A 
ATOM     12  C   UNL     1       9.805  11.381  19.578  0.00  0.00    +0.000 A 
ATOM     13  C   UNL     1       9.446  10.030  19.471  0.00  0.00    +0.000 A 
ENDBRANCH   6   8
ENDBRANCH   1   3
BRANCH   1  14
ATOM     14  C   UNL     1       5.096   6.236  15.941  0.00  0.00    +0.000 C 
BRANCH  14  20
ATOM     15  C   UNL     1       2.900   4.552  18.611  0.00  0.00    +0.000 A 
ATOM     16  C   UNL     1       2.517   5.686  19.335  0.00  0.00    +0.000 A 
ATOM     17  C   UNL     1       1.697   5.696  20.587  0.00  0.00    +0.000 C 
ATOM     18  C   UNL     1       2.959   6.911  18.852  0.00  0.00    +0.000 A 
ATOM     19  N   UNL     1       3.771   7.076  17.789  0.00  0.00    +0.000 NA
ATOM     20  C   UNL     1       4.160   5.975  17.102  0.00  0.00    +0.000 A 
ATOM     21  C   UNL     1       3.764   4.683  17.492  0.00  0.00    +0.000 A 
ATOM     22  C   UNL     1       4.196   3.441  16.758  0.00  0.00    +0.000 C 
BRANCH  15  24
ATOM     23  C   UNL     1       1.282   2.785  18.672  0.00  0.00    +0.000 C 
ATOM     24  O   UNL     1       2.595   3.256  18.958  0.00  0.00    +0.000 OA
ENDBRANCH  15  24
ENDBRANCH  14  20
ENDBRANCH   1  14
TORSDOF 5
ENDMDL
MODEL 7
REMARK VINA RESULT:      -7.5      4.024      6.405
REMARK  Name = 
REMARK  8 active torsions:
REMARK  status: ('A' for Active; 'I' for Inactive)
REMARK    1  A    between atoms: C_1  and  O_2
REMARK    2  A    between atoms: O_2  and  C_3
REMARK    3  A    between atoms: C_4  and  C_5
REMARK    4  A    between atoms: C_8  and  C_9
REMARK    5  A    between atoms: C_9  and  S_10
REMARK    6  A    between atoms: S_10  and  C_12
REMARK    7  A    between atoms: C_15  and  C_16
REMARK    8  A    between atoms: C_23  and  C_24
REMARK                            x       y       z     vdW  Elec       q    Type
REMARK                         _______ _______ _______ _____ _____    ______ ____
ROOT
ATOM      1  S   UNL     1       5.688   6.562  17.767  0.00  0.00    +0.000 S 
ATOM      2  O   UNL     1       6.143   5.613  18.939  0.00  0.00    +0.000 OA
ENDROOT
BRANCH   1   3
ATOM      3  C   UNL     1       6.332   5.905  16.289  0.00  0.00    +0.000 A 
ATOM      4  N   UNL     1       7.575   6.091  15.890  0.00  0.00    +0.000 NA
ATOM      5  N   UNL     1       7.727   5.417  14.714  0.00  0.00    +0.000 NA
ATOM      6  C   UNL     1       6.567   4.855  14.450  0.00  0.00    +0.000 A 
ATOM      7  O   UNL     1       5.620   5.119  15.409  0.00  0.00    +0.000 OA
BRANCH   6   8
ATOM      8  C   UNL     1       6.208   4.024  13.312  0.00  0.00    +0.000 A 
ATOM      9  C   UNL     1       4.848   3.919  12.969  0.00  0.00    +0.000 A 
ATOM     10  C   UNL     1       4.432   3.116  11.910  0.00  0.00    +0.000 A 
ATOM     11  C   UNL     1       5.373   2.397  11.176  0.00  0.00    +0.000 A 
ATOM     12  C   UNL     1       6.724   2.496  11.496  0.00  0.00    +0.000 A 
ATOM     13  C   UNL     1       7.145   3.310  12.557  0.00  0.00    +0.000 A 
ENDBRANCH   6   8
ENDBRANCH   1   3
BRANCH   1  14
ATOM     14  C   UNL     1       3.915   6.303  17.419  0.00  0.00    +0.000 C 
BRANCH  14  20
ATOM     15  C   UNL     1       2.430   3.177  19.095  0.00  0.00    +0.000 A 
ATOM     16  C   UNL     1       2.025   3.743  20.308  0.00  0.00    +0.000 A 
ATOM     17  C   UNL     1       1.428   3.009  21.467  0.00  0.00    +0.000 C 
ATOM     18  C   UNL     1       2.216   5.112  20.450  0.00  0.00    +0.000 A 
ATOM     19  N   UNL     1       2.812   5.908  19.542  0.00  0.00    +0.000 NA
ATOM     20  C   UNL     1       3.226   5.354  18.376  0.00  0.00    +0.000 A 
ATOM     21  C   UNL     1       3.074   3.980  18.117  0.00  0.00    +0.000 A 
ATOM     22  C   UNL     1       3.540   3.335  16.838  0.00  0.00    +0.000 C 
BRANCH  15  24
ATOM     23  C   UNL     1       3.563   1.079  18.856  0.00  0.00    +0.000 C 
ATOM     24  O   UNL     1       2.360   1.837  18.789  0.00  0.00    +0.000 OA
ENDBRANCH  15  24
ENDBRANCH  14  20
ENDBRANCH   1  14
TORSDOF 5
ENDMDL
MODEL 8
REMARK VINA RESULT:      -7.5      4.109      6.483
REMARK  Name = 
REMARK  8 active torsions:
REMARK  status: ('A' for Active; 'I' for Inactive)
REMARK    1  A    between atoms: C_1  and  O_2
REMARK    2  A    between atoms: O_2  and  C_3
REMARK    3  A    between atoms: C_4  and  C_5
REMARK    4  A    between atoms: C_8  and  C_9
REMARK    5  A    between atoms: C_9  and  S_10
REMARK    6  A    between atoms: S_10  and  C_12
REMARK    7  A    between atoms: C_15  and  C_16
REMARK    8  A    between atoms: C_23  and  C_24
REMARK                            x       y       z     vdW  Elec       q    Type
REMARK                         _______ _______ _______ _____ _____    ______ ____
ROOT
ATOM      1  S   UNL     1       5.954   6.244  17.691  0.00  0.00    +0.000 S 
ATOM      2  O   UNL     1       6.383   5.161  18.751  0.00  0.00    +0.000 OA
ENDROOT
BRANCH   1   3
ATOM      3  C   UNL     1       6.431   5.653  16.125  0.00  0.00    +0.000 A 
ATOM      4  N   UNL     1       7.601   5.913  15.573  0.00  0.00    +0.000 NA
ATOM      5  N   UNL     1       7.631   5.274  14.369  0.00  0.00    +0.000 NA
ATOM      6  C   UNL     1       6.477   4.656  14.241  0.00  0.00    +0.000 A 
ATOM      7  O   UNL     1       5.650   4.849  15.323  0.00  0.00    +0.000 OA
BRANCH   6   8
ATOM      8  C   UNL     1       6.013   3.832  13.137  0.00  0.00    +0.000 A 
ATOM      9  C   UNL     1       6.937   2.973  12.515  0.00  0.00    +0.000 A 
ATOM     10  C   UNL     1       6.567   2.179  11.432  0.00  0.00    +0.000 A 
ATOM     11  C   UNL     1       5.263   2.237  10.946  0.00  0.00    +0.000 A 
ATOM     12  C   UNL     1       4.333   3.076  11.554  0.00  0.00    +0.000 A 
ATOM     13  C   UNL     1       4.702   3.869  12.649  0.00  0.00    +0.000 A 
ENDBRANCH   6   8
ENDBRANCH   1   3
BRANCH   1  14
ATOM     14  C   UNL     1       4.144   6.186  17.452  0.00  0.00    +0.000 C 
BRANCH  14  20
ATOM     15  C   UNL     1       2.289   3.346  19.262  0.00  0.00    +0.000 A 
ATOM     16  C   UNL     1       2.169   3.927  20.530  0.00  0.00    +0.000 A 
ATOM     17  C   UNL     1       1.593   3.274  21.746  0.00  0.00    +0.000 C 
ATOM     18  C   UNL     1       2.651   5.222  20.667  0.00  0.00    +0.000 A 
ATOM     19  N   UNL     1       3.272   5.924  19.700  0.00  0.00    +0.000 NA
ATOM     20  C   UNL     1       3.409   5.351  18.479  0.00  0.00    +0.000 A 
ATOM     21  C   UNL     1       2.948   4.048  18.219  0.00  0.00    +0.000 A 
ATOM     22  C   UNL     1       3.102   3.381  16.877  0.00  0.00    +0.000 C 
BRANCH  15  24
ATOM     23  C   UNL     1       0.539   1.834  18.633  0.00  0.00    +0.000 C 
ATOM     24  O   UNL     1       1.909   2.062  18.946  0.00  0.00    +0.000 OA
ENDBRANCH  15  24
ENDBRANCH  14  20
ENDBRANCH   1  14
TORSDOF 5
ENDMDL
MODEL 9
REMARK VINA RESULT:      -7.4      4.926      6.425
REMARK  Name = 
REMARK  8 active torsions:
REMARK  status: ('A' for Active; 'I' for Inactive)
REMARK    1  A    between atoms: C_1  and  O_2
REMARK    2  A    between atoms: O_2  and  C_3
REMARK    3  A    between atoms: C_4  and  C_5
REMARK    4  A    between atoms: C_8  and  C_9
REMARK    5  A    between atoms: C_9  and  S_10
REMARK    6  A    between atoms: S_10  and  C_12
REMARK    7  A    between atoms: C_15  and  C_16
REMARK    8  A    between atoms: C_23  and  C_24
REMARK                            x       y       z     vdW  Elec       q    Type
REMARK                         _______ _______ _______ _____ _____    ______ ____
ROOT
ATOM      1  S   UNL     1       3.107   5.134  18.417  0.00  0.00    +0.000 S 
ATOM      2  O   UNL     1       1.903   4.428  17.687  0.00  0.00    +0.000 OA
ENDROOT
BRANCH   1   3
ATOM      3  C   UNL     1       4.533   4.847  17.461  0.00  0.00    +0.000 A 
ATOM      4  N   UNL     1       5.727   4.630  17.980  0.00  0.00    +0.000 NA
ATOM      5  N   UNL     1       6.587   4.425  16.941  0.00  0.00    +0.000 NA
ATOM      6  C   UNL     1       5.878   4.531  15.838  0.00  0.00    +0.000 A 
ATOM      7  O   UNL     1       4.553   4.802  16.084  0.00  0.00    +0.000 OA
BRANCH   6   8
ATOM      8  C   UNL     1       6.327   4.395  14.463  0.00  0.00    +0.000 A 
ATOM      9  C   UNL     1       7.406   5.189  14.033  0.00  0.00    +0.000 A 
ATOM     10  C   UNL     1       7.866   5.130  12.720  0.00  0.00    +0.000 A 
ATOM     11  C   UNL     1       7.249   4.276  11.809  0.00  0.00    +0.000 A 
ATOM     12  C   UNL     1       6.185   3.477  12.218  0.00  0.00    +0.000 A 
ATOM     13  C   UNL     1       5.726   3.530  13.541  0.00  0.00    +0.000 A 
ENDBRANCH   6   8
ENDBRANCH   1   3
BRANCH   1  14
ATOM     14  C   UNL     1       2.994   6.941  18.183  0.00  0.00    +0.000 C 
BRANCH  14  20
ATOM     15  C   UNL     1       0.839   9.502  20.078  0.00  0.00    +0.000 A 
ATOM     16  C   UNL     1       0.565   8.757  21.230  0.00  0.00    +0.000 A 
ATOM     17  C   UNL     1      -0.321   9.176  22.360  0.00  0.00    +0.000 C 
ATOM     18  C   UNL     1       1.160   7.505  21.316  0.00  0.00    +0.000 A 
ATOM     19  N   UNL     1       1.917   6.939  20.356  0.00  0.00    +0.000 NA
ATOM     20  C   UNL     1       2.162   7.653  19.229  0.00  0.00    +0.000 A 
ATOM     21  C   UNL     1       1.623   8.938  19.037  0.00  0.00    +0.000 A 
ATOM     22  C   UNL     1       1.865   9.745  17.789  0.00  0.00    +0.000 C 
BRANCH  15  24
ATOM     23  C   UNL     1       0.882  11.869  20.447  0.00  0.00    +0.000 C 
ATOM     24  O   UNL     1       0.309  10.740  19.797  0.00  0.00    +0.000 OA
ENDBRANCH  15  24
ENDBRANCH  14  20
ENDBRANCH   1  14
TORSDOF 5
ENDMDL
