MODEL 1
REMARK VINA RESULT:      -7.8      0.000      0.000
REMARK  Name = 
REMARK  5 active torsions:
REMARK  status: ('A' for Active; 'I' for Inactive)
REMARK    1  A    between atoms: C_1  and  C_2
REMARK    2  A    between atoms: C_2  and  N_3
REMARK    3  A    between atoms: C_2  and  C_14
REMARK    4  A    between atoms: N_3  and  C_4
REMARK    5  A    between atoms: C_4  and  C_5
REMARK                            x       y       z     vdW  Elec       q    Type
REMARK                         _______ _______ _______ _____ _____    ______ ____
ROOT
ATOM      1  N   UNL     1       5.643   3.398  16.615  0.00  0.00    +0.000 NA
ATOM      2  H   UNL     1       5.663   2.487  16.148  0.00  0.00    +0.000 HD
ENDROOT
BRANCH   1   4
ATOM      3  C   UNL     1       6.195   4.847  14.646  0.00  0.00    +0.000 C 
ATOM      4  C   UNL     1       6.675   4.234  15.969  0.00  0.00    +0.000 C 
BRANCH   4   5
ATOM      5  C   UNL     1       7.154   5.319  16.933  0.00  0.00    +0.000 A 
ATOM      6  C   UNL     1       7.515   5.010  18.248  0.00  0.00    +0.000 A 
ATOM      7  C   UNL     1       7.986   6.022  19.082  0.00  0.00    +0.000 A 
ATOM      8  C   UNL     1       8.088   7.315  18.586  0.00  0.00    +0.000 A 
ATOM      9  C   UNL     1       7.709   7.544  17.274  0.00  0.00    +0.000 A 
ATOM     10  N   UNL     1       7.246   6.584  16.442  0.00  0.00    +0.000 NA
ENDBRANCH   4   5
ENDBRANCH   1   4
BRANCH   1  11
ATOM     11  C   UNL     1       4.296   3.945  16.500  0.00  0.00    +0.000 C 
BRANCH  11  12
ATOM     12  C   UNL     1       3.422   3.381  17.560  0.00  0.00    +0.000 A 
ATOM     13  C   UNL     1       3.047   2.078  17.828  0.00  0.00    +0.000 A 
ATOM     14  N   UNL     1       2.242   2.001  18.933  0.00  0.00    +0.000 NA
ATOM     15  C   UNL     1       2.135   3.238  19.367  0.00  0.00    +0.000 A 
ATOM     16  C   UNL     1       1.433   3.774  20.483  0.00  0.00    +0.000 A 
ATOM     17  C   UNL     1       1.498   5.093  20.746  0.00  0.00    +0.000 A 
ATOM     18  C   UNL     1       2.278   5.993  19.911  0.00  0.00    +0.000 A 
ATOM     19  C   UNL     1       2.933   5.497  18.848  0.00  0.00    +0.000 A 
ATOM     20  N   UNL     1       2.854   4.128  18.573  0.00  0.00    +0.000 N 
ENDBRANCH  11  12
ENDBRANCH   1  11
TORSDOF 4
ENDMDL
MODEL 2
REMARK VINA RESULT:      -7.7      1.067      2.164
REMARK  Name = 
REMARK  5 active torsions:
REMARK  status: ('A' for Active; 'I' for Inactive)
REMARK    1  A    between atoms: C_1  and  C_2
REMARK    2  A    between atoms: C_2  and  N_3
REMARK    3  A    between atoms: C_2  and  C_14
REMARK    4  A    between atoms: N_3  and  C_4
REMARK    5  A    between atoms: C_4  and  C_5
REMARK                            x       y       z     vdW  Elec       q    Type
REMARK                         _______ _______ _______ _____ _____    ______ ____
ROOT
ATOM      1  N   UNL     1       5.280   3.420  16.769  0.00  0.00    +0.000 NA
ATOM      2  H   UNL     1       5.191   2.476  16.382  0.00  0.00    +0.000 HD
ENDROOT
BRANCH   1   4
ATOM      3  C   UNL     1       6.141   4.622  14.746  0.00  0.00    +0.000 C 
ATOM      4  C   UNL     1       6.459   4.036  16.128  0.00  0.00    +0.000 C 
BRANCH   4   5
ATOM      5  C   UNL     1       7.064   5.097  17.046  0.00  0.00    +0.000 A 
ATOM      6  C   UNL     1       7.073   6.448  16.685  0.00  0.00    +0.000 A 
ATOM      7  C   UNL     1       7.597   7.387  17.570  0.00  0.00    +0.000 A 
ATOM      8  C   UNL     1       8.099   6.960  18.792  0.00  0.00    +0.000 A 
ATOM      9  C   UNL     1       8.058   5.606  19.078  0.00  0.00    +0.000 A 
ATOM     10  N   UNL     1       7.559   4.670  18.240  0.00  0.00    +0.000 NA
ENDBRANCH   4   5
ENDBRANCH   1   4
BRANCH   1  11
ATOM     11  C   UNL     1       4.038   4.140  16.515  0.00  0.00    +0.000 C 
BRANCH  11  12
ATOM     12  C   UNL     1       3.532   4.748  17.772  0.00  0.00    +0.000 A 
ATOM     13  C   UNL     1       3.708   6.012  18.303  0.00  0.00    +0.000 A 
ATOM     14  N   UNL     1       3.032   6.162  19.485  0.00  0.00    +0.000 NA
ATOM     15  C   UNL     1       2.419   5.015  19.679  0.00  0.00    +0.000 A 
ATOM     16  C   UNL     1       1.564   4.584  20.731  0.00  0.00    +0.000 A 
ATOM     17  C   UNL     1       1.023   3.351  20.694  0.00  0.00    +0.000 A 
ATOM     18  C   UNL     1       1.290   2.440  19.593  0.00  0.00    +0.000 A 
ATOM     19  C   UNL     1       2.107   2.835  18.601  0.00  0.00    +0.000 A 
ATOM     20  N   UNL     1       2.675   4.112  18.649  0.00  0.00    +0.000 N 
ENDBRANCH  11  12
ENDBRANCH   1  11
TORSDOF 4
ENDMDL
MODEL 3
REMARK VINA RESULT:      -7.7      1.715      3.333
REMARK  Name = 
REMARK  5 active torsions:
REMARK  status: ('A' for Active; 'I' for Inactive)
REMARK    1  A    between atoms: C_1  and  C_2
REMARK    2  A    between atoms: C_2  and  N_3
REMARK    3  A    between atoms: C_2  and  C_14
REMARK    4  A    between atoms: N_3  and  C_4
REMARK    5  A    between atoms: C_4  and  C_5
REMARK                            x       y       z     vdW  Elec       q    Type
REMARK                         _______ _______ _______ _____ _____    ______ ____
ROOT
ATOM      1  N   UNL     1       5.882   3.825  16.843  0.00  0.00    +0.000 NA
ATOM      2  H   UNL     1       5.217   3.291  16.277  0.00  0.00    +0.000 HD
ENDROOT
BRANCH   1   4
ATOM      3  C   UNL     1       7.195   5.959  16.819  0.00  0.00    +0.000 C 
ATOM      4  C   UNL     1       6.145   5.085  16.119  0.00  0.00    +0.000 C 
BRANCH   4   5
ATOM      5  C   UNL     1       6.553   4.789  14.676  0.00  0.00    +0.000 A 
ATOM      6  C   UNL     1       5.848   3.864  13.900  0.00  0.00    +0.000 A 
ATOM      7  C   UNL     1       6.227   3.654  12.576  0.00  0.00    +0.000 A 
ATOM      8  C   UNL     1       7.298   4.369  12.057  0.00  0.00    +0.000 A 
ATOM      9  C   UNL     1       7.949   5.266  12.887  0.00  0.00    +0.000 A 
ATOM     10  N   UNL     1       7.606   5.489  14.176  0.00  0.00    +0.000 NA
ENDBRANCH   4   5
ENDBRANCH   1   4
BRANCH   1  11
ATOM     11  C   UNL     1       5.302   4.025  18.166  0.00  0.00    +0.000 C 
BRANCH  11  12
ATOM     12  C   UNL     1       3.835   3.796  18.122  0.00  0.00    +0.000 A 
ATOM     13  C   UNL     1       2.953   3.766  17.058  0.00  0.00    +0.000 A 
ATOM     14  N   UNL     1       1.676   3.489  17.468  0.00  0.00    +0.000 NA
ATOM     15  C   UNL     1       1.761   3.322  18.769  0.00  0.00    +0.000 A 
ATOM     16  C   UNL     1       0.763   3.007  19.733  0.00  0.00    +0.000 A 
ATOM     17  C   UNL     1       1.104   2.855  21.027  0.00  0.00    +0.000 A 
ATOM     18  C   UNL     1       2.481   3.004  21.469  0.00  0.00    +0.000 A 
ATOM     19  C   UNL     1       3.428   3.314  20.567  0.00  0.00    +0.000 A 
ATOM     20  N   UNL     1       3.068   3.480  19.226  0.00  0.00    +0.000 N 
ENDBRANCH  11  12
ENDBRANCH   1  11
TORSDOF 4
ENDMDL
MODEL 4
REMARK VINA RESULT:      -7.6      0.718      1.130
REMARK  Name = 
REMARK  5 active torsions:
REMARK  status: ('A' for Active; 'I' for Inactive)
REMARK    1  A    between atoms: C_1  and  C_2
REMARK    2  A    between atoms: C_2  and  N_3
REMARK    3  A    between atoms: C_2  and  C_14
REMARK    4  A    between atoms: N_3  and  C_4
REMARK    5  A    between atoms: C_4  and  C_5
REMARK                            x       y       z     vdW  Elec       q    Type
REMARK                         _______ _______ _______ _____ _____    ______ ____
ROOT
ATOM      1  N   UNL     1       5.572   3.267  16.344  0.00  0.00    +0.000 NA
ATOM      2  H   UNL     1       5.322   2.581  15.626  0.00  0.00    +0.000 HD
ENDROOT
BRANCH   1   4
ATOM      3  C   UNL     1       6.396   4.735  14.487  0.00  0.00    +0.000 C 
ATOM      4  C   UNL     1       6.715   4.041  15.818  0.00  0.00    +0.000 C 
BRANCH   4   5
ATOM      5  C   UNL     1       7.191   5.052  16.862  0.00  0.00    +0.000 A 
ATOM      6  C   UNL     1       7.141   6.427  16.614  0.00  0.00    +0.000 A 
ATOM      7  C   UNL     1       7.546   7.314  17.607  0.00  0.00    +0.000 A 
ATOM      8  C   UNL     1       7.991   6.812  18.823  0.00  0.00    +0.000 A 
ATOM      9  C   UNL     1       8.015   5.438  18.994  0.00  0.00    +0.000 A 
ATOM     10  N   UNL     1       7.631   4.552  18.048  0.00  0.00    +0.000 NA
ENDBRANCH   4   5
ENDBRANCH   1   4
BRANCH   1  11
ATOM     11  C   UNL     1       4.398   4.084  16.627  0.00  0.00    +0.000 C 
BRANCH  11  12
ATOM     12  C   UNL     1       3.535   3.412  17.631  0.00  0.00    +0.000 A 
ATOM     13  C   UNL     1       3.252   2.074  17.832  0.00  0.00    +0.000 A 
ATOM     14  N   UNL     1       2.419   1.889  18.903  0.00  0.00    +0.000 NA
ATOM     15  C   UNL     1       2.205   3.095  19.383  0.00  0.00    +0.000 A 
ATOM     16  C   UNL     1       1.429   3.528  20.495  0.00  0.00    +0.000 A 
ATOM     17  C   UNL     1       1.385   4.835  20.814  0.00  0.00    +0.000 A 
ATOM     18  C   UNL     1       2.121   5.827  20.045  0.00  0.00    +0.000 A 
ATOM     19  C   UNL     1       2.845   5.427  18.986  0.00  0.00    +0.000 A 
ATOM     20  N   UNL     1       2.880   4.070  18.653  0.00  0.00    +0.000 N 
ENDBRANCH  11  12
ENDBRANCH   1  11
TORSDOF 4
ENDMDL
MODEL 5
REMARK VINA RESULT:      -7.6      0.927      1.890
REMARK  Name = 
REMARK  5 active torsions:
REMARK  status: ('A' for Active; 'I' for Inactive)
REMARK    1  A    between atoms: C_1  and  C_2
REMARK    2  A    between atoms: C_2  and  N_3
REMARK    3  A    between atoms: C_2  and  C_14
REMARK    4  A    between atoms: N_3  and  C_4
REMARK    5  A    between atoms: C_4  and  C_5
REMARK                            x       y       z     vdW  Elec       q    Type
REMARK                         _______ _______ _______ _____ _____    ______ ____
ROOT
ATOM      1  N   UNL     1       5.339   3.641  16.577  0.00  0.00    +0.000 NA
ATOM      2  H   UNL     1       5.146   2.781  16.058  0.00  0.00    +0.000 HD
ENDROOT
BRANCH   1   4
ATOM      3  C   UNL     1       6.544   4.610  14.604  0.00  0.00    +0.000 C 
ATOM      4  C   UNL     1       6.623   4.169  16.072  0.00  0.00    +0.000 C 
BRANCH   4   5
ATOM      5  C   UNL     1       7.109   5.313  16.962  0.00  0.00    +0.000 A 
ATOM      6  C   UNL     1       7.670   5.064  18.219  0.00  0.00    +0.000 A 
ATOM      7  C   UNL     1       8.138   6.132  18.981  0.00  0.00    +0.000 A 
ATOM      8  C   UNL     1       8.038   7.421  18.473  0.00  0.00    +0.000 A 
ATOM      9  C   UNL     1       7.469   7.588  17.222  0.00  0.00    +0.000 A 
ATOM     10  N   UNL     1       7.003   6.573  16.461  0.00  0.00    +0.000 NA
ENDBRANCH   4   5
ENDBRANCH   1   4
BRANCH   1  11
ATOM     11  C   UNL     1       4.219   4.555  16.384  0.00  0.00    +0.000 C 
BRANCH  11  12
ATOM     12  C   UNL     1       3.636   4.936  17.696  0.00  0.00    +0.000 A 
ATOM     13  C   UNL     1       3.851   6.042  18.496  0.00  0.00    +0.000 A 
ATOM     14  N   UNL     1       3.073   6.009  19.623  0.00  0.00    +0.000 NA
ATOM     15  C   UNL     1       2.362   4.908  19.517  0.00  0.00    +0.000 A 
ATOM     16  C   UNL     1       1.376   4.351  20.380  0.00  0.00    +0.000 A 
ATOM     17  C   UNL     1       0.753   3.209  20.037  0.00  0.00    +0.000 A 
ATOM     18  C   UNL     1       1.061   2.522  18.793  0.00  0.00    +0.000 A 
ATOM     19  C   UNL     1       2.000   3.035  17.978  0.00  0.00    +0.000 A 
ATOM     20  N   UNL     1       2.652   4.217  18.343  0.00  0.00    +0.000 N 
ENDBRANCH  11  12
ENDBRANCH   1  11
TORSDOF 4
ENDMDL
MODEL 6
REMARK VINA RESULT:      -7.5      1.532      3.094
REMARK  Name = 
REMARK  5 active torsions:
REMARK  status: ('A' for Active; 'I' for Inactive)
REMARK    1  A    between atoms: C_1  and  C_2
REMARK    2  A    between atoms: C_2  and  N_3
REMARK    3  A    between atoms: C_2  and  C_14
REMARK    4  A    between atoms: N_3  and  C_4
REMARK    5  A    between atoms: C_4  and  C_5
REMARK                            x       y       z     vdW  Elec       q    Type
REMARK                         _______ _______ _______ _____ _____    ______ ____
ROOT
ATOM      1  N   UNL     1       5.240   4.720  16.698  0.00  0.00    +0.000 NA
ATOM      2  H   UNL     1       4.653   5.552  16.806  0.00  0.00    +0.000 HD
ENDROOT
BRANCH   1   4
ATOM      3  C   UNL     1       7.716   4.659  17.086  0.00  0.00    +0.000 C 
ATOM      4  C   UNL     1       6.560   5.186  16.225  0.00  0.00    +0.000 C 
BRANCH   4   5
ATOM      5  C   UNL     1       6.756   4.809  14.757  0.00  0.00    +0.000 A 
ATOM      6  C   UNL     1       5.950   3.846  14.142  0.00  0.00    +0.000 A 
ATOM      7  C   UNL     1       6.134   3.563  12.791  0.00  0.00    +0.000 A 
ATOM      8  C   UNL     1       7.115   4.245  12.084  0.00  0.00    +0.000 A 
ATOM      9  C   UNL     1       7.876   5.184  12.761  0.00  0.00    +0.000 A 
ATOM     10  N   UNL     1       7.723   5.478  14.072  0.00  0.00    +0.000 NA
ENDBRANCH   4   5
ENDBRANCH   1   4
BRANCH   1  11
ATOM     11  C   UNL     1       5.294   4.027  17.980  0.00  0.00    +0.000 C 
BRANCH  11  12
ATOM     12  C   UNL     1       4.009   3.331  18.240  0.00  0.00    +0.000 A 
ATOM     13  C   UNL     1       3.536   2.107  17.806  0.00  0.00    +0.000 A 
ATOM     14  N   UNL     1       2.294   1.835  18.314  0.00  0.00    +0.000 NA
ATOM     15  C   UNL     1       2.003   2.864  19.079  0.00  0.00    +0.000 A 
ATOM     16  C   UNL     1       0.854   3.138  19.872  0.00  0.00    +0.000 A 
ATOM     17  C   UNL     1       0.797   4.265  20.605  0.00  0.00    +0.000 A 
ATOM     18  C   UNL     1       1.894   5.220  20.611  0.00  0.00    +0.000 A 
ATOM     19  C   UNL     1       2.978   4.975  19.855  0.00  0.00    +0.000 A 
ATOM     20  N   UNL     1       3.028   3.808  19.087  0.00  0.00    +0.000 N 
ENDBRANCH  11  12
ENDBRANCH   1  11
TORSDOF 4
ENDMDL
MODEL 7
REMARK VINA RESULT:      -7.4      1.369      1.906
REMARK  Name = 
REMARK  5 active torsions:
REMARK  status: ('A' for Active; 'I' for Inactive)
REMARK    1  A    between atoms: C_1  and  C_2
REMARK    2  A    between atoms: C_2  and  N_3
REMARK    3  A    between atoms: C_2  and  C_14
REMARK    4  A    between atoms: N_3  and  C_4
REMARK    5  A    between atoms: C_4  and  C_5
REMARK                            x       y       z     vdW  Elec       q    Type
REMARK                         _______ _______ _______ _____ _____    ______ ____
ROOT
ATOM      1  N   UNL     1       4.948   4.041  16.339  0.00  0.00    +0.000 NA
ATOM      2  H   UNL     1       4.633   4.971  16.626  0.00  0.00    +0.000 HD
ENDROOT
BRANCH   1   4
ATOM      3  C   UNL     1       6.715   4.467  14.612  0.00  0.00    +0.000 C 
ATOM      4  C   UNL     1       6.399   4.140  16.078  0.00  0.00    +0.000 C 
BRANCH   4   5
ATOM      5  C   UNL     1       7.034   5.166  17.017  0.00  0.00    +0.000 A 
ATOM      6  C   UNL     1       7.057   6.526  16.694  0.00  0.00    +0.000 A 
ATOM      7  C   UNL     1       7.608   7.432  17.597  0.00  0.00    +0.000 A 
ATOM      8  C   UNL     1       8.122   6.963  18.799  0.00  0.00    +0.000 A 
ATOM      9  C   UNL     1       8.065   5.602  19.047  0.00  0.00    +0.000 A 
ATOM     10  N   UNL     1       7.539   4.698  18.191  0.00  0.00    +0.000 NA
ENDBRANCH   4   5
ENDBRANCH   1   4
BRANCH   1  11
ATOM     11  C   UNL     1       4.611   3.095  17.397  0.00  0.00    +0.000 C 
BRANCH  11  12
ATOM     12  C   UNL     1       3.214   3.311  17.850  0.00  0.00    +0.000 A 
ATOM     13  C   UNL     1       2.078   3.669  17.149  0.00  0.00    +0.000 A 
ATOM     14  N   UNL     1       0.979   3.728  17.964  0.00  0.00    +0.000 NA
ATOM     15  C   UNL     1       1.416   3.387  19.156  0.00  0.00    +0.000 A 
ATOM     16  C   UNL     1       0.731   3.261  20.397  0.00  0.00    +0.000 A 
ATOM     17  C   UNL     1       1.399   2.861  21.495  0.00  0.00    +0.000 A 
ATOM     18  C   UNL     1       2.818   2.547  21.445  0.00  0.00    +0.000 A 
ATOM     19  C   UNL     1       3.476   2.676  20.280  0.00  0.00    +0.000 A 
ATOM     20  N   UNL     1       2.779   3.101  19.144  0.00  0.00    +0.000 N 
ENDBRANCH  11  12
ENDBRANCH   1  11
TORSDOF 4
ENDMDL
MODEL 8
REMARK VINA RESULT:      -7.3      1.689      3.628
REMARK  Name = 
REMARK  5 active torsions:
REMARK  status: ('A' for Active; 'I' for Inactive)
REMARK    1  A    between atoms: C_1  and  C_2
REMARK    2  A    between atoms: C_2  and  N_3
REMARK    3  A    between atoms: C_2  and  C_14
REMARK    4  A    between atoms: N_3  and  C_4
REMARK    5  A    between atoms: C_4  and  C_5
REMARK                            x       y       z     vdW  Elec       q    Type
REMARK                         _______ _______ _______ _____ _____    ______ ____
ROOT
ATOM      1  N   UNL     1       5.082   5.129  16.352  0.00  0.00    +0.000 NA
ATOM      2  H   UNL     1       4.772   6.021  16.747  0.00  0.00    +0.000 HD
ENDROOT
BRANCH   1   4
ATOM      3  C   UNL     1       7.435   4.528  16.971  0.00  0.00    +0.000 C 
ATOM      4  C   UNL     1       6.510   5.286  16.009  0.00  0.00    +0.000 C 
BRANCH   4   5
ATOM      5  C   UNL     1       6.755   4.858  14.562  0.00  0.00    +0.000 A 
ATOM      6  C   UNL     1       5.976   3.865  13.959  0.00  0.00    +0.000 A 
ATOM      7  C   UNL     1       6.205   3.534  12.626  0.00  0.00    +0.000 A 
ATOM      8  C   UNL     1       7.203   4.199  11.925  0.00  0.00    +0.000 A 
ATOM      9  C   UNL     1       7.934   5.169  12.590  0.00  0.00    +0.000 A 
ATOM     10  N   UNL     1       7.737   5.510  13.884  0.00  0.00    +0.000 NA
ENDBRANCH   4   5
ENDBRANCH   1   4
BRANCH   1  11
ATOM     11  C   UNL     1       4.832   4.079  17.332  0.00  0.00    +0.000 C 
BRANCH  11  12
ATOM     12  C   UNL     1       3.934   4.582  18.403  0.00  0.00    +0.000 A 
ATOM     13  C   UNL     1       3.922   5.783  19.087  0.00  0.00    +0.000 A 
ATOM     14  N   UNL     1       2.889   5.844  19.984  0.00  0.00    +0.000 NA
ATOM     15  C   UNL     1       2.247   4.705  19.846  0.00  0.00    +0.000 A 
ATOM     16  C   UNL     1       1.088   4.205  20.503  0.00  0.00    +0.000 A 
ATOM     17  C   UNL     1       0.590   3.001  20.164  0.00  0.00    +0.000 A 
ATOM     18  C   UNL     1       1.211   2.190  19.129  0.00  0.00    +0.000 A 
ATOM     19  C   UNL     1       2.313   2.649  18.512  0.00  0.00    +0.000 A 
ATOM     20  N   UNL     1       2.832   3.896  18.874  0.00  0.00    +0.000 N 
ENDBRANCH  11  12
ENDBRANCH   1  11
TORSDOF 4
ENDMDL
MODEL 9
REMARK VINA RESULT:      -7.3      1.651      3.209
REMARK  Name = 
REMARK  5 active torsions:
REMARK  status: ('A' for Active; 'I' for Inactive)
REMARK    1  A    between atoms: C_1  and  C_2
REMARK    2  A    between atoms: C_2  and  N_3
REMARK    3  A    between atoms: C_2  and  C_14
REMARK    4  A    between atoms: N_3  and  C_4
REMARK    5  A    between atoms: C_4  and  C_5
REMARK                            x       y       z     vdW  Elec       q    Type
REMARK                         _______ _______ _______ _____ _____    ______ ____
ROOT
ATOM      1  N   UNL     1       5.791   4.029  16.988  0.00  0.00    +0.000 NA
ATOM      2  H   UNL     1       4.824   3.734  16.832  0.00  0.00    +0.000 HD
ENDROOT
BRANCH   1   4
ATOM      3  C   UNL     1       7.028   6.199  16.783  0.00  0.00    +0.000 C 
ATOM      4  C   UNL     1       6.011   5.233  16.161  0.00  0.00    +0.000 C 
BRANCH   4   5
ATOM      5  C   UNL     1       6.431   4.832  14.747  0.00  0.00    +0.000 A 
ATOM      6  C   UNL     1       5.691   3.904  14.009  0.00  0.00    +0.000 A 
ATOM      7  C   UNL     1       6.085   3.597  12.708  0.00  0.00    +0.000 A 
ATOM      8  C   UNL     1       7.204   4.222  12.174  0.00  0.00    +0.000 A 
ATOM      9  C   UNL     1       7.887   5.128  12.968  0.00  0.00    +0.000 A 
ATOM     10  N   UNL     1       7.531   5.444  14.233  0.00  0.00    +0.000 NA
ENDBRANCH   4   5
ENDBRANCH   1   4
BRANCH   1  11
ATOM     11  C   UNL     1       5.976   4.263  18.415  0.00  0.00    +0.000 C 
BRANCH  11  12
ATOM     12  C   UNL     1       4.786   3.794  19.170  0.00  0.00    +0.000 A 
ATOM     13  C   UNL     1       4.480   2.555  19.702  0.00  0.00    +0.000 A 
ATOM     14  N   UNL     1       3.275   2.568  20.353  0.00  0.00    +0.000 NA
ATOM     15  C   UNL     1       2.844   3.807  20.252  0.00  0.00    +0.000 A 
ATOM     16  C   UNL     1       1.657   4.420  20.742  0.00  0.00    +0.000 A 
ATOM     17  C   UNL     1       1.447   5.734  20.535  0.00  0.00    +0.000 A 
ATOM     18  C   UNL     1       2.412   6.552  19.819  0.00  0.00    +0.000 A 
ATOM     19  C   UNL     1       3.530   5.977  19.342  0.00  0.00    +0.000 A 
ATOM     20  N   UNL     1       3.740   4.610  19.551  0.00  0.00    +0.000 N 
ENDBRANCH  11  12
ENDBRANCH   1  11
TORSDOF 4
ENDMDL
