MODEL 1
REMARK VINA RESULT:      -7.3      0.000      0.000
REMARK  Name = 
REMARK  10 active torsions:
REMARK  status: ('A' for Active; 'I' for Inactive)
REMARK    1  A    between atoms: C_1  and  C_2
REMARK    2  A    between atoms: C_2  and  N_3
REMARK    3  A    between atoms: C_4  and  C_5
REMARK    4  A    between atoms: C_5  and  S_6
REMARK    5  A    between atoms: S_6  and  C_7
REMARK    6  A    between atoms: C_9  and  C_10
REMARK    7  A    between atoms: C_16  and  S_17
REMARK    8  A    between atoms: S_17  and  N_20
REMARK    9  A    between atoms: N_20  and  C_21
REMARK   10  A    between atoms: N_20  and  C_22
REMARK                            x       y       z     vdW  Elec       q    Type
REMARK                         _______ _______ _______ _____ _____    ______ ____
ROOT
ATOM      1  N   UNL     1       3.320   4.363  18.729  0.00  0.00    +0.000 N 
ATOM      2  C   UNL     1       3.821   5.017  17.616  0.00  0.00    +0.000 A 
ATOM      3  N   UNL     1       3.549   6.310  17.690  0.00  0.00    +0.000 NA
ATOM      4  C   UNL     1       2.782   6.481  18.810  0.00  0.00    +0.000 A 
ATOM      5  C   UNL     1       2.257   7.661  19.356  0.00  0.00    +0.000 A 
ATOM      6  C   UNL     1       1.454   7.553  20.500  0.00  0.00    +0.000 A 
ATOM      7  C   UNL     1       1.179   6.313  21.088  0.00  0.00    +0.000 A 
ATOM      8  C   UNL     1       1.714   5.137  20.556  0.00  0.00    +0.000 A 
ATOM      9  C   UNL     1       2.543   5.263  19.432  0.00  0.00    +0.000 A 
ENDROOT
BRANCH   6  10
ATOM     10  S   UNL     1       0.842   9.031  21.288  0.00  0.00    +0.000 S 
ATOM     11  O   UNL     1      -0.499   8.744  21.745  0.00  0.00    +0.000 OA
ATOM     12  O   UNL     1       1.860   9.493  22.207  0.00  0.00    +0.000 OA
BRANCH  10  13
ATOM     13  N   UNL     1       0.728  10.139  20.002  0.00  0.00    +0.000 NA
ATOM     14  C   UNL     1      -0.488  10.076  19.177  0.00  0.00    +0.000 C 
ATOM     15  C   UNL     1       1.186  11.512  20.270  0.00  0.00    +0.000 C 
ENDBRANCH  10  13
ENDBRANCH   6  10
BRANCH   1  17
ATOM     16  C   UNL     1       2.359   2.075  18.964  0.00  0.00    +0.000 C 
ATOM     17  C   UNL     1       3.566   2.993  19.144  0.00  0.00    +0.000 C 
ENDBRANCH   1  17
BRANCH   2  18
ATOM     18  C   UNL     1       4.628   4.390  16.512  0.00  0.00    +0.000 C 
BRANCH  18  19
ATOM     19  S   UNL     1       5.554   5.613  15.536  0.00  0.00    +0.000 S 
BRANCH  19  20
ATOM     20  C   UNL     1       6.629   6.261  16.763  0.00  0.00    +0.000 A 
ATOM     21  N   UNL     1       6.979   7.526  16.798  0.00  0.00    +0.000 NA
ATOM     22  C   UNL     1       7.809   7.762  17.886  0.00  0.00    +0.000 A 
ATOM     23  C   UNL     1       8.325   9.135  18.121  0.00  0.00    +0.000 C 
ATOM     24  C   UNL     1       8.063   6.651  18.669  0.00  0.00    +0.000 A 
ATOM     25  S   UNL     1       7.268   5.281  18.018  0.00  0.00    +0.000 S 
ENDBRANCH  19  20
ENDBRANCH  18  19
ENDBRANCH   2  18
TORSDOF 6
ENDMDL
MODEL 2
REMARK VINA RESULT:      -7.0      1.723      2.161
REMARK  Name = 
REMARK  10 active torsions:
REMARK  status: ('A' for Active; 'I' for Inactive)
REMARK    1  A    between atoms: C_1  and  C_2
REMARK    2  A    between atoms: C_2  and  N_3
REMARK    3  A    between atoms: C_4  and  C_5
REMARK    4  A    between atoms: C_5  and  S_6
REMARK    5  A    between atoms: S_6  and  C_7
REMARK    6  A    between atoms: C_9  and  C_10
REMARK    7  A    between atoms: C_16  and  S_17
REMARK    8  A    between atoms: S_17  and  N_20
REMARK    9  A    between atoms: N_20  and  C_21
REMARK   10  A    between atoms: N_20  and  C_22
REMARK                            x       y       z     vdW  Elec       q    Type
REMARK                         _______ _______ _______ _____ _____    ______ ____
ROOT
ATOM      1  N   UNL     1       2.660   5.741  19.553  0.00  0.00    +0.000 N 
ATOM      2  C   UNL     1       3.159   5.667  18.263  0.00  0.00    +0.000 A 
ATOM      3  N   UNL     1       3.060   6.846  17.672  0.00  0.00    +0.000 NA
ATOM      4  C   UNL     1       2.405   7.667  18.549  0.00  0.00    +0.000 A 
ATOM      5  C   UNL     1       2.075   9.023  18.420  0.00  0.00    +0.000 A 
ATOM      6  C   UNL     1       1.350   9.623  19.460  0.00  0.00    +0.000 A 
ATOM      7  C   UNL     1       0.963   8.901  20.594  0.00  0.00    +0.000 A 
ATOM      8  C   UNL     1       1.304   7.553  20.733  0.00  0.00    +0.000 A 
ATOM      9  C   UNL     1       2.057   6.975  19.701  0.00  0.00    +0.000 A 
ENDROOT
BRANCH   6  10
ATOM     10  S   UNL     1       0.991  11.368  19.389  0.00  0.00    +0.000 S 
ATOM     11  O   UNL     1       1.034  11.866  20.745  0.00  0.00    +0.000 OA
ATOM     12  O   UNL     1       1.822  11.947  18.355  0.00  0.00    +0.000 OA
BRANCH  10  13
ATOM     13  N   UNL     1      -0.630  11.411  18.869  0.00  0.00    +0.000 NA
ATOM     14  C   UNL     1      -1.156  12.717  18.445  0.00  0.00    +0.000 C 
ATOM     15  C   UNL     1      -1.083  10.293  18.027  0.00  0.00    +0.000 C 
ENDBRANCH  10  13
ENDBRANCH   6  10
BRANCH   1  17
ATOM     16  C   UNL     1       1.519   3.863  20.728  0.00  0.00    +0.000 C 
ATOM     17  C   UNL     1       2.759   4.745  20.606  0.00  0.00    +0.000 C 
ENDBRANCH   1  17
BRANCH   2  18
ATOM     18  C   UNL     1       3.797   4.460  17.631  0.00  0.00    +0.000 C 
BRANCH  18  19
ATOM     19  S   UNL     1       4.930   4.892  16.276  0.00  0.00    +0.000 S 
BRANCH  19  20
ATOM     20  C   UNL     1       6.197   5.719  17.164  0.00  0.00    +0.000 A 
ATOM     21  N   UNL     1       6.510   6.976  16.941  0.00  0.00    +0.000 NA
ATOM     22  C   UNL     1       7.524   7.375  17.802  0.00  0.00    +0.000 A 
ATOM     23  C   UNL     1       8.035   8.768  17.726  0.00  0.00    +0.000 C 
ATOM     24  C   UNL     1       7.953   6.397  18.681  0.00  0.00    +0.000 A 
ATOM     25  S   UNL     1       7.089   4.943  18.407  0.00  0.00    +0.000 S 
ENDBRANCH  19  20
ENDBRANCH  18  19
ENDBRANCH   2  18
TORSDOF 6
ENDMDL
MODEL 3
REMARK VINA RESULT:      -7.0      2.972      7.118
REMARK  Name = 
REMARK  10 active torsions:
REMARK  status: ('A' for Active; 'I' for Inactive)
REMARK    1  A    between atoms: C_1  and  C_2
REMARK    2  A    between atoms: C_2  and  N_3
REMARK    3  A    between atoms: C_4  and  C_5
REMARK    4  A    between atoms: C_5  and  S_6
REMARK    5  A    between atoms: S_6  and  C_7
REMARK    6  A    between atoms: C_9  and  C_10
REMARK    7  A    between atoms: C_16  and  S_17
REMARK    8  A    between atoms: S_17  and  N_20
REMARK    9  A    between atoms: N_20  and  C_21
REMARK   10  A    between atoms: N_20  and  C_22
REMARK                            x       y       z     vdW  Elec       q    Type
REMARK                         _______ _______ _______ _____ _____    ______ ____
ROOT
ATOM      1  N   UNL     1       1.702   5.173  19.986  0.00  0.00    +0.000 N 
ATOM      2  C   UNL     1       1.689   6.523  20.293  0.00  0.00    +0.000 A 
ATOM      3  N   UNL     1       2.535   7.173  19.511  0.00  0.00    +0.000 NA
ATOM      4  C   UNL     1       3.173   6.226  18.757  0.00  0.00    +0.000 A 
ATOM      5  C   UNL     1       4.139   6.390  17.754  0.00  0.00    +0.000 A 
ATOM      6  C   UNL     1       4.672   5.236  17.163  0.00  0.00    +0.000 A 
ATOM      7  C   UNL     1       4.262   3.957  17.552  0.00  0.00    +0.000 A 
ATOM      8  C   UNL     1       3.287   3.790  18.540  0.00  0.00    +0.000 A 
ATOM      9  C   UNL     1       2.738   4.953  19.100  0.00  0.00    +0.000 A 
ENDROOT
BRANCH   6  10
ATOM     10  S   UNL     1       5.831   5.393  15.817  0.00  0.00    +0.000 S 
ATOM     11  O   UNL     1       5.897   4.107  15.161  0.00  0.00    +0.000 OA
ATOM     12  O   UNL     1       5.489   6.590  15.079  0.00  0.00    +0.000 OA
BRANCH  10  13
ATOM     13  N   UNL     1       7.316   5.650  16.609  0.00  0.00    +0.000 NA
ATOM     14  C   UNL     1       7.558   6.998  17.145  0.00  0.00    +0.000 C 
ATOM     15  C   UNL     1       7.788   4.572  17.494  0.00  0.00    +0.000 C 
ENDBRANCH  10  13
ENDBRANCH   6  10
BRANCH   1  17
ATOM     16  C   UNL     1       1.437   3.156  21.425  0.00  0.00    +0.000 C 
ATOM     17  C   UNL     1       0.792   4.143  20.455  0.00  0.00    +0.000 C 
ENDBRANCH   1  17
BRANCH   2  18
ATOM     18  C   UNL     1       0.797   7.191  21.305  0.00  0.00    +0.000 C 
BRANCH  18  19
ATOM     19  S   UNL     1       1.406   8.828  21.808  0.00  0.00    +0.000 S 
BRANCH  19  20
ATOM     20  C   UNL     1       0.290   9.869  20.941  0.00  0.00    +0.000 A 
ATOM     21  N   UNL     1      -0.063   9.645  19.696  0.00  0.00    +0.000 NA
ATOM     22  C   UNL     1      -0.972  10.607  19.276  0.00  0.00    +0.000 A 
ATOM     23  C   UNL     1      -1.510  10.543  17.893  0.00  0.00    +0.000 C 
ATOM     24  C   UNL     1      -1.302  11.546  20.236  0.00  0.00    +0.000 A 
ATOM     25  S   UNL     1      -0.438  11.235  21.682  0.00  0.00    +0.000 S 
ENDBRANCH  19  20
ENDBRANCH  18  19
ENDBRANCH   2  18
TORSDOF 6
ENDMDL
MODEL 4
REMARK VINA RESULT:      -7.0      1.961      2.528
REMARK  Name = 
REMARK  10 active torsions:
REMARK  status: ('A' for Active; 'I' for Inactive)
REMARK    1  A    between atoms: C_1  and  C_2
REMARK    2  A    between atoms: C_2  and  N_3
REMARK    3  A    between atoms: C_4  and  C_5
REMARK    4  A    between atoms: C_5  and  S_6
REMARK    5  A    between atoms: S_6  and  C_7
REMARK    6  A    between atoms: C_9  and  C_10
REMARK    7  A    between atoms: C_16  and  S_17
REMARK    8  A    between atoms: S_17  and  N_20
REMARK    9  A    between atoms: N_20  and  C_21
REMARK   10  A    between atoms: N_20  and  C_22
REMARK                            x       y       z     vdW  Elec       q    Type
REMARK                         _______ _______ _______ _____ _____    ______ ____
ROOT
ATOM      1  N   UNL     1       2.794   6.164  19.329  0.00  0.00    +0.000 N 
ATOM      2  C   UNL     1       3.257   6.054  18.028  0.00  0.00    +0.000 A 
ATOM      3  N   UNL     1       3.103   7.205  17.394  0.00  0.00    +0.000 NA
ATOM      4  C   UNL     1       2.448   8.039  18.258  0.00  0.00    +0.000 A 
ATOM      5  C   UNL     1       2.072   9.379  18.087  0.00  0.00    +0.000 A 
ATOM      6  C   UNL     1       1.359   9.997  19.123  0.00  0.00    +0.000 A 
ATOM      7  C   UNL     1       1.028   9.310  20.297  0.00  0.00    +0.000 A 
ATOM      8  C   UNL     1       1.416   7.979  20.477  0.00  0.00    +0.000 A 
ATOM      9  C   UNL     1       2.157   7.384  19.447  0.00  0.00    +0.000 A 
ENDROOT
BRANCH   6  10
ATOM     10  S   UNL     1       0.942  11.726  18.995  0.00  0.00    +0.000 S 
ATOM     11  O   UNL     1       1.929  12.338  18.134  0.00  0.00    +0.000 OA
ATOM     12  O   UNL     1      -0.470  11.817  18.692  0.00  0.00    +0.000 OA
BRANCH  10  13
ATOM     13  N   UNL     1       1.197  12.307  20.575  0.00  0.00    +0.000 NA
ATOM     14  C   UNL     1       2.189  13.380  20.736  0.00  0.00    +0.000 C 
ATOM     15  C   UNL     1       0.001  12.481  21.416  0.00  0.00    +0.000 C 
ENDBRANCH  10  13
ENDBRANCH   6  10
BRANCH   1  17
ATOM     16  C   UNL     1       1.702   4.389  20.695  0.00  0.00    +0.000 C 
ATOM     17  C   UNL     1       2.956   5.215  20.416  0.00  0.00    +0.000 C 
ENDBRANCH   1  17
BRANCH   2  18
ATOM     18  C   UNL     1       3.915   4.843  17.424  0.00  0.00    +0.000 C 
BRANCH  18  19
ATOM     19  S   UNL     1       5.115   5.267  16.127  0.00  0.00    +0.000 S 
BRANCH  19  20
ATOM     20  C   UNL     1       6.365   6.043  17.083  0.00  0.00    +0.000 A 
ATOM     21  N   UNL     1       6.666   7.315  16.953  0.00  0.00    +0.000 NA
ATOM     22  C   UNL     1       7.668   7.663  17.850  0.00  0.00    +0.000 A 
ATOM     23  C   UNL     1       8.163   9.063  17.878  0.00  0.00    +0.000 C 
ATOM     24  C   UNL     1       8.101   6.629  18.660  0.00  0.00    +0.000 A 
ATOM     25  S   UNL     1       7.257   5.189  18.275  0.00  0.00    +0.000 S 
ENDBRANCH  19  20
ENDBRANCH  18  19
ENDBRANCH   2  18
TORSDOF 6
ENDMDL
MODEL 5
REMARK VINA RESULT:      -6.9      2.396      3.111
REMARK  Name = 
REMARK  10 active torsions:
REMARK  status: ('A' for Active; 'I' for Inactive)
REMARK    1  A    between atoms: C_1  and  C_2
REMARK    2  A    between atoms: C_2  and  N_3
REMARK    3  A    between atoms: C_4  and  C_5
REMARK    4  A    between atoms: C_5  and  S_6
REMARK    5  A    between atoms: S_6  and  C_7
REMARK    6  A    between atoms: C_9  and  C_10
REMARK    7  A    between atoms: C_16  and  S_17
REMARK    8  A    between atoms: S_17  and  N_20
REMARK    9  A    between atoms: N_20  and  C_21
REMARK   10  A    between atoms: N_20  and  C_22
REMARK                            x       y       z     vdW  Elec       q    Type
REMARK                         _______ _______ _______ _____ _____    ______ ____
ROOT
ATOM      1  N   UNL     1       2.258   5.707  19.932  0.00  0.00    +0.000 N 
ATOM      2  C   UNL     1       2.717   5.588  18.631  0.00  0.00    +0.000 A 
ATOM      3  N   UNL     1       2.690   6.767  18.032  0.00  0.00    +0.000 NA
ATOM      4  C   UNL     1       2.118   7.639  18.917  0.00  0.00    +0.000 A 
ATOM      5  C   UNL     1       1.884   9.015  18.785  0.00  0.00    +0.000 A 
ATOM      6  C   UNL     1       1.230   9.673  19.837  0.00  0.00    +0.000 A 
ATOM      7  C   UNL     1       0.820   8.989  20.986  0.00  0.00    +0.000 A 
ATOM      8  C   UNL     1       1.066   7.620  21.128  0.00  0.00    +0.000 A 
ATOM      9  C   UNL     1       1.750   6.982  20.084  0.00  0.00    +0.000 A 
ENDROOT
BRANCH   6  10
ATOM     10  S   UNL     1       0.997  11.439  19.759  0.00  0.00    +0.000 S 
ATOM     11  O   UNL     1       1.303  11.966  21.070  0.00  0.00    +0.000 OA
ATOM     12  O   UNL     1       1.685  11.923  18.582  0.00  0.00    +0.000 OA
BRANCH  10  13
ATOM     13  N   UNL     1      -0.680  11.600  19.513  0.00  0.00    +0.000 NA
ATOM     14  C   UNL     1      -1.319  10.609  18.634  0.00  0.00    +0.000 C 
ATOM     15  C   UNL     1      -1.490  11.951  20.690  0.00  0.00    +0.000 C 
ENDBRANCH  10  13
ENDBRANCH   6  10
BRANCH   1  17
ATOM     16  C   UNL     1       1.234   3.637  20.870  0.00  0.00    +0.000 C 
ATOM     17  C   UNL     1       2.311   4.714  20.990  0.00  0.00    +0.000 C 
ENDBRANCH   1  17
BRANCH   2  18
ATOM     18  C   UNL     1       3.251   4.334  17.993  0.00  0.00    +0.000 C 
BRANCH  18  19
ATOM     19  S   UNL     1       4.978   3.993  18.447  0.00  0.00    +0.000 S 
BRANCH  19  20
ATOM     20  C   UNL     1       5.785   4.330  16.926  0.00  0.00    +0.000 A 
ATOM     21  N   UNL     1       5.441   3.750  15.799  0.00  0.00    +0.000 NA
ATOM     22  C   UNL     1       6.227   4.224  14.758  0.00  0.00    +0.000 A 
ATOM     23  C   UNL     1       6.005   3.702  13.385  0.00  0.00    +0.000 C 
ATOM     24  C   UNL     1       7.158   5.178  15.126  0.00  0.00    +0.000 A 
ATOM     25  S   UNL     1       7.064   5.469  16.811  0.00  0.00    +0.000 S 
ENDBRANCH  19  20
ENDBRANCH  18  19
ENDBRANCH   2  18
TORSDOF 6
ENDMDL
MODEL 6
REMARK VINA RESULT:      -6.8      3.308      7.512
REMARK  Name = 
REMARK  10 active torsions:
REMARK  status: ('A' for Active; 'I' for Inactive)
REMARK    1  A    between atoms: C_1  and  C_2
REMARK    2  A    between atoms: C_2  and  N_3
REMARK    3  A    between atoms: C_4  and  C_5
REMARK    4  A    between atoms: C_5  and  S_6
REMARK    5  A    between atoms: S_6  and  C_7
REMARK    6  A    between atoms: C_9  and  C_10
REMARK    7  A    between atoms: C_16  and  S_17
REMARK    8  A    between atoms: S_17  and  N_20
REMARK    9  A    between atoms: N_20  and  C_21
REMARK   10  A    between atoms: N_20  and  C_22
REMARK                            x       y       z     vdW  Elec       q    Type
REMARK                         _______ _______ _______ _____ _____    ______ ____
ROOT
ATOM      1  N   UNL     1       2.443   5.625  20.155  0.00  0.00    +0.000 N 
ATOM      2  C   UNL     1       2.100   6.942  19.904  0.00  0.00    +0.000 A 
ATOM      3  N   UNL     1       2.909   7.456  18.992  0.00  0.00    +0.000 NA
ATOM      4  C   UNL     1       3.845   6.496  18.721  0.00  0.00    +0.000 A 
ATOM      5  C   UNL     1       4.908   6.524  17.807  0.00  0.00    +0.000 A 
ATOM      6  C   UNL     1       5.761   5.412  17.758  0.00  0.00    +0.000 A 
ATOM      7  C   UNL     1       5.566   4.303  18.590  0.00  0.00    +0.000 A 
ATOM      8  C   UNL     1       4.498   4.265  19.490  0.00  0.00    +0.000 A 
ATOM      9  C   UNL     1       3.635   5.370  19.505  0.00  0.00    +0.000 A 
ENDROOT
BRANCH   6  10
ATOM     10  S   UNL     1       7.068   5.357  16.547  0.00  0.00    +0.000 S 
ATOM     11  O   UNL     1       7.582   6.703  16.416  0.00  0.00    +0.000 OA
ATOM     12  O   UNL     1       7.941   4.256  16.891  0.00  0.00    +0.000 OA
BRANCH  10  13
ATOM     13  N   UNL     1       6.248   4.971  15.106  0.00  0.00    +0.000 NA
ATOM     14  C   UNL     1       7.068   4.824  13.894  0.00  0.00    +0.000 C 
ATOM     15  C   UNL     1       5.166   3.977  15.208  0.00  0.00    +0.000 C 
ENDBRANCH  10  13
ENDBRANCH   6  10
BRANCH   1  17
ATOM     16  C   UNL     1       0.922   3.653  20.060  0.00  0.00    +0.000 C 
ATOM     17  C   UNL     1       1.702   4.641  20.925  0.00  0.00    +0.000 C 
ENDBRANCH   1  17
BRANCH   2  18
ATOM     18  C   UNL     1       0.933   7.681  20.503  0.00  0.00    +0.000 C 
BRANCH  18  19
ATOM     19  S   UNL     1       1.419   8.765  21.880  0.00  0.00    +0.000 S 
BRANCH  19  20
ATOM     20  C   UNL     1       0.292  10.092  21.660  0.00  0.00    +0.000 A 
ATOM     21  N   UNL     1      -0.070  10.881  22.646  0.00  0.00    +0.000 NA
ATOM     22  C   UNL     1      -0.944  11.855  22.181  0.00  0.00    +0.000 A 
ATOM     23  C   UNL     1      -1.480  12.863  23.133  0.00  0.00    +0.000 C 
ATOM     24  C   UNL     1      -1.219  11.786  20.828  0.00  0.00    +0.000 A 
ATOM     25  S   UNL     1      -0.387  10.461  20.129  0.00  0.00    +0.000 S 
ENDBRANCH  19  20
ENDBRANCH  18  19
ENDBRANCH   2  18
TORSDOF 6
ENDMDL
MODEL 7
REMARK VINA RESULT:      -6.8      3.400      7.542
REMARK  Name = 
REMARK  10 active torsions:
REMARK  status: ('A' for Active; 'I' for Inactive)
REMARK    1  A    between atoms: C_1  and  C_2
REMARK    2  A    between atoms: C_2  and  N_3
REMARK    3  A    between atoms: C_4  and  C_5
REMARK    4  A    between atoms: C_5  and  S_6
REMARK    5  A    between atoms: S_6  and  C_7
REMARK    6  A    between atoms: C_9  and  C_10
REMARK    7  A    between atoms: C_16  and  S_17
REMARK    8  A    between atoms: S_17  and  N_20
REMARK    9  A    between atoms: N_20  and  C_21
REMARK   10  A    between atoms: N_20  and  C_22
REMARK                            x       y       z     vdW  Elec       q    Type
REMARK                         _______ _______ _______ _____ _____    ______ ____
ROOT
ATOM      1  N   UNL     1       2.442   6.284  19.822  0.00  0.00    +0.000 N 
ATOM      2  C   UNL     1       2.073   7.495  19.263  0.00  0.00    +0.000 A 
ATOM      3  N   UNL     1       2.897   7.810  18.277  0.00  0.00    +0.000 NA
ATOM      4  C   UNL     1       3.865   6.844  18.258  0.00  0.00    +0.000 A 
ATOM      5  C   UNL     1       4.955   6.693  17.389  0.00  0.00    +0.000 A 
ATOM      6  C   UNL     1       5.837   5.628  17.621  0.00  0.00    +0.000 A 
ATOM      7  C   UNL     1       5.646   4.737  18.683  0.00  0.00    +0.000 A 
ATOM      8  C   UNL     1       4.552   4.874  19.541  0.00  0.00    +0.000 A 
ATOM      9  C   UNL     1       3.660   5.923  19.278  0.00  0.00    +0.000 A 
ENDROOT
BRANCH   6  10
ATOM     10  S   UNL     1       7.182   5.337  16.487  0.00  0.00    +0.000 S 
ATOM     11  O   UNL     1       7.808   6.615  16.234  0.00  0.00    +0.000 OA
ATOM     12  O   UNL     1       7.948   4.218  16.992  0.00  0.00    +0.000 OA
BRANCH  10  13
ATOM     13  N   UNL     1       6.391   4.853  15.060  0.00  0.00    +0.000 NA
ATOM     14  C   UNL     1       7.169   4.918  13.815  0.00  0.00    +0.000 C 
ATOM     15  C   UNL     1       5.529   3.663  15.154  0.00  0.00    +0.000 C 
ENDBRANCH  10  13
ENDBRANCH   6  10
BRANCH   1  17
ATOM     16  C   UNL     1       1.017   4.268  20.159  0.00  0.00    +0.000 C 
ATOM     17  C   UNL     1       1.704   5.482  20.781  0.00  0.00    +0.000 C 
ENDBRANCH   1  17
BRANCH   2  18
ATOM     18  C   UNL     1       0.870   8.315  19.646  0.00  0.00    +0.000 C 
BRANCH  18  19
ATOM     19  S   UNL     1       1.129  10.098  19.408  0.00  0.00    +0.000 S 
BRANCH  19  20
ATOM     20  C   UNL     1      -0.371  10.540  18.610  0.00  0.00    +0.000 A 
ATOM     21  N   UNL     1      -0.857   9.861  17.595  0.00  0.00    +0.000 NA
ATOM     22  C   UNL     1      -2.061  10.417  17.183  0.00  0.00    +0.000 A 
ATOM     23  C   UNL     1      -2.792   9.803  16.044  0.00  0.00    +0.000 C 
ATOM     24  C   UNL     1      -2.472  11.515  17.917  0.00  0.00    +0.000 A 
ATOM     25  S   UNL     1      -1.316  11.874  19.129  0.00  0.00    +0.000 S 
ENDBRANCH  19  20
ENDBRANCH  18  19
ENDBRANCH   2  18
TORSDOF 6
ENDMDL
MODEL 8
REMARK VINA RESULT:      -6.8      3.226      7.268
REMARK  Name = 
REMARK  10 active torsions:
REMARK  status: ('A' for Active; 'I' for Inactive)
REMARK    1  A    between atoms: C_1  and  C_2
REMARK    2  A    between atoms: C_2  and  N_3
REMARK    3  A    between atoms: C_4  and  C_5
REMARK    4  A    between atoms: C_5  and  S_6
REMARK    5  A    between atoms: S_6  and  C_7
REMARK    6  A    between atoms: C_9  and  C_10
REMARK    7  A    between atoms: C_16  and  S_17
REMARK    8  A    between atoms: S_17  and  N_20
REMARK    9  A    between atoms: N_20  and  C_21
REMARK   10  A    between atoms: N_20  and  C_22
REMARK                            x       y       z     vdW  Elec       q    Type
REMARK                         _______ _______ _______ _____ _____    ______ ____
ROOT
ATOM      1  N   UNL     1       2.432   5.193  20.226  0.00  0.00    +0.000 N 
ATOM      2  C   UNL     1       2.074   6.520  20.061  0.00  0.00    +0.000 A 
ATOM      3  N   UNL     1       2.890   7.106  19.201  0.00  0.00    +0.000 NA
ATOM      4  C   UNL     1       3.844   6.180  18.879  0.00  0.00    +0.000 A 
ATOM      5  C   UNL     1       4.920   6.286  17.987  0.00  0.00    +0.000 A 
ATOM      6  C   UNL     1       5.789   5.190  17.874  0.00  0.00    +0.000 A 
ATOM      7  C   UNL     1       5.597   4.024  18.623  0.00  0.00    +0.000 A 
ATOM      8  C   UNL     1       4.516   3.909  19.501  0.00  0.00    +0.000 A 
ATOM      9  C   UNL     1       3.637   4.999  19.579  0.00  0.00    +0.000 A 
ENDROOT
BRANCH   6  10
ATOM     10  S   UNL     1       7.115   5.238  16.684  0.00  0.00    +0.000 S 
ATOM     11  O   UNL     1       7.513   6.621  16.547  0.00  0.00    +0.000 OA
ATOM     12  O   UNL     1       8.074   4.219  17.052  0.00  0.00    +0.000 OA
BRANCH  10  13
ATOM     13  N   UNL     1       6.354   4.769  15.235  0.00  0.00    +0.000 NA
ATOM     14  C   UNL     1       7.106   4.988  13.990  0.00  0.00    +0.000 C 
ATOM     15  C   UNL     1       5.614   3.497  15.259  0.00  0.00    +0.000 C 
ENDBRANCH  10  13
ENDBRANCH   6  10
BRANCH   1  17
ATOM     16  C   UNL     1       0.882   3.257  19.974  0.00  0.00    +0.000 C 
ATOM     17  C   UNL     1       1.693   4.148  20.913  0.00  0.00    +0.000 C 
ENDBRANCH   1  17
BRANCH   2  18
ATOM     18  C   UNL     1       0.888   7.200  20.692  0.00  0.00    +0.000 C 
BRANCH  18  19
ATOM     19  S   UNL     1       1.298   8.830  21.385  0.00  0.00    +0.000 S 
BRANCH  19  20
ATOM     20  C   UNL     1       0.344   9.873  20.345  0.00  0.00    +0.000 A 
ATOM     21  N   UNL     1      -0.629  10.627  20.802  0.00  0.00    +0.000 NA
ATOM     22  C   UNL     1      -1.190  11.364  19.766  0.00  0.00    +0.000 A 
ATOM     23  C   UNL     1      -2.312  12.292  20.061  0.00  0.00    +0.000 C 
ATOM     24  C   UNL     1      -0.608  11.154  18.529  0.00  0.00    +0.000 A 
ATOM     25  S   UNL     1       0.646   9.995  18.660  0.00  0.00    +0.000 S 
ENDBRANCH  19  20
ENDBRANCH  18  19
ENDBRANCH   2  18
TORSDOF 6
ENDMDL
MODEL 9
REMARK VINA RESULT:      -6.8      3.226      7.261
REMARK  Name = 
REMARK  10 active torsions:
REMARK  status: ('A' for Active; 'I' for Inactive)
REMARK    1  A    between atoms: C_1  and  C_2
REMARK    2  A    between atoms: C_2  and  N_3
REMARK    3  A    between atoms: C_4  and  C_5
REMARK    4  A    between atoms: C_5  and  S_6
REMARK    5  A    between atoms: S_6  and  C_7
REMARK    6  A    between atoms: C_9  and  C_10
REMARK    7  A    between atoms: C_16  and  S_17
REMARK    8  A    between atoms: S_17  and  N_20
REMARK    9  A    between atoms: N_20  and  C_21
REMARK   10  A    between atoms: N_20  and  C_22
REMARK                            x       y       z     vdW  Elec       q    Type
REMARK                         _______ _______ _______ _____ _____    ______ ____
ROOT
ATOM      1  N   UNL     1       2.394   5.190  20.223  0.00  0.00    +0.000 N 
ATOM      2  C   UNL     1       2.076   6.527  20.056  0.00  0.00    +0.000 A 
ATOM      3  N   UNL     1       2.919   7.090  19.205  0.00  0.00    +0.000 NA
ATOM      4  C   UNL     1       3.849   6.137  18.892  0.00  0.00    +0.000 A 
ATOM      5  C   UNL     1       4.937   6.212  18.012  0.00  0.00    +0.000 A 
ATOM      6  C   UNL     1       5.775   5.092  17.909  0.00  0.00    +0.000 A 
ATOM      7  C   UNL     1       5.542   3.931  18.654  0.00  0.00    +0.000 A 
ATOM      8  C   UNL     1       4.448   3.847  19.521  0.00  0.00    +0.000 A 
ATOM      9  C   UNL     1       3.600   4.962  19.589  0.00  0.00    +0.000 A 
ENDROOT
BRANCH   6  10
ATOM     10  S   UNL     1       7.115   5.102  16.732  0.00  0.00    +0.000 S 
ATOM     11  O   UNL     1       7.405   6.485  16.430  0.00  0.00    +0.000 OA
ATOM     12  O   UNL     1       8.145   4.216  17.232  0.00  0.00    +0.000 OA
BRANCH  10  13
ATOM     13  N   UNL     1       6.421   4.399  15.346  0.00  0.00    +0.000 NA
ATOM     14  C   UNL     1       4.954   4.309  15.310  0.00  0.00    +0.000 C 
ATOM     15  C   UNL     1       7.019   4.764  14.051  0.00  0.00    +0.000 C 
ENDBRANCH  10  13
ENDBRANCH   6  10
BRANCH   1  17
ATOM     16  C   UNL     1       0.839   3.262  19.949  0.00  0.00    +0.000 C 
ATOM     17  C   UNL     1       1.618   4.167  20.901  0.00  0.00    +0.000 C 
ENDBRANCH   1  17
BRANCH   2  18
ATOM     18  C   UNL     1       0.904   7.241  20.674  0.00  0.00    +0.000 C 
BRANCH  18  19
ATOM     19  S   UNL     1       1.386   8.761  21.546  0.00  0.00    +0.000 S 
BRANCH  19  20
ATOM     20  C   UNL     1       0.249   9.905  20.855  0.00  0.00    +0.000 A 
ATOM     21  N   UNL     1      -0.101   9.876  19.589  0.00  0.00    +0.000 NA
ATOM     22  C   UNL     1      -1.030  10.875  19.327  0.00  0.00    +0.000 A 
ATOM     23  C   UNL     1      -1.568  11.023  17.950  0.00  0.00    +0.000 C 
ATOM     24  C   UNL     1      -1.376  11.643  20.424  0.00  0.00    +0.000 A 
ATOM     25  S   UNL     1      -0.504  11.121  21.803  0.00  0.00    +0.000 S 
ENDBRANCH  19  20
ENDBRANCH  18  19
ENDBRANCH   2  18
TORSDOF 6
ENDMDL
