MODEL 1
REMARK VINA RESULT:      -7.6      0.000      0.000
REMARK  Name = 
REMARK  2 active torsions:
REMARK  status: ('A' for Active; 'I' for Inactive)
REMARK    1  A    between atoms: N_1  and  C_2
REMARK    2  A    between atoms: C_12  and  N_13
REMARK                            x       y       z     vdW  Elec       q    Type
REMARK                         _______ _______ _______ _____ _____    ______ ____
ROOT
ATOM      1  C   UNL     1       7.080   4.939  14.944  0.00  0.00    +0.000 A 
ATOM      2  C   UNL     1       5.903   4.407  14.373  0.00  0.00    +0.000 A 
ATOM      3  C   UNL     1       4.841   3.940  15.161  0.00  0.00    +0.000 A 
ATOM      4  C   UNL     1       4.954   4.045  16.534  0.00  0.00    +0.000 A 
ATOM      5  C   UNL     1       6.111   4.612  17.093  0.00  0.00    +0.000 A 
ATOM      6  C   UNL     1       7.167   5.079  16.331  0.00  0.00    +0.000 A 
ATOM      7  C   UNL     1       5.934   4.628  18.563  0.00  0.00    +0.000 C 
ATOM      8  O   UNL     1       6.723   5.038  19.387  0.00  0.00    +0.000 OA
ATOM      9  C   UNL     1       4.600   4.039  18.832  0.00  0.00    +0.000 A 
ATOM     10  C   UNL     1       3.952   3.859  20.041  0.00  0.00    +0.000 A 
ATOM     11  C   UNL     1       2.682   3.267  20.018  0.00  0.00    +0.000 A 
ATOM     12  C   UNL     1       2.093   2.945  18.764  0.00  0.00    +0.000 A 
ATOM     13 CL   UNL     1       0.501   2.261  18.698  0.00  0.00    +0.000 Cl
ATOM     14  C   UNL     1       2.769   3.141  17.551  0.00  0.00    +0.000 A 
ATOM     15  C   UNL     1       4.034   3.694  17.594  0.00  0.00    +0.000 A 
ENDROOT
BRANCH   1  16
ATOM     16  N   UNL     1       8.038   5.535  14.115  0.00  0.00    +0.000 N 
ATOM     17  H   UNL     1       7.749   6.419  13.706  0.00  0.00    +0.000 HD
ATOM     18  H   UNL     1       8.451   4.908  13.431  0.00  0.00    +0.000 HD
ENDBRANCH   1  16
BRANCH  11  19
ATOM     19  N   UNL     1       1.931   3.223  21.208  0.00  0.00    +0.000 N 
ATOM     20  H   UNL     1       1.969   2.343  21.709  0.00  0.00    +0.000 HD
ATOM     21  H   UNL     1       0.983   3.578  21.095  0.00  0.00    +0.000 HD
ENDBRANCH  11  19
TORSDOF 2
ENDMDL
MODEL 2
REMARK VINA RESULT:      -7.3      2.033      5.480
REMARK  Name = 
REMARK  2 active torsions:
REMARK  status: ('A' for Active; 'I' for Inactive)
REMARK    1  A    between atoms: N_1  and  C_2
REMARK    2  A    between atoms: C_12  and  N_13
REMARK                            x       y       z     vdW  Elec       q    Type
REMARK                         _______ _______ _______ _____ _____    ______ ____
ROOT
ATOM      1  C   UNL     1       2.157   2.942  20.110  0.00  0.00    +0.000 A 
ATOM      2  C   UNL     1       1.830   2.330  18.880  0.00  0.00    +0.000 A 
ATOM      3  C   UNL     1       2.548   2.597  17.705  0.00  0.00    +0.000 A 
ATOM      4  C   UNL     1       3.626   3.459  17.781  0.00  0.00    +0.000 A 
ATOM      5  C   UNL     1       3.969   4.031  19.017  0.00  0.00    +0.000 A 
ATOM      6  C   UNL     1       3.274   3.778  20.186  0.00  0.00    +0.000 A 
ATOM      7  C   UNL     1       5.172   4.867  18.802  0.00  0.00    +0.000 C 
ATOM      8  O   UNL     1       5.761   5.524  19.634  0.00  0.00    +0.000 OA
ATOM      9  C   UNL     1       5.516   4.746  17.365  0.00  0.00    +0.000 A 
ATOM     10  C   UNL     1       6.572   5.307  16.668  0.00  0.00    +0.000 A 
ATOM     11  C   UNL     1       6.668   5.034  15.298  0.00  0.00    +0.000 A 
ATOM     12  C   UNL     1       5.727   4.148  14.703  0.00  0.00    +0.000 A 
ATOM     13 CL   UNL     1       5.849   3.748  13.021  0.00  0.00    +0.000 Cl
ATOM     14  C   UNL     1       4.667   3.589  15.431  0.00  0.00    +0.000 A 
ATOM     15  C   UNL     1       4.567   3.895  16.774  0.00  0.00    +0.000 A 
ENDROOT
BRANCH   1  16
ATOM     16  N   UNL     1       1.513   2.521  21.280  0.00  0.00    +0.000 N 
ATOM     17  H   UNL     1       2.140   2.252  22.032  0.00  0.00    +0.000 HD
ATOM     18  H   UNL     1       0.773   1.842  21.131  0.00  0.00    +0.000 HD
ENDBRANCH   1  16
BRANCH  11  19
ATOM     19  N   UNL     1       7.818   5.450  14.600  0.00  0.00    +0.000 N 
ATOM     20  H   UNL     1       7.698   5.559  13.599  0.00  0.00    +0.000 HD
ATOM     21  H   UNL     1       8.649   4.918  14.848  0.00  0.00    +0.000 HD
ENDBRANCH  11  19
TORSDOF 2
ENDMDL
MODEL 3
REMARK VINA RESULT:      -6.9      2.626      5.852
REMARK  Name = 
REMARK  2 active torsions:
REMARK  status: ('A' for Active; 'I' for Inactive)
REMARK    1  A    between atoms: N_1  and  C_2
REMARK    2  A    between atoms: C_12  and  N_13
REMARK                            x       y       z     vdW  Elec       q    Type
REMARK                         _______ _______ _______ _____ _____    ______ ____
ROOT
ATOM      1  C   UNL     1       1.498   2.900  21.210  0.00  0.00    +0.000 A 
ATOM      2  C   UNL     1       2.071   1.915  20.376  0.00  0.00    +0.000 A 
ATOM      3  C   UNL     1       2.807   2.249  19.230  0.00  0.00    +0.000 A 
ATOM      4  C   UNL     1       2.996   3.588  18.944  0.00  0.00    +0.000 A 
ATOM      5  C   UNL     1       2.456   4.561  19.801  0.00  0.00    +0.000 A 
ATOM      6  C   UNL     1       1.729   4.250  20.936  0.00  0.00    +0.000 A 
ATOM      7  C   UNL     1       2.848   5.888  19.272  0.00  0.00    +0.000 C 
ATOM      8  O   UNL     1       2.564   6.971  19.737  0.00  0.00    +0.000 OA
ATOM      9  C   UNL     1       3.654   5.632  18.054  0.00  0.00    +0.000 A 
ATOM     10  C   UNL     1       4.280   6.536  17.214  0.00  0.00    +0.000 A 
ATOM     11  C   UNL     1       4.985   6.026  16.116  0.00  0.00    +0.000 A 
ATOM     12  C   UNL     1       5.084   4.616  15.953  0.00  0.00    +0.000 A 
ATOM     13 CL   UNL     1       5.993   3.953  14.635  0.00  0.00    +0.000 Cl
ATOM     14  C   UNL     1       4.443   3.720  16.821  0.00  0.00    +0.000 A 
ATOM     15  C   UNL     1       3.724   4.240  17.879  0.00  0.00    +0.000 A 
ENDROOT
BRANCH   1  16
ATOM     16  N   UNL     1       0.912   2.518  22.422  0.00  0.00    +0.000 N 
ATOM     17  H   UNL     1       0.985   1.527  22.632  0.00  0.00    +0.000 HD
ATOM     18  H   UNL     1      -0.028   2.875  22.566  0.00  0.00    +0.000 HD
ENDBRANCH   1  16
BRANCH  11  19
ATOM     19  N   UNL     1       5.767   6.905  15.342  0.00  0.00    +0.000 N 
ATOM     20  H   UNL     1       6.520   6.468  14.823  0.00  0.00    +0.000 HD
ATOM     21  H   UNL     1       6.064   7.732  15.856  0.00  0.00    +0.000 HD
ENDBRANCH  11  19
TORSDOF 2
ENDMDL
MODEL 4
REMARK VINA RESULT:      -6.9      4.340      5.344
REMARK  Name = 
REMARK  2 active torsions:
REMARK  status: ('A' for Active; 'I' for Inactive)
REMARK    1  A    between atoms: N_1  and  C_2
REMARK    2  A    between atoms: C_12  and  N_13
REMARK                            x       y       z     vdW  Elec       q    Type
REMARK                         _______ _______ _______ _____ _____    ______ ____
ROOT
ATOM      1  C   UNL     1       1.498   9.953  18.604  0.00  0.00    +0.000 A 
ATOM      2  C   UNL     1       0.923   9.397  19.767  0.00  0.00    +0.000 A 
ATOM      3  C   UNL     1       1.196   8.082  20.174  0.00  0.00    +0.000 A 
ATOM      4  C   UNL     1       2.083   7.338  19.420  0.00  0.00    +0.000 A 
ATOM      5  C   UNL     1       2.681   7.913  18.287  0.00  0.00    +0.000 A 
ATOM      6  C   UNL     1       2.426   9.208  17.872  0.00  0.00    +0.000 A 
ATOM      7  C   UNL     1       3.604   6.907  17.711  0.00  0.00    +0.000 C 
ATOM      8  O   UNL     1       4.295   7.034  16.723  0.00  0.00    +0.000 OA
ATOM      9  C   UNL     1       3.511   5.708  18.579  0.00  0.00    +0.000 A 
ATOM     10  C   UNL     1       4.196   4.509  18.488  0.00  0.00    +0.000 A 
ATOM     11  C   UNL     1       3.918   3.525  19.446  0.00  0.00    +0.000 A 
ATOM     12  C   UNL     1       3.005   3.823  20.496  0.00  0.00    +0.000 A 
ATOM     13 CL   UNL     1       2.679   2.646  21.726  0.00  0.00    +0.000 Cl
ATOM     14  C   UNL     1       2.326   5.048  20.568  0.00  0.00    +0.000 A 
ATOM     15  C   UNL     1       2.587   5.994  19.597  0.00  0.00    +0.000 A 
ENDROOT
BRANCH   1  16
ATOM     16  N   UNL     1       1.320  11.315  18.333  0.00  0.00    +0.000 N 
ATOM     17  H   UNL     1       1.985  11.704  17.672  0.00  0.00    +0.000 HD
ATOM     18  H   UNL     1       1.208  11.897  19.158  0.00  0.00    +0.000 HD
ENDBRANCH   1  16
BRANCH  11  19
ATOM     19  N   UNL     1       4.714   2.365  19.480  0.00  0.00    +0.000 N 
ATOM     20  H   UNL     1       5.692   2.507  19.251  0.00  0.00    +0.000 HD
ATOM     21  H   UNL     1       4.298   1.580  18.983  0.00  0.00    +0.000 HD
ENDBRANCH  11  19
TORSDOF 2
ENDMDL
MODEL 5
REMARK VINA RESULT:      -6.8      3.910      5.000
REMARK  Name = 
REMARK  2 active torsions:
REMARK  status: ('A' for Active; 'I' for Inactive)
REMARK    1  A    between atoms: N_1  and  C_2
REMARK    2  A    between atoms: C_12  and  N_13
REMARK                            x       y       z     vdW  Elec       q    Type
REMARK                         _______ _______ _______ _____ _____    ______ ____
ROOT
ATOM      1  C   UNL     1       3.651   1.989  18.290  0.00  0.00    +0.000 A 
ATOM      2  C   UNL     1       3.833   2.866  17.199  0.00  0.00    +0.000 A 
ATOM      3  C   UNL     1       3.453   4.214  17.259  0.00  0.00    +0.000 A 
ATOM      4  C   UNL     1       2.920   4.689  18.442  0.00  0.00    +0.000 A 
ATOM      5  C   UNL     1       2.779   3.820  19.536  0.00  0.00    +0.000 A 
ATOM      6  C   UNL     1       3.150   2.488  19.496  0.00  0.00    +0.000 A 
ATOM      7  C   UNL     1       2.226   4.606  20.662  0.00  0.00    +0.000 C 
ATOM      8  O   UNL     1       1.960   4.201  21.773  0.00  0.00    +0.000 OA
ATOM      9  C   UNL     1       2.054   5.992  20.161  0.00  0.00    +0.000 A 
ATOM     10  C   UNL     1       1.600   7.114  20.832  0.00  0.00    +0.000 A 
ATOM     11  C   UNL     1       1.529   8.317  20.118  0.00  0.00    +0.000 A 
ATOM     12  C   UNL     1       1.986   8.348  18.770  0.00  0.00    +0.000 A 
ATOM     13 CL   UNL     1       1.961   9.832  17.875  0.00  0.00    +0.000 Cl
ATOM     14  C   UNL     1       2.445   7.197  18.113  0.00  0.00    +0.000 A 
ATOM     15  C   UNL     1       2.476   6.012  18.822  0.00  0.00    +0.000 A 
ENDROOT
BRANCH   1  16
ATOM     16  N   UNL     1       4.191   0.699  18.234  0.00  0.00    +0.000 N 
ATOM     17  H   UNL     1       4.977   0.599  17.599  0.00  0.00    +0.000 HD
ATOM     18  H   UNL     1       3.504  -0.040  18.119  0.00  0.00    +0.000 HD
ENDBRANCH   1  16
BRANCH  11  19
ATOM     19  N   UNL     1       1.233   9.504  20.813  0.00  0.00    +0.000 N 
ATOM     20  H   UNL     1       0.478  10.056  20.421  0.00  0.00    +0.000 HD
ATOM     21  H   UNL     1       2.060  10.056  21.031  0.00  0.00    +0.000 HD
ENDBRANCH  11  19
TORSDOF 2
ENDMDL
MODEL 6
REMARK VINA RESULT:      -6.7      4.160      5.477
REMARK  Name = 
REMARK  2 active torsions:
REMARK  status: ('A' for Active; 'I' for Inactive)
REMARK    1  A    between atoms: N_1  and  C_2
REMARK    2  A    between atoms: C_12  and  N_13
REMARK                            x       y       z     vdW  Elec       q    Type
REMARK                         _______ _______ _______ _____ _____    ______ ____
ROOT
ATOM      1  C   UNL     1       4.042   2.735  19.477  0.00  0.00    +0.000 A 
ATOM      2  C   UNL     1       3.154   3.063  20.525  0.00  0.00    +0.000 A 
ATOM      3  C   UNL     1       2.574   4.336  20.634  0.00  0.00    +0.000 A 
ATOM      4  C   UNL     1       2.864   5.271  19.659  0.00  0.00    +0.000 A 
ATOM      5  C   UNL     1       3.716   4.923  18.598  0.00  0.00    +0.000 A 
ATOM      6  C   UNL     1       4.296   3.673  18.473  0.00  0.00    +0.000 A 
ATOM      7  C   UNL     1       3.810   6.095  17.698  0.00  0.00    +0.000 C 
ATOM      8  O   UNL     1       4.458   6.181  16.678  0.00  0.00    +0.000 OA
ATOM      9  C   UNL     1       2.956   7.151  18.295  0.00  0.00    +0.000 A 
ATOM     10  C   UNL     1       2.681   8.423  17.825  0.00  0.00    +0.000 A 
ATOM     11  C   UNL     1       1.834   9.233  18.591  0.00  0.00    +0.000 A 
ATOM     12  C   UNL     1       1.246   8.696  19.771  0.00  0.00    +0.000 A 
ATOM     13 CL   UNL     1       0.153   9.655  20.714  0.00  0.00    +0.000 Cl
ATOM     14  C   UNL     1       1.539   7.402  20.226  0.00  0.00    +0.000 A 
ATOM     15  C   UNL     1       2.402   6.628  19.475  0.00  0.00    +0.000 A 
ENDROOT
BRANCH   1  16
ATOM     16  N   UNL     1       4.466   1.410  19.325  0.00  0.00    +0.000 N 
ATOM     17  H   UNL     1       4.189   0.977  18.449  0.00  0.00    +0.000 HD
ATOM     18  H   UNL     1       4.280   0.814  20.126  0.00  0.00    +0.000 HD
ENDBRANCH   1  16
BRANCH  11  19
ATOM     19  N   UNL     1       1.404  10.463  18.059  0.00  0.00    +0.000 N 
ATOM     20  H   UNL     1       1.487  10.549  17.051  0.00  0.00    +0.000 HD
ATOM     21  H   UNL     1       1.776  11.267  18.560  0.00  0.00    +0.000 HD
ENDBRANCH  11  19
TORSDOF 2
ENDMDL
MODEL 7
REMARK VINA RESULT:      -6.5      4.392      4.666
REMARK  Name = 
REMARK  2 active torsions:
REMARK  status: ('A' for Active; 'I' for Inactive)
REMARK    1  A    between atoms: N_1  and  C_2
REMARK    2  A    between atoms: C_12  and  N_13
REMARK                            x       y       z     vdW  Elec       q    Type
REMARK                         _______ _______ _______ _____ _____    ______ ____
ROOT
ATOM      1  C   UNL     1       5.335   4.646  16.764  0.00  0.00    +0.000 A 
ATOM      2  C   UNL     1       5.198   5.850  16.039  0.00  0.00    +0.000 A 
ATOM      3  C   UNL     1       4.354   6.885  16.470  0.00  0.00    +0.000 A 
ATOM      4  C   UNL     1       3.673   6.716  17.661  0.00  0.00    +0.000 A 
ATOM      5  C   UNL     1       3.846   5.533  18.396  0.00  0.00    +0.000 A 
ATOM      6  C   UNL     1       4.675   4.503  17.987  0.00  0.00    +0.000 A 
ATOM      7  C   UNL     1       3.034   5.650  19.629  0.00  0.00    +0.000 C 
ATOM      8  O   UNL     1       2.922   4.825  20.510  0.00  0.00    +0.000 OA
ATOM      9  C   UNL     1       2.377   6.978  19.572  0.00  0.00    +0.000 A 
ATOM     10  C   UNL     1       1.541   7.580  20.497  0.00  0.00    +0.000 A 
ATOM     11  C   UNL     1       1.046   8.856  20.196  0.00  0.00    +0.000 A 
ATOM     12  C   UNL     1       1.474   9.498  19.000  0.00  0.00    +0.000 A 
ATOM     13 CL   UNL     1       0.922  11.097  18.624  0.00  0.00    +0.000 Cl
ATOM     14  C   UNL     1       2.325   8.868  18.080  0.00  0.00    +0.000 A 
ATOM     15  C   UNL     1       2.777   7.597  18.377  0.00  0.00    +0.000 A 
ENDROOT
BRANCH   1  16
ATOM     16  N   UNL     1       6.306   3.717  16.376  0.00  0.00    +0.000 N 
ATOM     17  H   UNL     1       6.616   3.808  15.413  0.00  0.00    +0.000 HD
ATOM     18  H   UNL     1       6.090   2.755  16.623  0.00  0.00    +0.000 HD
ENDBRANCH   1  16
BRANCH  11  19
ATOM     19  N   UNL     1       0.333   9.559  21.185  0.00  0.00    +0.000 N 
ATOM     20  H   UNL     1      -0.494   9.088  21.536  0.00  0.00    +0.000 HD
ATOM     21  H   UNL     1       0.164  10.532  20.939  0.00  0.00    +0.000 HD
ENDBRANCH  11  19
TORSDOF 2
ENDMDL
MODEL 8
REMARK VINA RESULT:      -6.5      2.747      6.035
REMARK  Name = 
REMARK  2 active torsions:
REMARK  status: ('A' for Active; 'I' for Inactive)
REMARK    1  A    between atoms: N_1  and  C_2
REMARK    2  A    between atoms: C_12  and  N_13
REMARK                            x       y       z     vdW  Elec       q    Type
REMARK                         _______ _______ _______ _____ _____    ______ ____
ROOT
ATOM      1  C   UNL     1       1.731   3.446  20.501  0.00  0.00    +0.000 A 
ATOM      2  C   UNL     1       2.198   4.727  20.867  0.00  0.00    +0.000 A 
ATOM      3  C   UNL     1       3.260   5.349  20.194  0.00  0.00    +0.000 A 
ATOM      4  C   UNL     1       3.830   4.689  19.122  0.00  0.00    +0.000 A 
ATOM      5  C   UNL     1       3.332   3.433  18.740  0.00  0.00    +0.000 A 
ATOM      6  C   UNL     1       2.285   2.804  19.390  0.00  0.00    +0.000 A 
ATOM      7  C   UNL     1       4.100   2.991  17.553  0.00  0.00    +0.000 C 
ATOM      8  O   UNL     1       3.964   1.954  16.941  0.00  0.00    +0.000 OA
ATOM      9  C   UNL     1       5.076   4.069  17.260  0.00  0.00    +0.000 A 
ATOM     10  C   UNL     1       6.001   4.156  16.235  0.00  0.00    +0.000 A 
ATOM     11  C   UNL     1       6.816   5.295  16.187  0.00  0.00    +0.000 A 
ATOM     12  C   UNL     1       6.612   6.330  17.141  0.00  0.00    +0.000 A 
ATOM     13 CL   UNL     1       7.568   7.775  17.076  0.00  0.00    +0.000 Cl
ATOM     14  C   UNL     1       5.665   6.220  18.169  0.00  0.00    +0.000 A 
ATOM     15  C   UNL     1       4.893   5.076  18.222  0.00  0.00    +0.000 A 
ENDROOT
BRANCH   1  16
ATOM     16  N   UNL     1       0.570   2.941  21.098  0.00  0.00    +0.000 N 
ATOM     17  H   UNL     1      -0.042   2.434  20.466  0.00  0.00    +0.000 HD
ATOM     18  H   UNL     1       0.067   3.611  21.671  0.00  0.00    +0.000 HD
ENDBRANCH   1  16
BRANCH  11  19
ATOM     19  N   UNL     1       7.647   5.489  15.067  0.00  0.00    +0.000 N 
ATOM     20  H   UNL     1       7.917   4.642  14.579  0.00  0.00    +0.000 HD
ATOM     21  H   UNL     1       8.431   6.110  15.255  0.00  0.00    +0.000 HD
ENDBRANCH  11  19
TORSDOF 2
ENDMDL
MODEL 9
REMARK VINA RESULT:      -6.4      5.477      6.356
REMARK  Name = 
REMARK  2 active torsions:
REMARK  status: ('A' for Active; 'I' for Inactive)
REMARK    1  A    between atoms: N_1  and  C_2
REMARK    2  A    between atoms: C_12  and  N_13
REMARK                            x       y       z     vdW  Elec       q    Type
REMARK                         _______ _______ _______ _____ _____    ______ ____
ROOT
ATOM      1  C   UNL     1       3.547   4.773  18.430  0.00  0.00    +0.000 A 
ATOM      2  C   UNL     1       3.092   4.534  19.745  0.00  0.00    +0.000 A 
ATOM      3  C   UNL     1       2.440   5.523  20.496  0.00  0.00    +0.000 A 
ATOM      4  C   UNL     1       2.214   6.750  19.901  0.00  0.00    +0.000 A 
ATOM      5  C   UNL     1       2.634   6.966  18.579  0.00  0.00    +0.000 A 
ATOM      6  C   UNL     1       3.277   6.002  17.822  0.00  0.00    +0.000 A 
ATOM      7  C   UNL     1       2.227   8.338  18.200  0.00  0.00    +0.000 C 
ATOM      8  O   UNL     1       2.420   8.889  17.137  0.00  0.00    +0.000 OA
ATOM      9  C   UNL     1       1.539   8.912  19.381  0.00  0.00    +0.000 A 
ATOM     10  C   UNL     1       0.944  10.153  19.529  0.00  0.00    +0.000 A 
ATOM     11  C   UNL     1       0.358  10.452  20.766  0.00  0.00    +0.000 A 
ATOM     12  C   UNL     1       0.338   9.454  21.780  0.00  0.00    +0.000 A 
ATOM     13 CL   UNL     1      -0.426   9.774  23.302  0.00  0.00    +0.000 Cl
ATOM     14  C   UNL     1       0.945   8.202  21.604  0.00  0.00    +0.000 A 
ATOM     15  C   UNL     1       1.548   7.936  20.391  0.00  0.00    +0.000 A 
ENDROOT
BRANCH   1  16
ATOM     16  N   UNL     1       4.047   3.708  17.671  0.00  0.00    +0.000 N 
ATOM     17  H   UNL     1       3.974   2.800  18.120  0.00  0.00    +0.000 HD
ATOM     18  H   UNL     1       4.967   3.871  17.273  0.00  0.00    +0.000 HD
ENDBRANCH   1  16
BRANCH  11  19
ATOM     19  N   UNL     1      -0.396  11.634  20.893  0.00  0.00    +0.000 N 
ATOM     20  H   UNL     1      -1.339  11.507  21.244  0.00  0.00    +0.000 HD
ATOM     21  H   UNL     1      -0.355  12.225  20.065  0.00  0.00    +0.000 HD
ENDBRANCH  11  19
TORSDOF 2
ENDMDL
