MODEL 1
REMARK VINA RESULT:      -6.9      0.000      0.000
REMARK  Name = 
REMARK  5 active torsions:
REMARK  status: ('A' for Active; 'I' for Inactive)
REMARK    1  A    between atoms: C_1  and  N_2
REMARK    2  A    between atoms: C_6  and  C_7
REMARK    3  A    between atoms: N_14  and  C_15
REMARK    4  A    between atoms: C_23  and  N_24
REMARK    5  A    between atoms: N_28  and  C_29
REMARK                            x       y       z     vdW  Elec       q    Type
REMARK                         _______ _______ _______ _____ _____    ______ ____
ROOT
ATOM      1  C   UNL     1       3.833  15.222  18.043  0.00  0.00    +0.000 C 
ATOM      2  N   UNL     1       2.484  15.238  18.576  0.00  0.00    +0.000 N 
ATOM      3  C   UNL     1       1.995  14.061  19.153  0.00  0.00    +0.000 A 
ATOM      4  O   UNL     1       2.682  13.055  19.308  0.00  0.00    +0.000 OA
ATOM      5  C   UNL     1       0.602  14.142  19.560  0.00  0.00    +0.000 A 
ATOM      6  C   UNL     1      -0.270  13.182  20.094  0.00  0.00    +0.000 A 
ATOM      7  N   UNL     1      -1.466  13.885  20.413  0.00  0.00    +0.000 N 
ATOM      8  C   UNL     1      -1.389  15.127  19.811  0.00  0.00    +0.000 A 
ATOM      9  C   UNL     1      -0.091  15.352  19.441  0.00  0.00    +0.000 A 
ATOM     10  N   UNL     1       0.510  16.519  19.007  0.00  0.00    +0.000 N 
ATOM     11  C   UNL     1      -0.139  17.818  19.049  0.00  0.00    +0.000 C 
ATOM     12  C   UNL     1       1.836  16.482  18.562  0.00  0.00    +0.000 A 
ATOM     13  O   UNL     1       2.413  17.505  18.180  0.00  0.00    +0.000 OA
ENDROOT
BRANCH   7  14
ATOM     14  C   UNL     1      -2.629  13.413  21.110  0.00  0.00    +0.000 A 
ATOM     15  C   UNL     1      -2.657  13.708  22.489  0.00  0.00    +0.000 A 
ATOM     16  C   UNL     1      -3.808  13.519  23.232  0.00  0.00    +0.000 A 
ATOM     17  C   UNL     1      -4.931  12.992  22.619  0.00  0.00    +0.000 A 
ATOM     18  C   UNL     1      -4.919  12.601  21.273  0.00  0.00    +0.000 A 
ATOM     19  C   UNL     1      -6.118  12.044  20.798  0.00  0.00    +0.000 A 
ATOM     20  C   UNL     1      -6.236  11.567  19.505  0.00  0.00    +0.000 A 
ATOM     21  C   UNL     1      -5.146  11.652  18.664  0.00  0.00    +0.000 A 
ATOM     22  C   UNL     1      -3.946  12.276  19.075  0.00  0.00    +0.000 A 
ATOM     23  C   UNL     1      -3.762  12.762  20.440  0.00  0.00    +0.000 A 
BRANCH  22  24
ATOM     24  N   UNL     1      -2.918  12.238  18.109  0.00  0.00    +0.000 N 
ATOM     25  H   UNL     1      -2.194  11.551  18.294  0.00  0.00    +0.000 HD
ATOM     26  H   UNL     1      -3.270  12.137  17.164  0.00  0.00    +0.000 HD
ENDBRANCH  22  24
ENDBRANCH   7  14
BRANCH   6  27
ATOM     27  C   UNL     1      -0.003  11.737  20.325  0.00  0.00    +0.000 A 
ATOM     28  C   UNL     1       0.179  10.817  19.282  0.00  0.00    +0.000 A 
ATOM     29  C   UNL     1       0.560   9.492  19.541  0.00  0.00    +0.000 A 
ATOM     30  C   UNL     1       0.671   9.044  20.854  0.00  0.00    +0.000 A 
ATOM     31 CL   UNL     1       1.126   7.417  21.174  0.00  0.00    +0.000 Cl
ATOM     32  C   UNL     1       0.423   9.914  21.907  0.00  0.00    +0.000 A 
ATOM     33  C   UNL     1       0.120  11.254  21.641  0.00  0.00    +0.000 A 
ENDBRANCH   6  27
TORSDOF 3
ENDMDL
MODEL 2
REMARK VINA RESULT:      -6.8      0.888      1.329
REMARK  Name = 
REMARK  5 active torsions:
REMARK  status: ('A' for Active; 'I' for Inactive)
REMARK    1  A    between atoms: C_1  and  N_2
REMARK    2  A    between atoms: C_6  and  C_7
REMARK    3  A    between atoms: N_14  and  C_15
REMARK    4  A    between atoms: C_23  and  N_24
REMARK    5  A    between atoms: N_28  and  C_29
REMARK                            x       y       z     vdW  Elec       q    Type
REMARK                         _______ _______ _______ _____ _____    ______ ____
ROOT
ATOM      1  C   UNL     1       4.662  15.202  17.885  0.00  0.00    +0.000 C 
ATOM      2  N   UNL     1       3.258  15.184  18.251  0.00  0.00    +0.000 N 
ATOM      3  C   UNL     1       2.750  14.018  18.835  0.00  0.00    +0.000 A 
ATOM      4  O   UNL     1       3.452  13.055  19.129  0.00  0.00    +0.000 OA
ATOM      5  C   UNL     1       1.316  14.056  19.066  0.00  0.00    +0.000 A 
ATOM      6  C   UNL     1       0.424  13.086  19.548  0.00  0.00    +0.000 A 
ATOM      7  N   UNL     1      -0.829  13.749  19.681  0.00  0.00    +0.000 N 
ATOM      8  C   UNL     1      -0.728  14.959  19.020  0.00  0.00    +0.000 A 
ATOM      9  C   UNL     1       0.595  15.224  18.795  0.00  0.00    +0.000 A 
ATOM     10  N   UNL     1       1.198  16.393  18.369  0.00  0.00    +0.000 N 
ATOM     11  C   UNL     1       0.498  17.660  18.256  0.00  0.00    +0.000 C 
ATOM     12  C   UNL     1       2.568  16.394  18.088  0.00  0.00    +0.000 A 
ATOM     13  O   UNL     1       3.146  17.421  17.718  0.00  0.00    +0.000 OA
ENDROOT
BRANCH   7  14
ATOM     14  C   UNL     1      -2.049  13.261  20.261  0.00  0.00    +0.000 A 
ATOM     15  C   UNL     1      -2.254  13.623  21.608  0.00  0.00    +0.000 A 
ATOM     16  C   UNL     1      -3.477  13.421  22.220  0.00  0.00    +0.000 A 
ATOM     17  C   UNL     1      -4.497  12.815  21.508  0.00  0.00    +0.000 A 
ATOM     18  C   UNL     1      -4.309  12.358  20.196  0.00  0.00    +0.000 A 
ATOM     19  C   UNL     1      -5.420  11.726  19.614  0.00  0.00    +0.000 A 
ATOM     20  C   UNL     1      -5.365  11.181  18.345  0.00  0.00    +0.000 A 
ATOM     21  C   UNL     1      -4.186  11.272  17.634  0.00  0.00    +0.000 A 
ATOM     22  C   UNL     1      -3.068  11.967  18.149  0.00  0.00    +0.000 A 
ATOM     23  C   UNL     1      -3.068  12.528  19.498  0.00  0.00    +0.000 A 
BRANCH  22  24
ATOM     24  N   UNL     1      -1.930  11.927  17.315  0.00  0.00    +0.000 N 
ATOM     25  H   UNL     1      -1.446  11.035  17.310  0.00  0.00    +0.000 HD
ATOM     26  H   UNL     1      -2.127  12.230  16.368  0.00  0.00    +0.000 HD
ENDBRANCH  22  24
ENDBRANCH   7  14
BRANCH   6  27
ATOM     27  C   UNL     1       0.718  11.670  19.894  0.00  0.00    +0.000 A 
ATOM     28  C   UNL     1       0.733  11.192  21.213  0.00  0.00    +0.000 A 
ATOM     29  C   UNL     1       0.885   9.825  21.489  0.00  0.00    +0.000 A 
ATOM     30  C   UNL     1       1.118   8.928  20.451  0.00  0.00    +0.000 A 
ATOM     31 CL   UNL     1       1.316   7.254  20.788  0.00  0.00    +0.000 Cl
ATOM     32  C   UNL     1       1.185   9.384  19.142  0.00  0.00    +0.000 A 
ATOM     33  C   UNL     1       0.955  10.737  18.867  0.00  0.00    +0.000 A 
ENDBRANCH   6  27
TORSDOF 3
ENDMDL
MODEL 3
REMARK VINA RESULT:      -6.7      3.351      6.337
REMARK  Name = 
REMARK  5 active torsions:
REMARK  status: ('A' for Active; 'I' for Inactive)
REMARK    1  A    between atoms: C_1  and  N_2
REMARK    2  A    between atoms: C_6  and  C_7
REMARK    3  A    between atoms: N_14  and  C_15
REMARK    4  A    between atoms: C_23  and  N_24
REMARK    5  A    between atoms: N_28  and  C_29
REMARK                            x       y       z     vdW  Elec       q    Type
REMARK                         _______ _______ _______ _____ _____    ______ ____
ROOT
ATOM      1  C   UNL     1      -3.856  17.903  23.741  0.00  0.00    +0.000 C 
ATOM      2  N   UNL     1      -3.758  16.578  23.160  0.00  0.00    +0.000 N 
ATOM      3  C   UNL     1      -2.605  16.268  22.430  0.00  0.00    +0.000 A 
ATOM      4  O   UNL     1      -1.646  17.028  22.337  0.00  0.00    +0.000 OA
ATOM      5  C   UNL     1      -2.646  14.960  21.798  0.00  0.00    +0.000 A 
ATOM      6  C   UNL     1      -1.749  14.314  20.933  0.00  0.00    +0.000 A 
ATOM      7  N   UNL     1      -2.266  12.999  20.756  0.00  0.00    +0.000 N 
ATOM      8  C   UNL     1      -3.556  12.992  21.253  0.00  0.00    +0.000 A 
ATOM      9  C   UNL     1      -3.732  14.107  22.026  0.00  0.00    +0.000 A 
ATOM     10  N   UNL     1      -4.762  14.423  22.893  0.00  0.00    +0.000 N 
ATOM     11  C   UNL     1      -5.799  13.483  23.281  0.00  0.00    +0.000 C 
ATOM     12  C   UNL     1      -4.791  15.687  23.489  0.00  0.00    +0.000 A 
ATOM     13  O   UNL     1      -5.686  16.004  24.279  0.00  0.00    +0.000 OA
ENDROOT
BRANCH   7  14
ATOM     14  C   UNL     1      -1.670  11.881  20.080  0.00  0.00    +0.000 A 
ATOM     15  C   UNL     1      -1.876  11.849  18.686  0.00  0.00    +0.000 A 
ATOM     16  C   UNL     1      -1.175  10.967  17.885  0.00  0.00    +0.000 A 
ATOM     17  C   UNL     1      -0.291  10.077  18.469  0.00  0.00    +0.000 A 
ATOM     18  C   UNL     1      -0.123  10.014  19.860  0.00  0.00    +0.000 A 
ATOM     19  C   UNL     1       0.775   9.034  20.313  0.00  0.00    +0.000 A 
ATOM     20  C   UNL     1       1.003   8.822  21.660  0.00  0.00    +0.000 A 
ATOM     21  C   UNL     1       0.332   9.605  22.577  0.00  0.00    +0.000 A 
ATOM     22  C   UNL     1      -0.520  10.655  22.165  0.00  0.00    +0.000 A 
ATOM     23  C   UNL     1      -0.818  10.893  20.755  0.00  0.00    +0.000 A 
BRANCH  22  24
ATOM     24  N   UNL     1      -1.160  11.328  23.228  0.00  0.00    +0.000 N 
ATOM     25  H   UNL     1      -0.526  11.748  23.900  0.00  0.00    +0.000 HD
ATOM     26  H   UNL     1      -1.840  12.009  22.908  0.00  0.00    +0.000 HD
ENDBRANCH  22  24
ENDBRANCH   7  14
BRANCH   6  27
ATOM     27  C   UNL     1      -0.494  14.859  20.351  0.00  0.00    +0.000 A 
ATOM     28  C   UNL     1       0.781  14.508  20.818  0.00  0.00    +0.000 A 
ATOM     29  C   UNL     1       1.941  14.941  20.158  0.00  0.00    +0.000 A 
ATOM     30  C   UNL     1       1.842  15.809  19.075  0.00  0.00    +0.000 A 
ATOM     31 CL   UNL     1       3.263  16.350  18.272  0.00  0.00    +0.000 Cl
ATOM     32  C   UNL     1       0.595  16.233  18.638  0.00  0.00    +0.000 A 
ATOM     33  C   UNL     1      -0.560  15.736  19.252  0.00  0.00    +0.000 A 
ENDBRANCH   6  27
TORSDOF 3
ENDMDL
MODEL 4
REMARK VINA RESULT:      -6.7      1.698      2.888
REMARK  Name = 
REMARK  5 active torsions:
REMARK  status: ('A' for Active; 'I' for Inactive)
REMARK    1  A    between atoms: C_1  and  N_2
REMARK    2  A    between atoms: C_6  and  C_7
REMARK    3  A    between atoms: N_14  and  C_15
REMARK    4  A    between atoms: C_23  and  N_24
REMARK    5  A    between atoms: N_28  and  C_29
REMARK                            x       y       z     vdW  Elec       q    Type
REMARK                         _______ _______ _______ _____ _____    ______ ____
ROOT
ATOM      1  C   UNL     1       3.809  15.202  21.302  0.00  0.00    +0.000 C 
ATOM      2  N   UNL     1       2.606  14.884  20.556  0.00  0.00    +0.000 N 
ATOM      3  C   UNL     1       2.159  13.558  20.570  0.00  0.00    +0.000 A 
ATOM      4  O   UNL     1       2.682  12.682  21.253  0.00  0.00    +0.000 OA
ATOM      5  C   UNL     1       1.013  13.316  19.709  0.00  0.00    +0.000 A 
ATOM      6  C   UNL     1       0.324  12.138  19.384  0.00  0.00    +0.000 A 
ATOM      7  N   UNL     1      -0.790  12.550  18.599  0.00  0.00    +0.000 N 
ATOM      8  C   UNL     1      -0.579  13.868  18.240  0.00  0.00    +0.000 A 
ATOM      9  C   UNL     1       0.409  14.383  19.035  0.00  0.00    +0.000 A 
ATOM     10  N   UNL     1       0.812  15.695  19.197  0.00  0.00    +0.000 N 
ATOM     11  C   UNL     1       0.087  16.829  18.651  0.00  0.00    +0.000 C 
ATOM     12  C   UNL     1       1.937  15.974  19.979  0.00  0.00    +0.000 A 
ATOM     13  O   UNL     1       2.322  17.134  20.160  0.00  0.00    +0.000 OA
ENDROOT
BRANCH   7  14
ATOM     14  C   UNL     1      -1.893  11.765  18.121  0.00  0.00    +0.000 A 
ATOM     15  C   UNL     1      -1.574  10.851  17.096  0.00  0.00    +0.000 A 
ATOM     16  C   UNL     1      -2.476   9.879  16.704  0.00  0.00    +0.000 A 
ATOM     17  C   UNL     1      -3.724   9.835  17.300  0.00  0.00    +0.000 A 
ATOM     18  C   UNL     1      -4.116  10.779  18.259  0.00  0.00    +0.000 A 
ATOM     19  C   UNL     1      -5.425  10.635  18.746  0.00  0.00    +0.000 A 
ATOM     20  C   UNL     1      -5.965  11.523  19.657  0.00  0.00    +0.000 A 
ATOM     21  C   UNL     1      -5.187  12.572  20.102  0.00  0.00    +0.000 A 
ATOM     22  C   UNL     1      -3.839  12.711  19.700  0.00  0.00    +0.000 A 
ATOM     23  C   UNL     1      -3.237  11.818  18.713  0.00  0.00    +0.000 A 
BRANCH  22  24
ATOM     24  N   UNL     1      -3.200  13.861  20.212  0.00  0.00    +0.000 N 
ATOM     25  H   UNL     1      -3.833  14.555  20.596  0.00  0.00    +0.000 HD
ATOM     26  H   UNL     1      -2.469  13.640  20.878  0.00  0.00    +0.000 HD
ENDBRANCH  22  24
ENDBRANCH   7  14
BRANCH   6  27
ATOM     27  C   UNL     1       0.650  10.748  19.800  0.00  0.00    +0.000 A 
ATOM     28  C   UNL     1       0.184  10.178  20.994  0.00  0.00    +0.000 A 
ATOM     29  C   UNL     1       0.404   8.823  21.286  0.00  0.00    +0.000 A 
ATOM     30  C   UNL     1       1.177   8.044  20.431  0.00  0.00    +0.000 A 
ATOM     31 CL   UNL     1       1.458   6.387  20.793  0.00  0.00    +0.000 Cl
ATOM     32  C   UNL     1       1.715   8.602  19.279  0.00  0.00    +0.000 A 
ATOM     33  C   UNL     1       1.426   9.933  18.955  0.00  0.00    +0.000 A 
ENDBRANCH   6  27
TORSDOF 3
ENDMDL
MODEL 5
REMARK VINA RESULT:      -6.7      1.327      1.699
REMARK  Name = 
REMARK  5 active torsions:
REMARK  status: ('A' for Active; 'I' for Inactive)
REMARK    1  A    between atoms: C_1  and  N_2
REMARK    2  A    between atoms: C_6  and  C_7
REMARK    3  A    between atoms: N_14  and  C_15
REMARK    4  A    between atoms: C_23  and  N_24
REMARK    5  A    between atoms: N_28  and  C_29
REMARK                            x       y       z     vdW  Elec       q    Type
REMARK                         _______ _______ _______ _____ _____    ______ ____
ROOT
ATOM      1  C   UNL     1       2.020  16.243  18.375  0.00  0.00    +0.000 C 
ATOM      2  N   UNL     1       0.756  16.095  19.072  0.00  0.00    +0.000 N 
ATOM      3  C   UNL     1       0.463  14.849  19.637  0.00  0.00    +0.000 A 
ATOM      4  O   UNL     1       1.260  13.914  19.649  0.00  0.00    +0.000 OA
ATOM      5  C   UNL     1      -0.867  14.767  20.217  0.00  0.00    +0.000 A 
ATOM      6  C   UNL     1      -1.564  13.698  20.801  0.00  0.00    +0.000 A 
ATOM      7  N   UNL     1      -2.772  14.258  21.305  0.00  0.00    +0.000 N 
ATOM      8  C   UNL     1      -2.895  15.526  20.770  0.00  0.00    +0.000 A 
ATOM      9  C   UNL     1      -1.684  15.902  20.255  0.00  0.00    +0.000 A 
ATOM     10  N   UNL     1      -1.261  17.143  19.817  0.00  0.00    +0.000 N 
ATOM     11  C   UNL     1      -2.023  18.364  20.013  0.00  0.00    +0.000 C 
ATOM     12  C   UNL     1      -0.007  17.264  19.210  0.00  0.00    +0.000 A 
ATOM     13  O   UNL     1       0.413  18.358  18.817  0.00  0.00    +0.000 OA
ENDROOT
BRANCH   7  14
ATOM     14  C   UNL     1      -3.783  13.637  22.113  0.00  0.00    +0.000 A 
ATOM     15  C   UNL     1      -3.604  13.778  23.505  0.00  0.00    +0.000 A 
ATOM     16  C   UNL     1      -4.609  13.434  24.389  0.00  0.00    +0.000 A 
ATOM     17  C   UNL     1      -5.789  12.904  23.899  0.00  0.00    +0.000 A 
ATOM     18  C   UNL     1      -5.975  12.662  22.531  0.00  0.00    +0.000 A 
ATOM     19  C   UNL     1      -7.207  12.082  22.185  0.00  0.00    +0.000 A 
ATOM     20  C   UNL     1      -7.509  11.741  20.879  0.00  0.00    +0.000 A 
ATOM     21  C   UNL     1      -6.574  11.989  19.895  0.00  0.00    +0.000 A 
ATOM     22  C   UNL     1      -5.355  12.642  20.186  0.00  0.00    +0.000 A 
ATOM     23  C   UNL     1      -4.977  12.989  21.554  0.00  0.00    +0.000 A 
BRANCH  22  24
ATOM     24  N   UNL     1      -4.495  12.778  19.075  0.00  0.00    +0.000 N 
ATOM     25  H   UNL     1      -4.887  12.449  18.199  0.00  0.00    +0.000 HD
ATOM     26  H   UNL     1      -4.134  13.720  18.971  0.00  0.00    +0.000 HD
ENDBRANCH  22  24
ENDBRANCH   7  14
BRANCH   6  27
ATOM     27  C   UNL     1      -1.129  12.280  20.914  0.00  0.00    +0.000 A 
ATOM     28  C   UNL     1      -1.138  11.389  19.831  0.00  0.00    +0.000 A 
ATOM     29  C   UNL     1      -0.597  10.100  19.947  0.00  0.00    +0.000 A 
ATOM     30  C   UNL     1      -0.125   9.652  21.177  0.00  0.00    +0.000 A 
ATOM     31 CL   UNL     1       0.528   8.068  21.325  0.00  0.00    +0.000 Cl
ATOM     32  C   UNL     1      -0.173  10.487  22.285  0.00  0.00    +0.000 A 
ATOM     33  C   UNL     1      -0.642  11.798  22.144  0.00  0.00    +0.000 A 
ENDBRANCH   6  27
TORSDOF 3
ENDMDL
MODEL 6
REMARK VINA RESULT:      -6.7      3.237      6.097
REMARK  Name = 
REMARK  5 active torsions:
REMARK  status: ('A' for Active; 'I' for Inactive)
REMARK    1  A    between atoms: C_1  and  N_2
REMARK    2  A    between atoms: C_6  and  C_7
REMARK    3  A    between atoms: N_14  and  C_15
REMARK    4  A    between atoms: C_23  and  N_24
REMARK    5  A    between atoms: N_28  and  C_29
REMARK                            x       y       z     vdW  Elec       q    Type
REMARK                         _______ _______ _______ _____ _____    ______ ____
ROOT
ATOM      1  C   UNL     1      -1.232  16.577  25.196  0.00  0.00    +0.000 C 
ATOM      2  N   UNL     1      -1.620  15.483  24.327  0.00  0.00    +0.000 N 
ATOM      3  C   UNL     1      -0.922  15.324  23.125  0.00  0.00    +0.000 A 
ATOM      4  O   UNL     1       0.053  16.006  22.821  0.00  0.00    +0.000 OA
ATOM      5  C   UNL     1      -1.452  14.272  22.274  0.00  0.00    +0.000 A 
ATOM      6  C   UNL     1      -1.100  13.852  20.982  0.00  0.00    +0.000 A 
ATOM      7  N   UNL     1      -1.886  12.692  20.728  0.00  0.00    +0.000 N 
ATOM      8  C   UNL     1      -2.859  12.629  21.708  0.00  0.00    +0.000 A 
ATOM      9  C   UNL     1      -2.506  13.471  22.728  0.00  0.00    +0.000 A 
ATOM     10  N   UNL     1      -3.040  13.586  23.997  0.00  0.00    +0.000 N 
ATOM     11  C   UNL     1      -4.005  12.651  24.549  0.00  0.00    +0.000 C 
ATOM     12  C   UNL     1      -2.595  14.612  24.837  0.00  0.00    +0.000 A 
ATOM     13  O   UNL     1      -3.037  14.742  25.983  0.00  0.00    +0.000 OA
ENDROOT
BRANCH   7  14
ATOM     14  C   UNL     1      -1.822  11.788  19.615  0.00  0.00    +0.000 A 
ATOM     15  C   UNL     1      -2.846  11.947  18.658  0.00  0.00    +0.000 A 
ATOM     16  C   UNL     1      -2.781  11.308  17.434  0.00  0.00    +0.000 A 
ATOM     17  C   UNL     1      -1.715  10.469  17.166  0.00  0.00    +0.000 A 
ATOM     18  C   UNL     1      -0.721  10.211  18.121  0.00  0.00    +0.000 A 
ATOM     19  C   UNL     1       0.276   9.306  17.723  0.00  0.00    +0.000 A 
ATOM     20  C   UNL     1       1.291   8.919  18.579  0.00  0.00    +0.000 A 
ATOM     21  C   UNL     1       1.322   9.447  19.853  0.00  0.00    +0.000 A 
ATOM     22  C   UNL     1       0.385  10.420  20.269  0.00  0.00    +0.000 A 
ATOM     23  C   UNL     1      -0.724  10.833  19.413  0.00  0.00    +0.000 A 
BRANCH  22  24
ATOM     24  N   UNL     1       0.532  10.822  21.614  0.00  0.00    +0.000 N 
ATOM     25  H   UNL     1       1.190  10.264  22.149  0.00  0.00    +0.000 HD
ATOM     26  H   UNL     1       0.744  11.809  21.708  0.00  0.00    +0.000 HD
ENDBRANCH  22  24
ENDBRANCH   7  14
BRANCH   6  27
ATOM     27  C   UNL     1      -0.089  14.454  20.072  0.00  0.00    +0.000 A 
ATOM     28  C   UNL     1      -0.363  15.557  19.249  0.00  0.00    +0.000 A 
ATOM     29  C   UNL     1       0.653  16.177  18.505  0.00  0.00    +0.000 A 
ATOM     30  C   UNL     1       1.937  15.643  18.502  0.00  0.00    +0.000 A 
ATOM     31 CL   UNL     1       3.181  16.394  17.582  0.00  0.00    +0.000 Cl
ATOM     32  C   UNL     1       2.219  14.507  19.249  0.00  0.00    +0.000 A 
ATOM     33  C   UNL     1       1.221  13.940  20.049  0.00  0.00    +0.000 A 
ENDBRANCH   6  27
TORSDOF 3
ENDMDL
MODEL 7
REMARK VINA RESULT:      -6.7      0.981      1.465
REMARK  Name = 
REMARK  5 active torsions:
REMARK  status: ('A' for Active; 'I' for Inactive)
REMARK    1  A    between atoms: C_1  and  N_2
REMARK    2  A    between atoms: C_6  and  C_7
REMARK    3  A    between atoms: N_14  and  C_15
REMARK    4  A    between atoms: C_23  and  N_24
REMARK    5  A    between atoms: N_28  and  C_29
REMARK                            x       y       z     vdW  Elec       q    Type
REMARK                         _______ _______ _______ _____ _____    ______ ____
ROOT
ATOM      1  C   UNL     1       4.223  15.744  19.994  0.00  0.00    +0.000 C 
ATOM      2  N   UNL     1       2.780  15.594  20.005  0.00  0.00    +0.000 N 
ATOM      3  C   UNL     1       2.256  14.338  20.329  0.00  0.00    +0.000 A 
ATOM      4  O   UNL     1       2.954  13.393  20.689  0.00  0.00    +0.000 OA
ATOM      5  C   UNL     1       0.810  14.257  20.208  0.00  0.00    +0.000 A 
ATOM      6  C   UNL     1      -0.079  13.182  20.361  0.00  0.00    +0.000 A 
ATOM      7  N   UNL     1      -1.382  13.744  20.250  0.00  0.00    +0.000 N 
ATOM      8  C   UNL     1      -1.239  15.027  19.757  0.00  0.00    +0.000 A 
ATOM      9  C   UNL     1       0.071  15.401  19.887  0.00  0.00    +0.000 A 
ATOM     10  N   UNL     1       0.649  16.647  19.737  0.00  0.00    +0.000 N 
ATOM     11  C   UNL     1      -0.116  17.872  19.584  0.00  0.00    +0.000 C 
ATOM     12  C   UNL     1       2.041  16.769  19.799  0.00  0.00    +0.000 A 
ATOM     13  O   UNL     1       2.596  17.866  19.684  0.00  0.00    +0.000 OA
ENDROOT
BRANCH   7  14
ATOM     14  C   UNL     1      -2.655  13.115  20.466  0.00  0.00    +0.000 A 
ATOM     15  C   UNL     1      -3.202  13.303  21.752  0.00  0.00    +0.000 A 
ATOM     16  C   UNL     1      -4.512  12.953  22.024  0.00  0.00    +0.000 A 
ATOM     17  C   UNL     1      -5.277  12.371  21.030  0.00  0.00    +0.000 A 
ATOM     18  C   UNL     1      -4.746  12.083  19.765  0.00  0.00    +0.000 A 
ATOM     19  C   UNL     1      -5.628  11.453  18.872  0.00  0.00    +0.000 A 
ATOM     20  C   UNL     1      -5.227  11.064  17.607  0.00  0.00    +0.000 A 
ATOM     21  C   UNL     1      -3.927  11.312  17.217  0.00  0.00    +0.000 A 
ATOM     22  C   UNL     1      -3.029  12.013  18.053  0.00  0.00    +0.000 A 
ATOM     23  C   UNL     1      -3.396  12.412  19.410  0.00  0.00    +0.000 A 
BRANCH  22  24
ATOM     24  N   UNL     1      -1.728  12.143  17.521  0.00  0.00    +0.000 N 
ATOM     25  H   UNL     1      -1.570  13.005  17.007  0.00  0.00    +0.000 HD
ATOM     26  H   UNL     1      -1.004  12.008  18.217  0.00  0.00    +0.000 HD
ENDBRANCH  22  24
ENDBRANCH   7  14
BRANCH   6  27
ATOM     27  C   UNL     1       0.252  11.757  20.627  0.00  0.00    +0.000 A 
ATOM     28  C   UNL     1       0.059  11.147  21.875  0.00  0.00    +0.000 A 
ATOM     29  C   UNL     1       0.260   9.769  22.049  0.00  0.00    +0.000 A 
ATOM     30  C   UNL     1       0.748   9.000  20.998  0.00  0.00    +0.000 A 
ATOM     31 CL   UNL     1       1.006   7.313  21.212  0.00  0.00    +0.000 Cl
ATOM     32  C   UNL     1       1.021   9.592  19.773  0.00  0.00    +0.000 A 
ATOM     33  C   UNL     1       0.745  10.950  19.584  0.00  0.00    +0.000 A 
ENDBRANCH   6  27
TORSDOF 3
ENDMDL
MODEL 8
REMARK VINA RESULT:      -6.6      3.424      6.319
REMARK  Name = 
REMARK  5 active torsions:
REMARK  status: ('A' for Active; 'I' for Inactive)
REMARK    1  A    between atoms: C_1  and  N_2
REMARK    2  A    between atoms: C_6  and  C_7
REMARK    3  A    between atoms: N_14  and  C_15
REMARK    4  A    between atoms: C_23  and  N_24
REMARK    5  A    between atoms: N_28  and  C_29
REMARK                            x       y       z     vdW  Elec       q    Type
REMARK                         _______ _______ _______ _____ _____    ______ ____
ROOT
ATOM      1  C   UNL     1      -3.982  17.589  24.123  0.00  0.00    +0.000 C 
ATOM      2  N   UNL     1      -3.887  16.333  23.403  0.00  0.00    +0.000 N 
ATOM      3  C   UNL     1      -2.654  15.999  22.832  0.00  0.00    +0.000 A 
ATOM      4  O   UNL     1      -1.638  16.671  22.990  0.00  0.00    +0.000 OA
ATOM      5  C   UNL     1      -2.685  14.780  22.041  0.00  0.00    +0.000 A 
ATOM      6  C   UNL     1      -1.705  14.153  21.256  0.00  0.00    +0.000 A 
ATOM      7  N   UNL     1      -2.282  12.922  20.834  0.00  0.00    +0.000 N 
ATOM      8  C   UNL     1      -3.634  12.981  21.115  0.00  0.00    +0.000 A 
ATOM      9  C   UNL     1      -3.854  14.014  21.985  0.00  0.00    +0.000 A 
ATOM     10  N   UNL     1      -4.989  14.327  22.709  0.00  0.00    +0.000 N 
ATOM     11  C   UNL     1      -6.144  13.451  22.806  0.00  0.00    +0.000 C 
ATOM     12  C   UNL     1      -5.024  15.513  23.449  0.00  0.00    +0.000 A 
ATOM     13  O   UNL     1      -6.014  15.823  24.120  0.00  0.00    +0.000 OA
ENDROOT
BRANCH   7  14
ATOM     14  C   UNL     1      -1.665  11.835  20.127  0.00  0.00    +0.000 A 
ATOM     15  C   UNL     1      -1.870  11.841  18.731  0.00  0.00    +0.000 A 
ATOM     16  C   UNL     1      -1.152  10.996  17.905  0.00  0.00    +0.000 A 
ATOM     17  C   UNL     1      -0.253  10.105  18.464  0.00  0.00    +0.000 A 
ATOM     18  C   UNL     1      -0.084  10.004  19.852  0.00  0.00    +0.000 A 
ATOM     19  C   UNL     1       0.831   9.027  20.277  0.00  0.00    +0.000 A 
ATOM     20  C   UNL     1       1.062   8.780  21.617  0.00  0.00    +0.000 A 
ATOM     21  C   UNL     1       0.377   9.523  22.557  0.00  0.00    +0.000 A 
ATOM     22  C   UNL     1      -0.494  10.569  22.175  0.00  0.00    +0.000 A 
ATOM     23  C   UNL     1      -0.796  10.843  20.772  0.00  0.00    +0.000 A 
BRANCH  22  24
ATOM     24  N   UNL     1      -1.147  11.198  23.257  0.00  0.00    +0.000 N 
ATOM     25  H   UNL     1      -1.200  12.209  23.182  0.00  0.00    +0.000 HD
ATOM     26  H   UNL     1      -2.063  10.807  23.444  0.00  0.00    +0.000 HD
ENDBRANCH  22  24
ENDBRANCH   7  14
BRANCH   6  27
ATOM     27  C   UNL     1      -0.332  14.639  20.954  0.00  0.00    +0.000 A 
ATOM     28  C   UNL     1      -0.037  15.463  19.857  0.00  0.00    +0.000 A 
ATOM     29  C   UNL     1       1.244  16.007  19.681  0.00  0.00    +0.000 A 
ATOM     30  C   UNL     1       2.273  15.657  20.550  0.00  0.00    +0.000 A 
ATOM     31 CL   UNL     1       3.847  16.313  20.330  0.00  0.00    +0.000 Cl
ATOM     32  C   UNL     1       2.028  14.783  21.600  0.00  0.00    +0.000 A 
ATOM     33  C   UNL     1       0.730  14.306  21.815  0.00  0.00    +0.000 A 
ENDBRANCH   6  27
TORSDOF 3
ENDMDL
MODEL 9
REMARK VINA RESULT:      -6.6      1.353      1.573
REMARK  Name = 
REMARK  5 active torsions:
REMARK  status: ('A' for Active; 'I' for Inactive)
REMARK    1  A    between atoms: C_1  and  N_2
REMARK    2  A    between atoms: C_6  and  C_7
REMARK    3  A    between atoms: N_14  and  C_15
REMARK    4  A    between atoms: C_23  and  N_24
REMARK    5  A    between atoms: N_28  and  C_29
REMARK                            x       y       z     vdW  Elec       q    Type
REMARK                         _______ _______ _______ _____ _____    ______ ____
ROOT
ATOM      1  C   UNL     1       4.228  15.293  20.917  0.00  0.00    +0.000 C 
ATOM      2  N   UNL     1       2.785  15.205  20.805  0.00  0.00    +0.000 N 
ATOM      3  C   UNL     1       2.195  13.942  20.921  0.00  0.00    +0.000 A 
ATOM      4  O   UNL     1       2.831  12.929  21.202  0.00  0.00    +0.000 OA
ATOM      5  C   UNL     1       0.761  13.940  20.687  0.00  0.00    +0.000 A 
ATOM      6  C   UNL     1      -0.173  12.894  20.632  0.00  0.00    +0.000 A 
ATOM      7  N   UNL     1      -1.445  13.522  20.503  0.00  0.00    +0.000 N 
ATOM      8  C   UNL     1      -1.220  14.851  20.195  0.00  0.00    +0.000 A 
ATOM      9  C   UNL     1       0.087  15.147  20.467  0.00  0.00    +0.000 A 
ATOM     10  N   UNL     1       0.717  16.376  20.526  0.00  0.00    +0.000 N 
ATOM     11  C   UNL     1       0.008  17.643  20.481  0.00  0.00    +0.000 C 
ATOM     12  C   UNL     1       2.104  16.428  20.703  0.00  0.00    +0.000 A 
ATOM     13  O   UNL     1       2.702  17.506  20.774  0.00  0.00    +0.000 OA
ENDROOT
BRANCH   7  14
ATOM     14  C   UNL     1      -2.750  12.926  20.542  0.00  0.00    +0.000 A 
ATOM     15  C   UNL     1      -3.414  13.025  21.782  0.00  0.00    +0.000 A 
ATOM     16  C   UNL     1      -4.753  12.703  21.899  0.00  0.00    +0.000 A 
ATOM     17  C   UNL     1      -5.436  12.238  20.789  0.00  0.00    +0.000 A 
ATOM     18  C   UNL     1      -4.794  12.040  19.559  0.00  0.00    +0.000 A 
ATOM     19  C   UNL     1      -5.604  11.524  18.534  0.00  0.00    +0.000 A 
ATOM     20  C   UNL     1      -5.095  11.229  17.283  0.00  0.00    +0.000 A 
ATOM     21  C   UNL     1      -3.757  11.460  17.040  0.00  0.00    +0.000 A 
ATOM     22  C   UNL     1      -2.923  12.051  18.016  0.00  0.00    +0.000 A 
ATOM     23  C   UNL     1      -3.407  12.346  19.362  0.00  0.00    +0.000 A 
BRANCH  22  24
ATOM     24  N   UNL     1      -1.573  12.177  17.622  0.00  0.00    +0.000 N 
ATOM     25  H   UNL     1      -1.367  11.791  16.706  0.00  0.00    +0.000 HD
ATOM     26  H   UNL     1      -1.231  13.128  17.692  0.00  0.00    +0.000 HD
ENDBRANCH  22  24
ENDBRANCH   7  14
BRANCH   6  27
ATOM     27  C   UNL     1       0.088  11.434  20.730  0.00  0.00    +0.000 A 
ATOM     28  C   UNL     1       0.603  10.677  19.668  0.00  0.00    +0.000 A 
ATOM     29  C   UNL     1       0.960   9.331  19.841  0.00  0.00    +0.000 A 
ATOM     30  C   UNL     1       0.716   8.698  21.055  0.00  0.00    +0.000 A 
ATOM     31 CL   UNL     1       1.141   7.045  21.266  0.00  0.00    +0.000 Cl
ATOM     32  C   UNL     1       0.137   9.403  22.102  0.00  0.00    +0.000 A 
ATOM     33  C   UNL     1      -0.144  10.765  21.946  0.00  0.00    +0.000 A 
ENDBRANCH   6  27
TORSDOF 3
ENDMDL
