MODEL 1
REMARK VINA RESULT:      -6.6      0.000      0.000
REMARK  Name = 
REMARK  11 active torsions:
REMARK  status: ('A' for Active; 'I' for Inactive)
REMARK    1  A    between atoms: C_2  and  C_3
REMARK    2  A    between atoms: C_3  and  C_4
REMARK    3  A    between atoms: C_4  and  C_5
REMARK    4  A    between atoms: C_5  and  C_6
REMARK    5  A    between atoms: C_6  and  O_7
REMARK    6  A    between atoms: O_7  and  C_8
REMARK    7  A    between atoms: C_10  and  O_11
REMARK    8  A    between atoms: C_12  and  C_13
REMARK    9  A    between atoms: C_13  and  C_14
REMARK   10  A    between atoms: C_17  and  C_18
REMARK   11  A    between atoms: C_18  and  C_19
REMARK                            x       y       z     vdW  Elec       q    Type
REMARK                         _______ _______ _______ _____ _____    ______ ____
ROOT
ATOM      1  C   UNL     1       3.649   5.923  19.267  0.00  0.00    +0.000 A 
ATOM      2  C   UNL     1       4.780   5.080  19.366  0.00  0.00    +0.000 A 
ATOM      3  C   UNL     1       5.686   4.910  18.292  0.00  0.00    +0.000 A 
ATOM      4  C   UNL     1       5.499   5.588  17.104  0.00  0.00    +0.000 A 
ATOM      5  C   UNL     1       4.361   6.408  16.998  0.00  0.00    +0.000 A 
ATOM      6  C   UNL     1       3.406   6.579  18.048  0.00  0.00    +0.000 A 
ENDROOT
BRANCH   4   7
ATOM      7  C   UNL     1       6.365   5.501  15.917  0.00  0.00    +0.000 C 
ATOM      8  C   UNL     1       5.908   4.805  14.649  0.00  0.00    +0.000 C 
ATOM      9  O   UNL     1       7.522   5.934  15.986  0.00  0.00    +0.000 OA
ENDBRANCH   4   7
BRANCH   3  10
ATOM     10  O   UNL     1       6.725   4.033  18.440  0.00  0.00    +0.000 OA
ATOM     11  H   UNL     1       6.647   3.323  17.782  0.00  0.00    +0.000 HD
ENDBRANCH   3  10
BRANCH   1  12
ATOM     12  O   UNL     1       2.965   5.910  20.449  0.00  0.00    +0.000 OA
BRANCH  12  13
ATOM     13  C   UNL     1       1.739   5.224  20.696  0.00  0.00    +0.000 C 
BRANCH  13  14
ATOM     14  C   UNL     1       1.984   3.848  21.326  0.00  0.00    +0.000 C 
BRANCH  14  15
ATOM     15  C   UNL     1       1.444   2.604  20.614  0.00  0.00    +0.000 C 
BRANCH  15  16
ATOM     16  C   UNL     1       0.798   2.835  19.266  0.00  0.00    +0.000 C 
BRANCH  16  18
ATOM     17  C   UNL     1       2.682   2.993  17.168  0.00  0.00    +0.000 C 
ATOM     18  C   UNL     1       1.812   2.921  18.136  0.00  0.00    +0.000 C 
ENDBRANCH  16  18
ENDBRANCH  15  16
ENDBRANCH  14  15
ENDBRANCH  13  14
ENDBRANCH  12  13
ENDBRANCH   1  12
BRANCH   6  19
ATOM     19  C   UNL     1       2.210   7.397  17.654  0.00  0.00    +0.000 C 
BRANCH  19  20
ATOM     20  C   UNL     1       1.935   8.662  18.407  0.00  0.00    +0.000 C 
ATOM     21  C   UNL     1       1.817   9.922  17.967  0.00  0.00    +0.000 C 
ENDBRANCH  19  20
ENDBRANCH   6  19
TORSDOF 10
ENDMDL
MODEL 2
REMARK VINA RESULT:      -6.5      1.549      2.244
REMARK  Name = 
REMARK  11 active torsions:
REMARK  status: ('A' for Active; 'I' for Inactive)
REMARK    1  A    between atoms: C_2  and  C_3
REMARK    2  A    between atoms: C_3  and  C_4
REMARK    3  A    between atoms: C_4  and  C_5
REMARK    4  A    between atoms: C_5  and  C_6
REMARK    5  A    between atoms: C_6  and  O_7
REMARK    6  A    between atoms: O_7  and  C_8
REMARK    7  A    between atoms: C_10  and  O_11
REMARK    8  A    between atoms: C_12  and  C_13
REMARK    9  A    between atoms: C_13  and  C_14
REMARK   10  A    between atoms: C_17  and  C_18
REMARK   11  A    between atoms: C_18  and  C_19
REMARK                            x       y       z     vdW  Elec       q    Type
REMARK                         _______ _______ _______ _____ _____    ______ ____
ROOT
ATOM      1  C   UNL     1       2.799   5.068  17.865  0.00  0.00    +0.000 A 
ATOM      2  C   UNL     1       3.657   4.145  17.222  0.00  0.00    +0.000 A 
ATOM      3  C   UNL     1       4.993   4.470  16.888  0.00  0.00    +0.000 A 
ATOM      4  C   UNL     1       5.512   5.710  17.202  0.00  0.00    +0.000 A 
ATOM      5  C   UNL     1       4.651   6.635  17.820  0.00  0.00    +0.000 A 
ATOM      6  C   UNL     1       3.286   6.356  18.143  0.00  0.00    +0.000 A 
ENDROOT
BRANCH   4   7
ATOM      7  C   UNL     1       6.880   6.170  16.911  0.00  0.00    +0.000 C 
ATOM      8  C   UNL     1       7.591   7.165  17.808  0.00  0.00    +0.000 C 
ATOM      9  O   UNL     1       7.428   5.798  15.867  0.00  0.00    +0.000 OA
ENDBRANCH   4   7
BRANCH   3  10
ATOM     10  O   UNL     1       5.745   3.548  16.214  0.00  0.00    +0.000 OA
ATOM     11  H   UNL     1       6.666   3.854  16.164  0.00  0.00    +0.000 HD
ENDBRANCH   3  10
BRANCH   1  12
ATOM     12  O   UNL     1       1.582   4.485  18.080  0.00  0.00    +0.000 OA
BRANCH  12  13
ATOM     13  C   UNL     1       1.299   3.090  17.992  0.00  0.00    +0.000 C 
BRANCH  13  14
ATOM     14  C   UNL     1       1.054   2.480  19.377  0.00  0.00    +0.000 C 
BRANCH  14  15
ATOM     15  C   UNL     1       0.971   3.412  20.589  0.00  0.00    +0.000 C 
BRANCH  15  16
ATOM     16  C   UNL     1       2.237   3.563  21.403  0.00  0.00    +0.000 C 
BRANCH  16  18
ATOM     17  C   UNL     1       4.438   2.218  20.254  0.00  0.00    +0.000 C 
ATOM     18  C   UNL     1       3.422   2.839  20.785  0.00  0.00    +0.000 C 
ENDBRANCH  16  18
ENDBRANCH  15  16
ENDBRANCH  14  15
ENDBRANCH  13  14
ENDBRANCH  12  13
ENDBRANCH   1  12
BRANCH   6  19
ATOM     19  C   UNL     1       2.534   7.541  18.677  0.00  0.00    +0.000 C 
BRANCH  19  20
ATOM     20  C   UNL     1       2.186   8.648  17.731  0.00  0.00    +0.000 C 
ATOM     21  C   UNL     1       1.931   9.941  17.970  0.00  0.00    +0.000 C 
ENDBRANCH  19  20
ENDBRANCH   6  19
TORSDOF 10
ENDMDL
MODEL 3
REMARK VINA RESULT:      -6.4      2.463      6.122
REMARK  Name = 
REMARK  11 active torsions:
REMARK  status: ('A' for Active; 'I' for Inactive)
REMARK    1  A    between atoms: C_2  and  C_3
REMARK    2  A    between atoms: C_3  and  C_4
REMARK    3  A    between atoms: C_4  and  C_5
REMARK    4  A    between atoms: C_5  and  C_6
REMARK    5  A    between atoms: C_6  and  O_7
REMARK    6  A    between atoms: O_7  and  C_8
REMARK    7  A    between atoms: C_10  and  O_11
REMARK    8  A    between atoms: C_12  and  C_13
REMARK    9  A    between atoms: C_13  and  C_14
REMARK   10  A    between atoms: C_17  and  C_18
REMARK   11  A    between atoms: C_18  and  C_19
REMARK                            x       y       z     vdW  Elec       q    Type
REMARK                         _______ _______ _______ _____ _____    ______ ____
ROOT
ATOM      1  C   UNL     1       5.180   4.205  17.173  0.00  0.00    +0.000 A 
ATOM      2  C   UNL     1       3.874   3.678  17.042  0.00  0.00    +0.000 A 
ATOM      3  C   UNL     1       2.823   4.050  17.914  0.00  0.00    +0.000 A 
ATOM      4  C   UNL     1       3.041   4.968  18.921  0.00  0.00    +0.000 A 
ATOM      5  C   UNL     1       4.345   5.475  19.066  0.00  0.00    +0.000 A 
ATOM      6  C   UNL     1       5.440   5.098  18.227  0.00  0.00    +0.000 A 
ENDROOT
BRANCH   4   7
ATOM      7  C   UNL     1       2.037   5.439  19.889  0.00  0.00    +0.000 C 
ATOM      8  C   UNL     1       1.986   6.885  20.343  0.00  0.00    +0.000 C 
ATOM      9  O   UNL     1       1.270   4.617  20.405  0.00  0.00    +0.000 OA
ENDBRANCH   4   7
BRANCH   3  10
ATOM     10  O   UNL     1       1.602   3.454  17.763  0.00  0.00    +0.000 OA
ATOM     11  H   UNL     1       1.451   3.256  16.824  0.00  0.00    +0.000 HD
ENDBRANCH   3  10
BRANCH   1  12
ATOM     12  O   UNL     1       5.981   3.688  16.195  0.00  0.00    +0.000 OA
BRANCH  12  13
ATOM     13  C   UNL     1       6.479   4.399  15.064  0.00  0.00    +0.000 C 
BRANCH  13  14
ATOM     14  C   UNL     1       5.633   4.128  13.814  0.00  0.00    +0.000 C 
BRANCH  14  15
ATOM     15  C   UNL     1       6.311   3.526  12.581  0.00  0.00    +0.000 C 
BRANCH  15  16
ATOM     16  C   UNL     1       5.501   2.514  11.801  0.00  0.00    +0.000 C 
BRANCH  16  18
ATOM     17  C   UNL     1       3.288   3.672  10.484  0.00  0.00    +0.000 C 
ATOM     18  C   UNL     1       4.310   3.137  11.091  0.00  0.00    +0.000 C 
ENDBRANCH  16  18
ENDBRANCH  15  16
ENDBRANCH  14  15
ENDBRANCH  13  14
ENDBRANCH  12  13
ENDBRANCH   1  12
BRANCH   6  19
ATOM     19  C   UNL     1       6.760   5.670  18.657  0.00  0.00    +0.000 C 
BRANCH  19  20
ATOM     20  C   UNL     1       7.407   6.701  17.785  0.00  0.00    +0.000 C 
ATOM     21  C   UNL     1       8.050   7.829  18.111  0.00  0.00    +0.000 C 
ENDBRANCH  19  20
ENDBRANCH   6  19
TORSDOF 10
ENDMDL
MODEL 4
REMARK VINA RESULT:      -6.4      2.389      5.715
REMARK  Name = 
REMARK  11 active torsions:
REMARK  status: ('A' for Active; 'I' for Inactive)
REMARK    1  A    between atoms: C_2  and  C_3
REMARK    2  A    between atoms: C_3  and  C_4
REMARK    3  A    between atoms: C_4  and  C_5
REMARK    4  A    between atoms: C_5  and  C_6
REMARK    5  A    between atoms: C_6  and  O_7
REMARK    6  A    between atoms: O_7  and  C_8
REMARK    7  A    between atoms: C_10  and  O_11
REMARK    8  A    between atoms: C_12  and  C_13
REMARK    9  A    between atoms: C_13  and  C_14
REMARK   10  A    between atoms: C_17  and  C_18
REMARK   11  A    between atoms: C_18  and  C_19
REMARK                            x       y       z     vdW  Elec       q    Type
REMARK                         _______ _______ _______ _____ _____    ______ ____
ROOT
ATOM      1  C   UNL     1       4.548   4.564  16.900  0.00  0.00    +0.000 A 
ATOM      2  C   UNL     1       4.309   3.181  17.074  0.00  0.00    +0.000 A 
ATOM      3  C   UNL     1       3.211   2.697  17.824  0.00  0.00    +0.000 A 
ATOM      4  C   UNL     1       2.316   3.575  18.401  0.00  0.00    +0.000 A 
ATOM      5  C   UNL     1       2.566   4.950  18.247  0.00  0.00    +0.000 A 
ATOM      6  C   UNL     1       3.683   5.478  17.526  0.00  0.00    +0.000 A 
ENDROOT
BRANCH   4   7
ATOM      7  C   UNL     1       1.137   3.202  19.200  0.00  0.00    +0.000 C 
ATOM      8  C   UNL     1       0.909   3.764  20.590  0.00  0.00    +0.000 C 
ATOM      9  O   UNL     1       0.359   2.348  18.758  0.00  0.00    +0.000 OA
ENDBRANCH   4   7
BRANCH   3  10
ATOM     10  O   UNL     1       3.078   1.347  17.999  0.00  0.00    +0.000 OA
ATOM     11  H   UNL     1       2.562   1.174  18.804  0.00  0.00    +0.000 HD
ENDBRANCH   3  10
BRANCH   1  12
ATOM     12  O   UNL     1       5.658   4.742  16.124  0.00  0.00    +0.000 OA
BRANCH  12  13
ATOM     13  C   UNL     1       5.688   5.367  14.843  0.00  0.00    +0.000 C 
BRANCH  13  14
ATOM     14  C   UNL     1       6.783   4.767  13.952  0.00  0.00    +0.000 C 
BRANCH  14  15
ATOM     15  C   UNL     1       6.378   3.795  12.841  0.00  0.00    +0.000 C 
BRANCH  15  16
ATOM     16  C   UNL     1       4.949   3.301  12.874  0.00  0.00    +0.000 C 
BRANCH  16  18
ATOM     17  C   UNL     1       3.649   3.556  10.380  0.00  0.00    +0.000 C 
ATOM     18  C   UNL     1       4.249   3.439  11.531  0.00  0.00    +0.000 C 
ENDBRANCH  16  18
ENDBRANCH  15  16
ENDBRANCH  14  15
ENDBRANCH  13  14
ENDBRANCH  12  13
ENDBRANCH   1  12
BRANCH   6  19
ATOM     19  C   UNL     1       3.810   6.972  17.611  0.00  0.00    +0.000 C 
BRANCH  19  20
ATOM     20  C   UNL     1       2.737   7.738  18.320  0.00  0.00    +0.000 C 
ATOM     21  C   UNL     1       1.874   8.650  17.854  0.00  0.00    +0.000 C 
ENDBRANCH  19  20
ENDBRANCH   6  19
TORSDOF 10
ENDMDL
MODEL 5
REMARK VINA RESULT:      -6.4      2.709      6.211
REMARK  Name = 
REMARK  11 active torsions:
REMARK  status: ('A' for Active; 'I' for Inactive)
REMARK    1  A    between atoms: C_2  and  C_3
REMARK    2  A    between atoms: C_3  and  C_4
REMARK    3  A    between atoms: C_4  and  C_5
REMARK    4  A    between atoms: C_5  and  C_6
REMARK    5  A    between atoms: C_6  and  O_7
REMARK    6  A    between atoms: O_7  and  C_8
REMARK    7  A    between atoms: C_10  and  O_11
REMARK    8  A    between atoms: C_12  and  C_13
REMARK    9  A    between atoms: C_13  and  C_14
REMARK   10  A    between atoms: C_17  and  C_18
REMARK   11  A    between atoms: C_18  and  C_19
REMARK                            x       y       z     vdW  Elec       q    Type
REMARK                         _______ _______ _______ _____ _____    ______ ____
ROOT
ATOM      1  C   UNL     1       4.650   4.161  16.611  0.00  0.00    +0.000 A 
ATOM      2  C   UNL     1       4.011   2.993  17.091  0.00  0.00    +0.000 A 
ATOM      3  C   UNL     1       3.049   3.037  18.127  0.00  0.00    +0.000 A 
ATOM      4  C   UNL     1       2.686   4.241  18.696  0.00  0.00    +0.000 A 
ATOM      5  C   UNL     1       3.339   5.398  18.235  0.00  0.00    +0.000 A 
ATOM      6  C   UNL     1       4.340   5.391  17.214  0.00  0.00    +0.000 A 
ENDROOT
BRANCH   4   7
ATOM      7  C   UNL     1       1.702   4.421  19.776  0.00  0.00    +0.000 C 
ATOM      8  C   UNL     1       1.826   5.546  20.785  0.00  0.00    +0.000 C 
ATOM      9  O   UNL     1       0.799   3.586  19.909  0.00  0.00    +0.000 OA
ENDBRANCH   4   7
BRANCH   3  10
ATOM     10  O   UNL     1       2.516   1.861  18.580  0.00  0.00    +0.000 OA
ATOM     11  H   UNL     1       3.116   1.128  18.361  0.00  0.00    +0.000 HD
ENDBRANCH   3  10
BRANCH   1  12
ATOM     12  O   UNL     1       5.513   3.828  15.606  0.00  0.00    +0.000 OA
BRANCH  12  13
ATOM     13  C   UNL     1       5.655   4.519  14.366  0.00  0.00    +0.000 C 
BRANCH  13  14
ATOM     14  C   UNL     1       6.232   3.606  13.278  0.00  0.00    +0.000 C 
BRANCH  14  15
ATOM     15  C   UNL     1       5.684   3.722  11.853  0.00  0.00    +0.000 C 
BRANCH  15  16
ATOM     16  C   UNL     1       4.367   3.028  11.586  0.00  0.00    +0.000 C 
BRANCH  16  18
ATOM     17  C   UNL     1       2.904   4.232   9.492  0.00  0.00    +0.000 C 
ATOM     18  C   UNL     1       3.579   3.676  10.459  0.00  0.00    +0.000 C 
ENDBRANCH  16  18
ENDBRANCH  15  16
ENDBRANCH  14  15
ENDBRANCH  13  14
ENDBRANCH  12  13
ENDBRANCH   1  12
BRANCH   6  19
ATOM     19  C   UNL     1       4.983   6.728  16.985  0.00  0.00    +0.000 C 
BRANCH  19  20
ATOM     20  C   UNL     1       6.434   6.886  17.320  0.00  0.00    +0.000 C 
ATOM     21  C   UNL     1       7.192   6.233  18.210  0.00  0.00    +0.000 C 
ENDBRANCH  19  20
ENDBRANCH   6  19
TORSDOF 10
ENDMDL
MODEL 6
REMARK VINA RESULT:      -6.3      2.804      5.876
REMARK  Name = 
REMARK  11 active torsions:
REMARK  status: ('A' for Active; 'I' for Inactive)
REMARK    1  A    between atoms: C_2  and  C_3
REMARK    2  A    between atoms: C_3  and  C_4
REMARK    3  A    between atoms: C_4  and  C_5
REMARK    4  A    between atoms: C_5  and  C_6
REMARK    5  A    between atoms: C_6  and  O_7
REMARK    6  A    between atoms: O_7  and  C_8
REMARK    7  A    between atoms: C_10  and  O_11
REMARK    8  A    between atoms: C_12  and  C_13
REMARK    9  A    between atoms: C_13  and  C_14
REMARK   10  A    between atoms: C_17  and  C_18
REMARK   11  A    between atoms: C_18  and  C_19
REMARK                            x       y       z     vdW  Elec       q    Type
REMARK                         _______ _______ _______ _____ _____    ______ ____
ROOT
ATOM      1  C   UNL     1       4.656   5.086  16.823  0.00  0.00    +0.000 A 
ATOM      2  C   UNL     1       4.657   3.684  17.012  0.00  0.00    +0.000 A 
ATOM      3  C   UNL     1       3.693   3.035  17.819  0.00  0.00    +0.000 A 
ATOM      4  C   UNL     1       2.695   3.760  18.439  0.00  0.00    +0.000 A 
ATOM      5  C   UNL     1       2.708   5.156  18.269  0.00  0.00    +0.000 A 
ATOM      6  C   UNL     1       3.685   5.852  17.490  0.00  0.00    +0.000 A 
ENDROOT
BRANCH   4   7
ATOM      7  C   UNL     1       1.636   3.207  19.299  0.00  0.00    +0.000 C 
ATOM      8  C   UNL     1       0.891   4.072  20.298  0.00  0.00    +0.000 C 
ATOM      9  O   UNL     1       1.407   1.992  19.261  0.00  0.00    +0.000 OA
ENDBRANCH   4   7
BRANCH   3  10
ATOM     10  O   UNL     1       3.792   1.683  18.003  0.00  0.00    +0.000 OA
ATOM     11  H   UNL     1       4.591   1.353  17.560  0.00  0.00    +0.000 HD
ENDBRANCH   3  10
BRANCH   1  12
ATOM     12  O   UNL     1       5.681   5.434  15.991  0.00  0.00    +0.000 OA
BRANCH  12  13
ATOM     13  C   UNL     1       6.892   6.078  16.384  0.00  0.00    +0.000 C 
BRANCH  13  14
ATOM     14  C   UNL     1       7.024   6.140  17.910  0.00  0.00    +0.000 C 
BRANCH  14  15
ATOM     15  C   UNL     1       8.000   7.147  18.525  0.00  0.00    +0.000 C 
BRANCH  15  16
ATOM     16  C   UNL     1       8.074   8.500  17.853  0.00  0.00    +0.000 C 
BRANCH  16  18
ATOM     17  C   UNL     1       9.449  10.415  19.407  0.00  0.00    +0.000 C 
ATOM     18  C   UNL     1       8.814   9.531  18.689  0.00  0.00    +0.000 C 
ENDBRANCH  16  18
ENDBRANCH  15  16
ENDBRANCH  14  15
ENDBRANCH  13  14
ENDBRANCH  12  13
ENDBRANCH   1  12
BRANCH   6  19
ATOM     19  C   UNL     1       3.570   7.347  17.565  0.00  0.00    +0.000 C 
BRANCH  19  20
ATOM     20  C   UNL     1       2.381   7.934  18.260  0.00  0.00    +0.000 C 
ATOM     21  C   UNL     1       1.657   9.022  17.965  0.00  0.00    +0.000 C 
ENDBRANCH  19  20
ENDBRANCH   6  19
TORSDOF 10
ENDMDL
MODEL 7
REMARK VINA RESULT:      -6.3      2.619      6.281
REMARK  Name = 
REMARK  11 active torsions:
REMARK  status: ('A' for Active; 'I' for Inactive)
REMARK    1  A    between atoms: C_2  and  C_3
REMARK    2  A    between atoms: C_3  and  C_4
REMARK    3  A    between atoms: C_4  and  C_5
REMARK    4  A    between atoms: C_5  and  C_6
REMARK    5  A    between atoms: C_6  and  O_7
REMARK    6  A    between atoms: O_7  and  C_8
REMARK    7  A    between atoms: C_10  and  O_11
REMARK    8  A    between atoms: C_12  and  C_13
REMARK    9  A    between atoms: C_13  and  C_14
REMARK   10  A    between atoms: C_17  and  C_18
REMARK   11  A    between atoms: C_18  and  C_19
REMARK                            x       y       z     vdW  Elec       q    Type
REMARK                         _______ _______ _______ _____ _____    ______ ____
ROOT
ATOM      1  C   UNL     1       5.058   4.048  17.295  0.00  0.00    +0.000 A 
ATOM      2  C   UNL     1       3.989   3.180  16.970  0.00  0.00    +0.000 A 
ATOM      3  C   UNL     1       2.950   2.895  17.887  0.00  0.00    +0.000 A 
ATOM      4  C   UNL     1       2.939   3.479  19.138  0.00  0.00    +0.000 A 
ATOM      5  C   UNL     1       4.014   4.322  19.469  0.00  0.00    +0.000 A 
ATOM      6  C   UNL     1       5.100   4.608  18.583  0.00  0.00    +0.000 A 
ENDROOT
BRANCH   4   7
ATOM      7  C   UNL     1       1.919   3.266  20.179  0.00  0.00    +0.000 C 
ATOM      8  C   UNL     1       2.283   3.219  21.650  0.00  0.00    +0.000 C 
ATOM      9  O   UNL     1       0.752   3.041  19.837  0.00  0.00    +0.000 OA
ENDBRANCH   4   7
BRANCH   3  10
ATOM     10  O   UNL     1       1.980   2.001  17.525  0.00  0.00    +0.000 OA
ATOM     11  H   UNL     1       2.348   1.362  16.892  0.00  0.00    +0.000 HD
ENDBRANCH   3  10
BRANCH   1  12
ATOM     12  O   UNL     1       5.901   4.153  16.225  0.00  0.00    +0.000 OA
BRANCH  12  13
ATOM     13  C   UNL     1       5.504   4.301  14.863  0.00  0.00    +0.000 C 
BRANCH  13  14
ATOM     14  C   UNL     1       6.715   4.296  13.923  0.00  0.00    +0.000 C 
BRANCH  14  15
ATOM     15  C   UNL     1       6.495   3.983  12.440  0.00  0.00    +0.000 C 
BRANCH  15  16
ATOM     16  C   UNL     1       5.592   2.808  12.133  0.00  0.00    +0.000 C 
BRANCH  16  18
ATOM     17  C   UNL     1       3.366   3.529  10.551  0.00  0.00    +0.000 C 
ATOM     18  C   UNL     1       4.394   3.196  11.282  0.00  0.00    +0.000 C 
ENDBRANCH  16  18
ENDBRANCH  15  16
ENDBRANCH  14  15
ENDBRANCH  13  14
ENDBRANCH  12  13
ENDBRANCH   1  12
BRANCH   6  19
ATOM     19  C   UNL     1       6.192   5.429  19.206  0.00  0.00    +0.000 C 
BRANCH  19  20
ATOM     20  C   UNL     1       7.312   5.903  18.333  0.00  0.00    +0.000 C 
ATOM     21  C   UNL     1       7.454   7.050  17.656  0.00  0.00    +0.000 C 
ENDBRANCH  19  20
ENDBRANCH   6  19
TORSDOF 10
ENDMDL
MODEL 8
REMARK VINA RESULT:      -6.3      1.814      2.830
REMARK  Name = 
REMARK  11 active torsions:
REMARK  status: ('A' for Active; 'I' for Inactive)
REMARK    1  A    between atoms: C_2  and  C_3
REMARK    2  A    between atoms: C_3  and  C_4
REMARK    3  A    between atoms: C_4  and  C_5
REMARK    4  A    between atoms: C_5  and  C_6
REMARK    5  A    between atoms: C_6  and  O_7
REMARK    6  A    between atoms: O_7  and  C_8
REMARK    7  A    between atoms: C_10  and  O_11
REMARK    8  A    between atoms: C_12  and  C_13
REMARK    9  A    between atoms: C_13  and  C_14
REMARK   10  A    between atoms: C_17  and  C_18
REMARK   11  A    between atoms: C_18  and  C_19
REMARK                            x       y       z     vdW  Elec       q    Type
REMARK                         _______ _______ _______ _____ _____    ______ ____
ROOT
ATOM      1  C   UNL     1       4.029   4.404  17.228  0.00  0.00    +0.000 A 
ATOM      2  C   UNL     1       5.321   3.911  16.929  0.00  0.00    +0.000 A 
ATOM      3  C   UNL     1       6.493   4.640  17.237  0.00  0.00    +0.000 A 
ATOM      4  C   UNL     1       6.410   5.866  17.867  0.00  0.00    +0.000 A 
ATOM      5  C   UNL     1       5.126   6.367  18.144  0.00  0.00    +0.000 A 
ATOM      6  C   UNL     1       3.917   5.675  17.817  0.00  0.00    +0.000 A 
ENDROOT
BRANCH   4   7
ATOM      7  C   UNL     1       7.549   6.720  18.242  0.00  0.00    +0.000 C 
ATOM      8  C   UNL     1       7.793   8.059  17.571  0.00  0.00    +0.000 C 
ATOM      9  O   UNL     1       8.370   6.298  19.065  0.00  0.00    +0.000 OA
ENDBRANCH   4   7
BRANCH   3  10
ATOM     10  O   UNL     1       7.705   4.127  16.864  0.00  0.00    +0.000 OA
ATOM     11  H   UNL     1       8.245   3.962  17.655  0.00  0.00    +0.000 HD
ENDBRANCH   3  10
BRANCH   1  12
ATOM     12  O   UNL     1       3.091   3.492  16.839  0.00  0.00    +0.000 OA
BRANCH  12  13
ATOM     13  C   UNL     1       2.971   2.158  17.328  0.00  0.00    +0.000 C 
BRANCH  13  14
ATOM     14  C   UNL     1       2.095   2.098  18.585  0.00  0.00    +0.000 C 
BRANCH  14  15
ATOM     15  C   UNL     1       0.856   2.995  18.663  0.00  0.00    +0.000 C 
BRANCH  15  16
ATOM     16  C   UNL     1       0.734   3.858  19.899  0.00  0.00    +0.000 C 
BRANCH  16  18
ATOM     17  C   UNL     1       2.182   2.830  22.095  0.00  0.00    +0.000 C 
ATOM     18  C   UNL     1       1.514   3.305  21.081  0.00  0.00    +0.000 C 
ENDBRANCH  16  18
ENDBRANCH  15  16
ENDBRANCH  14  15
ENDBRANCH  13  14
ENDBRANCH  12  13
ENDBRANCH   1  12
BRANCH   6  19
ATOM     19  C   UNL     1       2.671   6.467  18.092  0.00  0.00    +0.000 C 
BRANCH  19  20
ATOM     20  C   UNL     1       2.692   7.940  17.826  0.00  0.00    +0.000 C 
ATOM     21  C   UNL     1       1.714   8.851  17.927  0.00  0.00    +0.000 C 
ENDBRANCH  19  20
ENDBRANCH   6  19
TORSDOF 10
ENDMDL
MODEL 9
REMARK VINA RESULT:      -6.3      2.530      5.825
REMARK  Name = 
REMARK  11 active torsions:
REMARK  status: ('A' for Active; 'I' for Inactive)
REMARK    1  A    between atoms: C_2  and  C_3
REMARK    2  A    between atoms: C_3  and  C_4
REMARK    3  A    between atoms: C_4  and  C_5
REMARK    4  A    between atoms: C_5  and  C_6
REMARK    5  A    between atoms: C_6  and  O_7
REMARK    6  A    between atoms: O_7  and  C_8
REMARK    7  A    between atoms: C_10  and  O_11
REMARK    8  A    between atoms: C_12  and  C_13
REMARK    9  A    between atoms: C_13  and  C_14
REMARK   10  A    between atoms: C_17  and  C_18
REMARK   11  A    between atoms: C_18  and  C_19
REMARK                            x       y       z     vdW  Elec       q    Type
REMARK                         _______ _______ _______ _____ _____    ______ ____
ROOT
ATOM      1  C   UNL     1       4.117   4.887  17.300  0.00  0.00    +0.000 A 
ATOM      2  C   UNL     1       3.933   3.488  17.185  0.00  0.00    +0.000 A 
ATOM      3  C   UNL     1       2.939   2.800  17.919  0.00  0.00    +0.000 A 
ATOM      4  C   UNL     1       2.095   3.486  18.770  0.00  0.00    +0.000 A 
ATOM      5  C   UNL     1       2.294   4.871  18.902  0.00  0.00    +0.000 A 
ATOM      6  C   UNL     1       3.308   5.597  18.203  0.00  0.00    +0.000 A 
ENDROOT
BRANCH   4   7
ATOM      7  C   UNL     1       1.024   2.889  19.585  0.00  0.00    +0.000 C 
ATOM      8  C   UNL     1       1.064   2.929  21.101  0.00  0.00    +0.000 C 
ATOM      9  O   UNL     1       0.113   2.272  19.021  0.00  0.00    +0.000 OA
ENDBRANCH   4   7
BRANCH   3  10
ATOM     10  O   UNL     1       2.858   1.440  17.801  0.00  0.00    +0.000 OA
ATOM     11  H   UNL     1       3.630   1.110  17.313  0.00  0.00    +0.000 HD
ENDBRANCH   3  10
BRANCH   1  12
ATOM     12  O   UNL     1       5.127   5.283  16.471  0.00  0.00    +0.000 OA
BRANCH  12  13
ATOM     13  C   UNL     1       5.906   4.427  15.637  0.00  0.00    +0.000 C 
BRANCH  13  14
ATOM     14  C   UNL     1       5.546   4.606  14.158  0.00  0.00    +0.000 C 
BRANCH  14  15
ATOM     15  C   UNL     1       6.252   3.732  13.117  0.00  0.00    +0.000 C 
BRANCH  15  16
ATOM     16  C   UNL     1       5.390   3.209  11.989  0.00  0.00    +0.000 C 
BRANCH  16  18
ATOM     17  C   UNL     1       6.226   0.676  11.062  0.00  0.00    +0.000 C 
ATOM     18  C   UNL     1       5.841   1.846  11.490  0.00  0.00    +0.000 C 
ENDBRANCH  16  18
ENDBRANCH  15  16
ENDBRANCH  14  15
ENDBRANCH  13  14
ENDBRANCH  12  13
ENDBRANCH   1  12
BRANCH   6  19
ATOM     19  C   UNL     1       3.409   7.040  18.606  0.00  0.00    +0.000 C 
BRANCH  19  20
ATOM     20  C   UNL     1       2.833   8.077  17.691  0.00  0.00    +0.000 C 
ATOM     21  C   UNL     1       1.671   8.739  17.758  0.00  0.00    +0.000 C 
ENDBRANCH  19  20
ENDBRANCH   6  19
TORSDOF 10
ENDMDL
