MODEL 1
REMARK VINA RESULT:      -8.2      0.000      0.000
REMARK  Name = 
REMARK  9 active torsions:
REMARK  status: ('A' for Active; 'I' for Inactive)
REMARK    1  A    between atoms: C_1  and  C_2
REMARK    2  A    between atoms: C_2  and  O_3
REMARK    3  A    between atoms: O_3  and  C_4
REMARK    4  A    between atoms: C_4  and  C_6
REMARK    5  A    between atoms: C_6  and  C_7
REMARK    6  A    between atoms: C_6  and  N_15
REMARK    7  A    between atoms: C_7  and  C_8
REMARK    8  A    between atoms: C_8  and  C_9
REMARK    9  A    between atoms: CA_30  and  CB_31
REMARK                            x       y       z     vdW  Elec       q    Type
REMARK                         _______ _______ _______ _____ _____    ______ ____
ROOT
ATOM      1  N   ALA A   1       3.894   5.394  18.056  0.00  0.00    +0.000 N 
ATOM      2  C   UNK A   2       4.051   4.275  17.232  0.00  0.00    +0.000 C 
ATOM      3  O   UNK A   2       3.303   3.303  17.277  0.00  0.00    +0.000 OA
ATOM      4  C   UNK A   2       4.928   4.629  16.008  0.00  0.00    +0.000 C 
ATOM      5  C   UNK A   2       5.202   3.414  15.126  0.00  0.00    +0.000 C 
ATOM      6  C   UNK A   2       6.024   3.872  13.947  0.00  0.00    +0.000 A 
ATOM      7  C   UNK A   2       5.727   3.492  12.639  0.00  0.00    +0.000 A 
ATOM      8  C   UNK A   2       6.527   3.945  11.590  0.00  0.00    +0.000 A 
ATOM      9  C   UNK A   2       7.637   4.753  11.847  0.00  0.00    +0.000 A 
ATOM     10  C   UNK A   2       7.930   5.146  13.150  0.00  0.00    +0.000 A 
ATOM     11  C   UNK A   2       7.105   4.738  14.200  0.00  0.00    +0.000 A 
ATOM     12  C   UNK A   2       7.362   5.194  15.608  0.00  0.00    +0.000 C 
ATOM     13  N   UNK A   2       6.133   5.388  16.367  0.00  0.00    +0.000 N 
ATOM     14  C   ALA A   1       5.973   6.506  17.182  0.00  0.00    +0.000 C 
ATOM     15  O   ALA A   1       6.710   7.488  17.156  0.00  0.00    +0.000 OA
ATOM     16  CA  ALA A   1       5.122   6.154  18.421  0.00  0.00    +0.000 C 
ATOM     17  CB  ALA A   1       6.170   5.368  19.265  0.00  0.00    +0.000 C 
ENDROOT
BRANCH   1  18
ATOM     18  C   UNK A   0       2.562   5.653  18.689  0.00  0.00    +0.000 C 
BRANCH  18  19
ATOM     19  C   UNK A   0       2.052   4.523  19.644  0.00  0.00    +0.000 C 
ATOM     20  O   UNK A   0       0.984   3.935  19.499  0.00  0.00    +0.000 OA
BRANCH  19  21
ATOM     21  O   UNK A   0       2.984   4.169  20.579  0.00  0.00    +0.000 OA
BRANCH  21  23
ATOM     22  C   UNK A   0       4.361   2.192  20.329  0.00  0.00    +0.000 C 
ATOM     23  C   UNK A   0       3.050   2.754  20.847  0.00  0.00    +0.000 C 
ENDBRANCH  21  23
ENDBRANCH  19  21
ENDBRANCH  18  19
BRANCH  18  24
ATOM     24  C   UNK A   0       2.396   6.988  19.432  0.00  0.00    +0.000 C 
BRANCH  24  25
ATOM     25  C   UNK A   0       2.156   8.148  18.491  0.00  0.00    +0.000 C 
BRANCH  25  26
ATOM     26  C   UNK A   0       1.120   9.115  18.966  0.00  0.00    +0.000 A 
ATOM     27  C   UNK A   0       0.333   9.808  18.031  0.00  0.00    +0.000 A 
ATOM     28  C   UNK A   0      -0.646  10.697  18.469  0.00  0.00    +0.000 A 
ATOM     29  C   UNK A   0      -0.841  10.898  19.832  0.00  0.00    +0.000 A 
ATOM     30  C   UNK A   0      -0.063  10.208  20.761  0.00  0.00    +0.000 A 
ATOM     31  C   UNK A   0       0.917   9.317  20.328  0.00  0.00    +0.000 A 
ENDBRANCH  25  26
ENDBRANCH  24  25
ENDBRANCH  18  24
ENDBRANCH   1  18
TORSDOF 7
ENDMDL
MODEL 2
REMARK VINA RESULT:      -8.2      0.715      1.354
REMARK  Name = 
REMARK  9 active torsions:
REMARK  status: ('A' for Active; 'I' for Inactive)
REMARK    1  A    between atoms: C_1  and  C_2
REMARK    2  A    between atoms: C_2  and  O_3
REMARK    3  A    between atoms: O_3  and  C_4
REMARK    4  A    between atoms: C_4  and  C_6
REMARK    5  A    between atoms: C_6  and  C_7
REMARK    6  A    between atoms: C_6  and  N_15
REMARK    7  A    between atoms: C_7  and  C_8
REMARK    8  A    between atoms: C_8  and  C_9
REMARK    9  A    between atoms: CA_30  and  CB_31
REMARK                            x       y       z     vdW  Elec       q    Type
REMARK                         _______ _______ _______ _____ _____    ______ ____
ROOT
ATOM      1  N   ALA A   1       4.141   5.398  18.172  0.00  0.00    +0.000 N 
ATOM      2  C   UNK A   2       4.293   4.268  17.362  0.00  0.00    +0.000 C 
ATOM      3  O   UNK A   2       3.584   3.270  17.469  0.00  0.00    +0.000 OA
ATOM      4  C   UNK A   2       5.087   4.625  16.085  0.00  0.00    +0.000 C 
ATOM      5  C   UNK A   2       5.357   3.401  15.214  0.00  0.00    +0.000 C 
ATOM      6  C   UNK A   2       6.097   3.862  13.982  0.00  0.00    +0.000 A 
ATOM      7  C   UNK A   2       5.743   3.442  12.701  0.00  0.00    +0.000 A 
ATOM      8  C   UNK A   2       6.467   3.899  11.600  0.00  0.00    +0.000 A 
ATOM      9  C   UNK A   2       7.559   4.752  11.778  0.00  0.00    +0.000 A 
ATOM     10  C   UNK A   2       7.908   5.184  13.055  0.00  0.00    +0.000 A 
ATOM     11  C   UNK A   2       7.158   4.771  14.157  0.00  0.00    +0.000 A 
ATOM     12  C   UNK A   2       7.474   5.267  15.539  0.00  0.00    +0.000 C 
ATOM     13  N   UNK A   2       6.282   5.434  16.361  0.00  0.00    +0.000 N 
ATOM     14  C   ALA A   1       6.126   6.563  17.161  0.00  0.00    +0.000 C 
ATOM     15  O   ALA A   1       6.824   7.570  17.074  0.00  0.00    +0.000 OA
ATOM     16  CA  ALA A   1       5.358   6.209  18.452  0.00  0.00    +0.000 C 
ATOM     17  CB  ALA A   1       6.478   5.479  19.252  0.00  0.00    +0.000 C 
ENDROOT
BRANCH   1  18
ATOM     18  C   UNK A   0       2.837   5.624  18.872  0.00  0.00    +0.000 C 
BRANCH  18  19
ATOM     19  C   UNK A   0       2.501   4.589  19.996  0.00  0.00    +0.000 C 
ATOM     20  O   UNK A   0       3.341   4.093  20.743  0.00  0.00    +0.000 OA
BRANCH  19  21
ATOM     21  O   UNK A   0       1.156   4.398  20.147  0.00  0.00    +0.000 OA
BRANCH  21  23
ATOM     22  C   UNK A   0       0.681   2.410  18.847  0.00  0.00    +0.000 C 
ATOM     23  C   UNK A   0       0.757   3.016  20.236  0.00  0.00    +0.000 C 
ENDBRANCH  21  23
ENDBRANCH  19  21
ENDBRANCH  18  19
BRANCH  18  24
ATOM     24  C   UNK A   0       2.597   7.024  19.455  0.00  0.00    +0.000 C 
BRANCH  24  25
ATOM     25  C   UNK A   0       2.129   8.015  18.411  0.00  0.00    +0.000 C 
BRANCH  25  26
ATOM     26  C   UNK A   0       1.155   9.026  18.922  0.00  0.00    +0.000 A 
ATOM     27  C   UNK A   0       0.970   9.178  20.306  0.00  0.00    +0.000 A 
ATOM     28  C   UNK A   0       0.077  10.132  20.788  0.00  0.00    +0.000 A 
ATOM     29  C   UNK A   0      -0.632  10.932  19.897  0.00  0.00    +0.000 A 
ATOM     30  C   UNK A   0      -0.447  10.785  18.523  0.00  0.00    +0.000 A 
ATOM     31  C   UNK A   0       0.446   9.833  18.036  0.00  0.00    +0.000 A 
ENDBRANCH  25  26
ENDBRANCH  24  25
ENDBRANCH  18  24
ENDBRANCH   1  18
TORSDOF 7
ENDMDL
MODEL 3
REMARK VINA RESULT:      -7.9      0.947      1.317
REMARK  Name = 
REMARK  9 active torsions:
REMARK  status: ('A' for Active; 'I' for Inactive)
REMARK    1  A    between atoms: C_1  and  C_2
REMARK    2  A    between atoms: C_2  and  O_3
REMARK    3  A    between atoms: O_3  and  C_4
REMARK    4  A    between atoms: C_4  and  C_6
REMARK    5  A    between atoms: C_6  and  C_7
REMARK    6  A    between atoms: C_6  and  N_15
REMARK    7  A    between atoms: C_7  and  C_8
REMARK    8  A    between atoms: C_8  and  C_9
REMARK    9  A    between atoms: CA_30  and  CB_31
REMARK                            x       y       z     vdW  Elec       q    Type
REMARK                         _______ _______ _______ _____ _____    ______ ____
ROOT
ATOM      1  N   ALA A   1       3.915   5.386  17.991  0.00  0.00    +0.000 N 
ATOM      2  C   UNK A   2       4.118   4.258  17.190  0.00  0.00    +0.000 C 
ATOM      3  O   UNK A   2       3.408   3.258  17.254  0.00  0.00    +0.000 OA
ATOM      4  C   UNK A   2       4.984   4.620  15.962  0.00  0.00    +0.000 C 
ATOM      5  C   UNK A   2       5.308   3.399  15.105  0.00  0.00    +0.000 C 
ATOM      6  C   UNK A   2       6.115   3.865  13.919  0.00  0.00    +0.000 A 
ATOM      7  C   UNK A   2       5.838   3.446  12.618  0.00  0.00    +0.000 A 
ATOM      8  C   UNK A   2       6.622   3.908  11.562  0.00  0.00    +0.000 A 
ATOM      9  C   UNK A   2       7.699   4.764  11.805  0.00  0.00    +0.000 A 
ATOM     10  C   UNK A   2       7.973   5.195  13.100  0.00  0.00    +0.000 A 
ATOM     11  C   UNK A   2       7.161   4.777  14.156  0.00  0.00    +0.000 A 
ATOM     12  C   UNK A   2       7.396   5.271  15.555  0.00  0.00    +0.000 C 
ATOM     13  N   UNK A   2       6.158   5.433  16.307  0.00  0.00    +0.000 N 
ATOM     14  C   ALA A   1       5.952   6.560  17.099  0.00  0.00    +0.000 C 
ATOM     15  O   ALA A   1       6.650   7.569  17.054  0.00  0.00    +0.000 OA
ATOM     16  CA  ALA A   1       5.111   6.201  18.343  0.00  0.00    +0.000 C 
ATOM     17  CB  ALA A   1       6.186   5.473  19.205  0.00  0.00    +0.000 C 
ENDROOT
BRANCH   1  18
ATOM     18  C   UNK A   0       2.572   5.606  18.615  0.00  0.00    +0.000 C 
BRANCH  18  19
ATOM     19  C   UNK A   0       2.314   4.801  19.932  0.00  0.00    +0.000 C 
ATOM     20  O   UNK A   0       3.151   4.652  20.818  0.00  0.00    +0.000 OA
BRANCH  19  21
ATOM     21  O   UNK A   0       1.014   4.395  20.050  0.00  0.00    +0.000 OA
BRANCH  21  23
ATOM     22  C   UNK A   0       0.658   2.315  18.860  0.00  0.00    +0.000 C 
ATOM     23  C   UNK A   0       0.847   2.973  20.214  0.00  0.00    +0.000 C 
ENDBRANCH  21  23
ENDBRANCH  19  21
ENDBRANCH  18  19
BRANCH  18  24
ATOM     24  C   UNK A   0       2.164   7.063  18.884  0.00  0.00    +0.000 C 
BRANCH  24  25
ATOM     25  C   UNK A   0       2.061   7.371  20.362  0.00  0.00    +0.000 C 
BRANCH  25  26
ATOM     26  C   UNK A   0       1.224   8.567  20.680  0.00  0.00    +0.000 A 
ATOM     27  C   UNK A   0       0.849   9.448  19.651  0.00  0.00    +0.000 A 
ATOM     28  C   UNK A   0       0.053  10.554  19.938  0.00  0.00    +0.000 A 
ATOM     29  C   UNK A   0      -0.367  10.786  21.244  0.00  0.00    +0.000 A 
ATOM     30  C   UNK A   0       0.001   9.912  22.265  0.00  0.00    +0.000 A 
ATOM     31  C   UNK A   0       0.796   8.803  21.984  0.00  0.00    +0.000 A 
ENDBRANCH  25  26
ENDBRANCH  24  25
ENDBRANCH  18  24
ENDBRANCH   1  18
TORSDOF 7
ENDMDL
MODEL 4
REMARK VINA RESULT:      -7.8      0.683      1.274
REMARK  Name = 
REMARK  9 active torsions:
REMARK  status: ('A' for Active; 'I' for Inactive)
REMARK    1  A    between atoms: C_1  and  C_2
REMARK    2  A    between atoms: C_2  and  O_3
REMARK    3  A    between atoms: O_3  and  C_4
REMARK    4  A    between atoms: C_4  and  C_6
REMARK    5  A    between atoms: C_6  and  C_7
REMARK    6  A    between atoms: C_6  and  N_15
REMARK    7  A    between atoms: C_7  and  C_8
REMARK    8  A    between atoms: C_8  and  C_9
REMARK    9  A    between atoms: CA_30  and  CB_31
REMARK                            x       y       z     vdW  Elec       q    Type
REMARK                         _______ _______ _______ _____ _____    ______ ____
ROOT
ATOM      1  N   ALA A   1       3.914   5.498  18.162  0.00  0.00    +0.000 N 
ATOM      2  C   UNK A   2       4.019   4.368  17.345  0.00  0.00    +0.000 C 
ATOM      3  O   UNK A   2       3.242   3.419  17.414  0.00  0.00    +0.000 OA
ATOM      4  C   UNK A   2       4.880   4.685  16.101  0.00  0.00    +0.000 C 
ATOM      5  C   UNK A   2       5.099   3.455  15.224  0.00  0.00    +0.000 C 
ATOM      6  C   UNK A   2       5.911   3.877  14.025  0.00  0.00    +0.000 A 
ATOM      7  C   UNK A   2       5.575   3.496  12.726  0.00  0.00    +0.000 A 
ATOM      8  C   UNK A   2       6.367   3.915  11.657  0.00  0.00    +0.000 A 
ATOM      9  C   UNK A   2       7.506   4.690  11.884  0.00  0.00    +0.000 A 
ATOM     10  C   UNK A   2       7.838   5.085  13.177  0.00  0.00    +0.000 A 
ATOM     11  C   UNK A   2       7.023   4.712  14.247  0.00  0.00    +0.000 A 
ATOM     12  C   UNK A   2       7.323   5.171  15.646  0.00  0.00    +0.000 C 
ATOM     13  N   UNK A   2       6.116   5.409  16.428  0.00  0.00    +0.000 N 
ATOM     14  C   ALA A   1       6.007   6.538  17.237  0.00  0.00    +0.000 C 
ATOM     15  O   ALA A   1       6.773   7.497  17.186  0.00  0.00    +0.000 OA
ATOM     16  CA  ALA A   1       5.172   6.223  18.496  0.00  0.00    +0.000 C 
ATOM     17  CB  ALA A   1       6.212   5.412  19.324  0.00  0.00    +0.000 C 
ENDROOT
BRANCH   1  18
ATOM     18  C   UNK A   0       2.604   5.803  18.820  0.00  0.00    +0.000 C 
BRANCH  18  19
ATOM     19  C   UNK A   0       2.074   4.693  19.788  0.00  0.00    +0.000 C 
ATOM     20  O   UNK A   0       0.954   4.196  19.711  0.00  0.00    +0.000 OA
BRANCH  19  21
ATOM     21  O   UNK A   0       3.039   4.241  20.643  0.00  0.00    +0.000 OA
BRANCH  21  23
ATOM     22  C   UNK A   0       4.385   2.241  20.415  0.00  0.00    +0.000 C 
ATOM     23  C   UNK A   0       3.044   2.813  20.834  0.00  0.00    +0.000 C 
ENDBRANCH  21  23
ENDBRANCH  19  21
ENDBRANCH  18  19
BRANCH  18  24
ATOM     24  C   UNK A   0       2.497   7.144  19.562  0.00  0.00    +0.000 C 
BRANCH  24  25
ATOM     25  C   UNK A   0       1.374   7.156  20.577  0.00  0.00    +0.000 C 
BRANCH  25  26
ATOM     26  C   UNK A   0       0.851   8.520  20.892  0.00  0.00    +0.000 A 
ATOM     27  C   UNK A   0       0.412   8.814  22.194  0.00  0.00    +0.000 A 
ATOM     28  C   UNK A   0      -0.059  10.088  22.498  0.00  0.00    +0.000 A 
ATOM     29  C   UNK A   0      -0.095  11.068  21.512  0.00  0.00    +0.000 A 
ATOM     30  C   UNK A   0       0.344  10.780  20.220  0.00  0.00    +0.000 A 
ATOM     31  C   UNK A   0       0.817   9.507  19.910  0.00  0.00    +0.000 A 
ENDBRANCH  25  26
ENDBRANCH  24  25
ENDBRANCH  18  24
ENDBRANCH   1  18
TORSDOF 7
ENDMDL
MODEL 5
REMARK VINA RESULT:      -7.7      0.951      1.128
REMARK  Name = 
REMARK  9 active torsions:
REMARK  status: ('A' for Active; 'I' for Inactive)
REMARK    1  A    between atoms: C_1  and  C_2
REMARK    2  A    between atoms: C_2  and  O_3
REMARK    3  A    between atoms: O_3  and  C_4
REMARK    4  A    between atoms: C_4  and  C_6
REMARK    5  A    between atoms: C_6  and  C_7
REMARK    6  A    between atoms: C_6  and  N_15
REMARK    7  A    between atoms: C_7  and  C_8
REMARK    8  A    between atoms: C_8  and  C_9
REMARK    9  A    between atoms: CA_30  and  CB_31
REMARK                            x       y       z     vdW  Elec       q    Type
REMARK                         _______ _______ _______ _____ _____    ______ ____
ROOT
ATOM      1  N   ALA A   1       3.838   5.766  18.030  0.00  0.00    +0.000 N 
ATOM      2  C   UNK A   2       3.902   4.610  17.246  0.00  0.00    +0.000 C 
ATOM      3  O   UNK A   2       3.070   3.709  17.317  0.00  0.00    +0.000 OA
ATOM      4  C   UNK A   2       4.815   4.841  16.021  0.00  0.00    +0.000 C 
ATOM      5  C   UNK A   2       4.988   3.576  15.185  0.00  0.00    +0.000 C 
ATOM      6  C   UNK A   2       5.857   3.918  14.000  0.00  0.00    +0.000 A 
ATOM      7  C   UNK A   2       5.539   3.519  12.702  0.00  0.00    +0.000 A 
ATOM      8  C   UNK A   2       6.384   3.862  11.647  0.00  0.00    +0.000 A 
ATOM      9  C   UNK A   2       7.558   4.577  11.888  0.00  0.00    +0.000 A 
ATOM     10  C   UNK A   2       7.875   4.989  13.180  0.00  0.00    +0.000 A 
ATOM     11  C   UNK A   2       7.009   4.693  14.234  0.00  0.00    +0.000 A 
ATOM     12  C   UNK A   2       7.294   5.175  15.628  0.00  0.00    +0.000 C 
ATOM     13  N   UNK A   2       6.080   5.503  16.366  0.00  0.00    +0.000 N 
ATOM     14  C   ALA A   1       6.014   6.659  17.141  0.00  0.00    +0.000 C 
ATOM     15  O   ALA A   1       6.835   7.571  17.088  0.00  0.00    +0.000 OA
ATOM     16  CA  ALA A   1       5.125   6.428  18.382  0.00  0.00    +0.000 C 
ATOM     17  CB  ALA A   1       6.092   5.582  19.263  0.00  0.00    +0.000 C 
ENDROOT
BRANCH   1  18
ATOM     18  C   UNK A   0       2.529   6.164  18.638  0.00  0.00    +0.000 C 
BRANCH  18  19
ATOM     19  C   UNK A   0       2.140   5.387  19.940  0.00  0.00    +0.000 C 
ATOM     20  O   UNK A   0       2.304   5.828  21.074  0.00  0.00    +0.000 OA
BRANCH  19  21
ATOM     21  O   UNK A   0       1.476   4.222  19.675  0.00  0.00    +0.000 OA
BRANCH  21  23
ATOM     22  C   UNK A   0       2.397   2.631  21.251  0.00  0.00    +0.000 C 
ATOM     23  C   UNK A   0       1.174   3.430  20.841  0.00  0.00    +0.000 C 
ENDBRANCH  21  23
ENDBRANCH  19  21
ENDBRANCH  18  19
BRANCH  18  24
ATOM     24  C   UNK A   0       2.323   7.660  18.921  0.00  0.00    +0.000 C 
BRANCH  24  25
ATOM     25  C   UNK A   0       1.789   8.409  17.720  0.00  0.00    +0.000 C 
BRANCH  25  26
ATOM     26  C   UNK A   0       0.962   9.605  18.064  0.00  0.00    +0.000 A 
ATOM     27  C   UNK A   0      -0.423   9.586  17.826  0.00  0.00    +0.000 A 
ATOM     28  C   UNK A   0      -1.201  10.691  18.162  0.00  0.00    +0.000 A 
ATOM     29  C   UNK A   0      -0.605  11.813  18.730  0.00  0.00    +0.000 A 
ATOM     30  C   UNK A   0       0.768  11.832  18.969  0.00  0.00    +0.000 A 
ATOM     31  C   UNK A   0       1.552  10.729  18.637  0.00  0.00    +0.000 A 
ENDBRANCH  25  26
ENDBRANCH  24  25
ENDBRANCH  18  24
ENDBRANCH   1  18
TORSDOF 7
ENDMDL
MODEL 6
REMARK VINA RESULT:      -7.3      1.392      2.219
REMARK  Name = 
REMARK  9 active torsions:
REMARK  status: ('A' for Active; 'I' for Inactive)
REMARK    1  A    between atoms: C_1  and  C_2
REMARK    2  A    between atoms: C_2  and  O_3
REMARK    3  A    between atoms: O_3  and  C_4
REMARK    4  A    between atoms: C_4  and  C_6
REMARK    5  A    between atoms: C_6  and  C_7
REMARK    6  A    between atoms: C_6  and  N_15
REMARK    7  A    between atoms: C_7  and  C_8
REMARK    8  A    between atoms: C_8  and  C_9
REMARK    9  A    between atoms: CA_30  and  CB_31
REMARK                            x       y       z     vdW  Elec       q    Type
REMARK                         _______ _______ _______ _____ _____    ______ ____
ROOT
ATOM      1  N   ALA A   1       3.917   6.213  17.925  0.00  0.00    +0.000 N 
ATOM      2  C   UNK A   2       3.825   5.022  17.198  0.00  0.00    +0.000 C 
ATOM      3  O   UNK A   2       2.878   4.247  17.304  0.00  0.00    +0.000 OA
ATOM      4  C   UNK A   2       4.764   5.068  15.971  0.00  0.00    +0.000 C 
ATOM      5  C   UNK A   2       4.765   3.752  15.198  0.00  0.00    +0.000 C 
ATOM      6  C   UNK A   2       5.675   3.915  14.006  0.00  0.00    +0.000 A 
ATOM      7  C   UNK A   2       5.308   3.501  12.726  0.00  0.00    +0.000 A 
ATOM      8  C   UNK A   2       6.194   3.675  11.663  0.00  0.00    +0.000 A 
ATOM      9  C   UNK A   2       7.455   4.235  11.880  0.00  0.00    +0.000 A 
ATOM     10  C   UNK A   2       7.821   4.662  13.153  0.00  0.00    +0.000 A 
ATOM     11  C   UNK A   2       6.921   4.538  14.213  0.00  0.00    +0.000 A 
ATOM     12  C   UNK A   2       7.266   5.043  15.585  0.00  0.00    +0.000 C 
ATOM     13  N   UNK A   2       6.106   5.569  16.296  0.00  0.00    +0.000 N 
ATOM     14  C   ALA A   1       6.196   6.759  17.014  0.00  0.00    +0.000 C 
ATOM     15  O   ALA A   1       7.133   7.547  16.925  0.00  0.00    +0.000 OA
ATOM     16  CA  ALA A   1       5.281   6.710  18.256  0.00  0.00    +0.000 C 
ATOM     17  CB  ALA A   1       6.122   5.786  19.186  0.00  0.00    +0.000 C 
ENDROOT
BRANCH   1  18
ATOM     18  C   UNK A   0       2.673   6.814  18.502  0.00  0.00    +0.000 C 
BRANCH  18  19
ATOM     19  C   UNK A   0       2.398   6.455  20.001  0.00  0.00    +0.000 C 
ATOM     20  O   UNK A   0       2.516   5.325  20.466  0.00  0.00    +0.000 OA
BRANCH  19  21
ATOM     21  O   UNK A   0       2.142   7.559  20.764  0.00  0.00    +0.000 OA
BRANCH  21  23
ATOM     22  C   UNK A   0       0.557   9.018  21.872  0.00  0.00    +0.000 C 
ATOM     23  C   UNK A   0       0.780   7.665  21.222  0.00  0.00    +0.000 C 
ENDBRANCH  21  23
ENDBRANCH  19  21
ENDBRANCH  18  19
BRANCH  18  24
ATOM     24  C   UNK A   0       2.507   8.335  18.360  0.00  0.00    +0.000 C 
BRANCH  24  25
ATOM     25  C   UNK A   0       1.240   8.713  17.625  0.00  0.00    +0.000 C 
BRANCH  25  26
ATOM     26  C   UNK A   0       0.553   9.922  18.173  0.00  0.00    +0.000 A 
ATOM     27  C   UNK A   0       1.313  10.949  18.758  0.00  0.00    +0.000 A 
ATOM     28  C   UNK A   0       0.680  12.086  19.254  0.00  0.00    +0.000 A 
ATOM     29  C   UNK A   0      -0.704  12.202  19.172  0.00  0.00    +0.000 A 
ATOM     30  C   UNK A   0      -1.459  11.184  18.589  0.00  0.00    +0.000 A 
ATOM     31  C   UNK A   0      -0.831  10.045  18.090  0.00  0.00    +0.000 A 
ENDBRANCH  25  26
ENDBRANCH  24  25
ENDBRANCH  18  24
ENDBRANCH   1  18
TORSDOF 7
ENDMDL
MODEL 7
REMARK VINA RESULT:      -7.1      1.250      2.103
REMARK  Name = 
REMARK  9 active torsions:
REMARK  status: ('A' for Active; 'I' for Inactive)
REMARK    1  A    between atoms: C_1  and  C_2
REMARK    2  A    between atoms: C_2  and  O_3
REMARK    3  A    between atoms: O_3  and  C_4
REMARK    4  A    between atoms: C_4  and  C_6
REMARK    5  A    between atoms: C_6  and  C_7
REMARK    6  A    between atoms: C_6  and  N_15
REMARK    7  A    between atoms: C_7  and  C_8
REMARK    8  A    between atoms: C_8  and  C_9
REMARK    9  A    between atoms: CA_30  and  CB_31
REMARK                            x       y       z     vdW  Elec       q    Type
REMARK                         _______ _______ _______ _____ _____    ______ ____
ROOT
ATOM      1  N   ALA A   1       3.695   5.568  17.922  0.00  0.00    +0.000 N 
ATOM      2  C   UNK A   2       3.870   4.427  17.132  0.00  0.00    +0.000 C 
ATOM      3  O   UNK A   2       3.100   3.471  17.161  0.00  0.00    +0.000 OA
ATOM      4  C   UNK A   2       4.813   4.735  15.947  0.00  0.00    +0.000 C 
ATOM      5  C   UNK A   2       5.106   3.495  15.107  0.00  0.00    +0.000 C 
ATOM      6  C   UNK A   2       5.996   3.909  13.961  0.00  0.00    +0.000 A 
ATOM      7  C   UNK A   2       5.757   3.504  12.648  0.00  0.00    +0.000 A 
ATOM      8  C   UNK A   2       6.617   3.917  11.631  0.00  0.00    +0.000 A 
ATOM      9  C   UNK A   2       7.729   4.709  11.925  0.00  0.00    +0.000 A 
ATOM     10  C   UNK A   2       7.965   5.126  13.232  0.00  0.00    +0.000 A 
ATOM     11  C   UNK A   2       7.081   4.760  14.248  0.00  0.00    +0.000 A 
ATOM     12  C   UNK A   2       7.276   5.243  15.657  0.00  0.00    +0.000 C 
ATOM     13  N   UNK A   2       6.015   5.479  16.348  0.00  0.00    +0.000 N 
ATOM     14  C   ALA A   1       5.838   6.618  17.129  0.00  0.00    +0.000 C 
ATOM     15  O   ALA A   1       6.595   7.585  17.118  0.00  0.00    +0.000 OA
ATOM     16  CA  ALA A   1       4.919   6.312  18.332  0.00  0.00    +0.000 C 
ATOM     17  CB  ALA A   1       5.907   5.525  19.244  0.00  0.00    +0.000 C 
ENDROOT
BRANCH   1  18
ATOM     18  C   UNK A   0       2.339   5.868  18.481  0.00  0.00    +0.000 C 
BRANCH  18  19
ATOM     19  C   UNK A   0       2.291   6.064  20.033  0.00  0.00    +0.000 C 
ATOM     20  O   UNK A   0       2.455   5.155  20.843  0.00  0.00    +0.000 OA
BRANCH  19  21
ATOM     21  O   UNK A   0       2.181   7.378  20.391  0.00  0.00    +0.000 OA
BRANCH  21  23
ATOM     22  C   UNK A   0       1.175   9.099  21.766  0.00  0.00    +0.000 C 
ATOM     23  C   UNK A   0       1.087   7.663  21.284  0.00  0.00    +0.000 C 
ENDBRANCH  21  23
ENDBRANCH  19  21
ENDBRANCH  18  19
BRANCH  18  24
ATOM     24  C   UNK A   0       1.574   7.041  17.850  0.00  0.00    +0.000 C 
BRANCH  24  25
ATOM     25  C   UNK A   0       2.424   8.287  17.725  0.00  0.00    +0.000 C 
BRANCH  25  26
ATOM     26  C   UNK A   0       1.695   9.555  18.029  0.00  0.00    +0.000 A 
ATOM     27  C   UNK A   0       0.298   9.540  18.171  0.00  0.00    +0.000 A 
ATOM     28  C   UNK A   0      -0.384  10.716  18.472  0.00  0.00    +0.000 A 
ATOM     29  C   UNK A   0       0.320  11.905  18.630  0.00  0.00    +0.000 A 
ATOM     30  C   UNK A   0       1.708  11.922  18.493  0.00  0.00    +0.000 A 
ATOM     31  C   UNK A   0       2.395  10.748  18.193  0.00  0.00    +0.000 A 
ENDBRANCH  25  26
ENDBRANCH  24  25
ENDBRANCH  18  24
ENDBRANCH   1  18
TORSDOF 7
ENDMDL
MODEL 8
REMARK VINA RESULT:      -7.1      1.055      1.329
REMARK  Name = 
REMARK  9 active torsions:
REMARK  status: ('A' for Active; 'I' for Inactive)
REMARK    1  A    between atoms: C_1  and  C_2
REMARK    2  A    between atoms: C_2  and  O_3
REMARK    3  A    between atoms: O_3  and  C_4
REMARK    4  A    between atoms: C_4  and  C_6
REMARK    5  A    between atoms: C_6  and  C_7
REMARK    6  A    between atoms: C_6  and  N_15
REMARK    7  A    between atoms: C_7  and  C_8
REMARK    8  A    between atoms: C_8  and  C_9
REMARK    9  A    between atoms: CA_30  and  CB_31
REMARK                            x       y       z     vdW  Elec       q    Type
REMARK                         _______ _______ _______ _____ _____    ______ ____
ROOT
ATOM      1  N   ALA A   1       4.118   5.240  18.019  0.00  0.00    +0.000 N 
ATOM      2  C   UNK A   2       4.339   4.127  17.201  0.00  0.00    +0.000 C 
ATOM      3  O   UNK A   2       3.680   3.094  17.288  0.00  0.00    +0.000 OA
ATOM      4  C   UNK A   2       5.133   4.536  15.940  0.00  0.00    +0.000 C 
ATOM      5  C   UNK A   2       5.478   3.337  15.062  0.00  0.00    +0.000 C 
ATOM      6  C   UNK A   2       6.211   3.846  13.846  0.00  0.00    +0.000 A 
ATOM      7  C   UNK A   2       5.897   3.423  12.555  0.00  0.00    +0.000 A 
ATOM      8  C   UNK A   2       6.614   3.927  11.470  0.00  0.00    +0.000 A 
ATOM      9  C   UNK A   2       7.658   4.831  11.673  0.00  0.00    +0.000 A 
ATOM     10  C   UNK A   2       7.966   5.267  12.958  0.00  0.00    +0.000 A 
ATOM     11  C   UNK A   2       7.222   4.806  14.045  0.00  0.00    +0.000 A 
ATOM     12  C   UNK A   2       7.492   5.304  15.436  0.00  0.00    +0.000 C 
ATOM     13  N   UNK A   2       6.281   5.402  16.241  0.00  0.00    +0.000 N 
ATOM     14  C   ALA A   1       6.057   6.514  17.050  0.00  0.00    +0.000 C 
ATOM     15  O   ALA A   1       6.704   7.555  16.982  0.00  0.00    +0.000 OA
ATOM     16  CA  ALA A   1       5.288   6.108  18.326  0.00  0.00    +0.000 C 
ATOM     17  CB  ALA A   1       6.432   5.428  19.135  0.00  0.00    +0.000 C 
ENDROOT
BRANCH   1  18
ATOM     18  C   UNK A   0       2.794   5.392  18.701  0.00  0.00    +0.000 C 
BRANCH  18  19
ATOM     19  C   UNK A   0       1.887   4.117  18.678  0.00  0.00    +0.000 C 
ATOM     20  O   UNK A   0       1.058   3.883  17.803  0.00  0.00    +0.000 OA
BRANCH  19  21
ATOM     21  O   UNK A   0       2.211   3.227  19.664  0.00  0.00    +0.000 OA
BRANCH  21  23
ATOM     22  C   UNK A   0       1.674   2.575  21.934  0.00  0.00    +0.000 C 
ATOM     23  C   UNK A   0       1.127   2.909  20.559  0.00  0.00    +0.000 C 
ENDBRANCH  21  23
ENDBRANCH  19  21
ENDBRANCH  18  19
BRANCH  18  24
ATOM     24  C   UNK A   0       2.815   5.911  20.147  0.00  0.00    +0.000 C 
BRANCH  24  25
ATOM     25  C   UNK A   0       1.583   6.720  20.490  0.00  0.00    +0.000 C 
BRANCH  25  26
ATOM     26  C   UNK A   0       1.526   8.057  19.825  0.00  0.00    +0.000 A 
ATOM     27  C   UNK A   0       2.072   8.220  18.540  0.00  0.00    +0.000 A 
ATOM     28  C   UNK A   0       2.006   9.459  17.908  0.00  0.00    +0.000 A 
ATOM     29  C   UNK A   0       1.400  10.534  18.551  0.00  0.00    +0.000 A 
ATOM     30  C   UNK A   0       0.855  10.374  19.824  0.00  0.00    +0.000 A 
ATOM     31  C   UNK A   0       0.918   9.136  20.461  0.00  0.00    +0.000 A 
ENDBRANCH  25  26
ENDBRANCH  24  25
ENDBRANCH  18  24
ENDBRANCH   1  18
TORSDOF 7
ENDMDL
MODEL 9
REMARK VINA RESULT:      -7.0      3.771      9.762
REMARK  Name = 
REMARK  9 active torsions:
REMARK  status: ('A' for Active; 'I' for Inactive)
REMARK    1  A    between atoms: C_1  and  C_2
REMARK    2  A    between atoms: C_2  and  O_3
REMARK    3  A    between atoms: O_3  and  C_4
REMARK    4  A    between atoms: C_4  and  C_6
REMARK    5  A    between atoms: C_6  and  C_7
REMARK    6  A    between atoms: C_6  and  N_15
REMARK    7  A    between atoms: C_7  and  C_8
REMARK    8  A    between atoms: C_8  and  C_9
REMARK    9  A    between atoms: CA_30  and  CB_31
REMARK                            x       y       z     vdW  Elec       q    Type
REMARK                         _______ _______ _______ _____ _____    ______ ____
ROOT
ATOM      1  N   ALA A   1       0.472   9.938  19.340  0.00  0.00    +0.000 N 
ATOM      2  C   UNK A   2      -0.595  10.292  18.508  0.00  0.00    +0.000 C 
ATOM      3  O   UNK A   2      -0.770   9.792  17.400  0.00  0.00    +0.000 OA
ATOM      4  C   UNK A   2      -1.711  10.977  19.328  0.00  0.00    +0.000 C 
ATOM      5  C   UNK A   2      -2.858  11.463  18.447  0.00  0.00    +0.000 C 
ATOM      6  C   UNK A   2      -3.906  12.074  19.343  0.00  0.00    +0.000 A 
ATOM      7  C   UNK A   2      -5.263  11.784  19.208  0.00  0.00    +0.000 A 
ATOM      8  C   UNK A   2      -6.186  12.385  20.064  0.00  0.00    +0.000 A 
ATOM      9  C   UNK A   2      -5.760  13.293  21.035  0.00  0.00    +0.000 A 
ATOM     10  C   UNK A   2      -4.405  13.577  21.182  0.00  0.00    +0.000 A 
ATOM     11  C   UNK A   2      -3.470  12.942  20.362  0.00  0.00    +0.000 A 
ATOM     12  C   UNK A   2      -1.998  13.183  20.537  0.00  0.00    +0.000 C 
ATOM     13  N   UNK A   2      -1.199  11.997  20.254  0.00  0.00    +0.000 N 
ATOM     14  C   ALA A   1      -0.141  11.640  21.086  0.00  0.00    +0.000 C 
ATOM     15  O   ALA A   1       0.055  12.128  22.196  0.00  0.00    +0.000 OA
ATOM     16  CA  ALA A   1       0.991  10.980  20.270  0.00  0.00    +0.000 C 
ATOM     17  CB  ALA A   1       1.611  12.236  19.589  0.00  0.00    +0.000 C 
ENDROOT
BRANCH   1  18
ATOM     18  C   UNK A   0       1.165   8.629  19.123  0.00  0.00    +0.000 C 
BRANCH  18  19
ATOM     19  C   UNK A   0       2.192   8.611  17.942  0.00  0.00    +0.000 C 
ATOM     20  O   UNK A   0       2.557   9.616  17.338  0.00  0.00    +0.000 OA
BRANCH  19  21
ATOM     21  O   UNK A   0       2.740   7.375  17.744  0.00  0.00    +0.000 OA
BRANCH  21  23
ATOM     22  C   UNK A   0       4.518   6.006  16.832  0.00  0.00    +0.000 C 
ATOM     23  C   UNK A   0       4.104   7.395  17.281  0.00  0.00    +0.000 C 
ENDBRANCH  21  23
ENDBRANCH  19  21
ENDBRANCH  18  19
BRANCH  18  24
ATOM     24  C   UNK A   0       1.861   8.002  20.341  0.00  0.00    +0.000 C 
BRANCH  24  25
ATOM     25  C   UNK A   0       1.095   6.823  20.902  0.00  0.00    +0.000 C 
BRANCH  25  26
ATOM     26  C   UNK A   0       1.655   5.493  20.517  0.00  0.00    +0.000 A 
ATOM     27  C   UNK A   0       0.807   4.375  20.440  0.00  0.00    +0.000 A 
ATOM     28  C   UNK A   0       1.320   3.137  20.064  0.00  0.00    +0.000 A 
ATOM     29  C   UNK A   0       2.673   3.008  19.766  0.00  0.00    +0.000 A 
ATOM     30  C   UNK A   0       3.516   4.116  19.838  0.00  0.00    +0.000 A 
ATOM     31  C   UNK A   0       3.007   5.358  20.213  0.00  0.00    +0.000 A 
ENDBRANCH  25  26
ENDBRANCH  24  25
ENDBRANCH  18  24
ENDBRANCH   1  18
TORSDOF 7
ENDMDL
