MODEL 1
REMARK VINA RESULT:      -9.1      0.000      0.000
REMARK  Name = 
REMARK  4 active torsions:
REMARK  status: ('A' for Active; 'I' for Inactive)
REMARK    1  A    between atoms: C_11  and  S_12
REMARK    2  A    between atoms: S_12  and  C_13
REMARK    3  A    between atoms: C_14  and  C_15
REMARK    4  A    between atoms: C_28  and  C_29
REMARK                            x       y       z     vdW  Elec       q    Type
REMARK                         _______ _______ _______ _____ _____    ______ ____
ROOT
ATOM      1  C   UNL     1       4.977   4.916  17.566  0.00  0.00    +0.000 A 
ATOM      2  C   UNL     1       4.159   3.961  16.915  0.00  0.00    +0.000 A 
ATOM      3  N   UNL     1       4.364   3.569  15.629  0.00  0.00    +0.000 NA
ATOM      4  C   UNL     1       5.418   4.051  14.954  0.00  0.00    +0.000 A 
ATOM      5  C   UNL     1       5.611   3.613  13.648  0.00  0.00    +0.000 A 
ATOM      6  C   UNL     1       6.662   4.076  12.851  0.00  0.00    +0.000 A 
ATOM      7  C   UNL     1       7.562   4.986  13.364  0.00  0.00    +0.000 A 
ATOM      8  C   UNL     1       7.402   5.396  14.683  0.00  0.00    +0.000 A 
ATOM      9  C   UNL     1       6.324   4.973  15.507  0.00  0.00    +0.000 A 
ATOM     10  C   UNL     1       6.100   5.428  16.850  0.00  0.00    +0.000 A 
ENDROOT
BRANCH   2  11
ATOM     11  C   UNL     1       2.955   3.368  17.548  0.00  0.00    +0.000 A 
ATOM     12  C   UNL     1       1.719   4.027  17.563  0.00  0.00    +0.000 A 
ATOM     13  C   UNL     1       0.679   3.573  18.377  0.00  0.00    +0.000 A 
ATOM     14  C   UNL     1       0.849   2.422  19.156  0.00  0.00    +0.000 A 
ATOM     15  C   UNL     1       2.017   1.704  19.079  0.00  0.00    +0.000 A 
ATOM     16  C   UNL     1       3.032   2.154  18.248  0.00  0.00    +0.000 A 
ENDBRANCH   2  11
BRANCH  10  17
ATOM     17  C   UNL     1       7.003   6.449  17.464  0.00  0.00    +0.000 A 
ATOM     18  C   UNL     1       7.858   6.126  18.527  0.00  0.00    +0.000 A 
ATOM     19  C   UNL     1       8.568   7.106  19.210  0.00  0.00    +0.000 A 
ATOM     20  C   UNL     1       8.546   8.408  18.741  0.00  0.00    +0.000 A 
ATOM     21  C   UNL     1       7.835   8.740  17.607  0.00  0.00    +0.000 A 
ATOM     22  C   UNL     1       7.046   7.773  17.003  0.00  0.00    +0.000 A 
ENDBRANCH  10  17
BRANCH   1  23
ATOM     23  S   UNL     1       4.658   5.479  19.270  0.00  0.00    +0.000 S 
BRANCH  23  34
ATOM     24  O   UNL     1       3.621   7.237  16.880  0.00  0.00    +0.000 OA
ATOM     25  C   UNL     1       3.227   7.484  17.978  0.00  0.00    +0.000 A 
ATOM     26  O   UNL     1       2.495   8.650  18.194  0.00  0.00    +0.000 OA
ATOM     27  C   UNL     1       1.616   8.761  19.271  0.00  0.00    +0.000 A 
ATOM     28  C   UNL     1       0.742   9.845  19.288  0.00  0.00    +0.000 A 
ATOM     29  C   UNL     1      -0.201   9.938  20.310  0.00  0.00    +0.000 A 
ATOM     30  C   UNL     1      -0.259   8.952  21.297  0.00  0.00    +0.000 A 
ATOM     31  C   UNL     1       0.644   7.884  21.281  0.00  0.00    +0.000 A 
ATOM     32  C   UNL     1       1.592   7.796  20.265  0.00  0.00    +0.000 A 
ATOM     33  C   UNL     1       2.594   6.750  20.241  0.00  0.00    +0.000 A 
ATOM     34  C   UNL     1       3.388   6.612  19.174  0.00  0.00    +0.000 A 
ENDBRANCH  23  34
ENDBRANCH   1  23
TORSDOF 4
ENDMDL
MODEL 2
REMARK VINA RESULT:      -8.6      5.888      9.976
REMARK  Name = 
REMARK  4 active torsions:
REMARK  status: ('A' for Active; 'I' for Inactive)
REMARK    1  A    between atoms: C_11  and  S_12
REMARK    2  A    between atoms: S_12  and  C_13
REMARK    3  A    between atoms: C_14  and  C_15
REMARK    4  A    between atoms: C_28  and  C_29
REMARK                            x       y       z     vdW  Elec       q    Type
REMARK                         _______ _______ _______ _____ _____    ______ ____
ROOT
ATOM      1  C   UNL     1      -1.325  11.760  20.155  0.00  0.00    +0.000 A 
ATOM      2  C   UNL     1      -2.520  12.518  20.139  0.00  0.00    +0.000 A 
ATOM      3  N   UNL     1      -3.440  12.424  19.142  0.00  0.00    +0.000 NA
ATOM      4  C   UNL     1      -3.252  11.535  18.155  0.00  0.00    +0.000 A 
ATOM      5  C   UNL     1      -4.223  11.448  17.163  0.00  0.00    +0.000 A 
ATOM      6  C   UNL     1      -4.109  10.574  16.077  0.00  0.00    +0.000 A 
ATOM      7  C   UNL     1      -3.011   9.747  15.977  0.00  0.00    +0.000 A 
ATOM      8  C   UNL     1      -2.057   9.795  16.988  0.00  0.00    +0.000 A 
ATOM      9  C   UNL     1      -2.125  10.698  18.084  0.00  0.00    +0.000 A 
ATOM     10  C   UNL     1      -1.125  10.813  19.106  0.00  0.00    +0.000 A 
ENDROOT
BRANCH   2  11
ATOM     11  C   UNL     1      -2.835  13.545  21.162  0.00  0.00    +0.000 A 
ATOM     12  C   UNL     1      -2.669  14.915  20.921  0.00  0.00    +0.000 A 
ATOM     13  C   UNL     1      -2.725  15.836  21.969  0.00  0.00    +0.000 A 
ATOM     14  C   UNL     1      -2.993  15.401  23.272  0.00  0.00    +0.000 A 
ATOM     15  C   UNL     1      -3.259  14.075  23.515  0.00  0.00    +0.000 A 
ATOM     16  C   UNL     1      -3.223  13.175  22.459  0.00  0.00    +0.000 A 
ENDBRANCH   2  11
BRANCH  10  17
ATOM     17  C   UNL     1       0.118   9.985  19.045  0.00  0.00    +0.000 A 
ATOM     18  C   UNL     1       1.006  10.075  17.964  0.00  0.00    +0.000 A 
ATOM     19  C   UNL     1       2.067   9.189  17.820  0.00  0.00    +0.000 A 
ATOM     20  C   UNL     1       2.342   8.292  18.838  0.00  0.00    +0.000 A 
ATOM     21  C   UNL     1       1.581   8.272  19.988  0.00  0.00    +0.000 A 
ATOM     22  C   UNL     1       0.462   9.088  20.067  0.00  0.00    +0.000 A 
ENDBRANCH  10  17
BRANCH   1  23
ATOM     23  S   UNL     1      -0.070  11.938  21.465  0.00  0.00    +0.000 S 
BRANCH  23  34
ATOM     24  O   UNL     1       0.488  14.719  22.820  0.00  0.00    +0.000 OA
ATOM     25  C   UNL     1       0.864  14.549  21.701  0.00  0.00    +0.000 A 
ATOM     26  O   UNL     1       1.345  15.632  20.970  0.00  0.00    +0.000 OA
ATOM     27  C   UNL     1       2.222  15.450  19.901  0.00  0.00    +0.000 A 
ATOM     28  C   UNL     1       2.852  16.575  19.377  0.00  0.00    +0.000 A 
ATOM     29  C   UNL     1       3.793  16.414  18.363  0.00  0.00    +0.000 A 
ATOM     30  C   UNL     1       4.092  15.135  17.886  0.00  0.00    +0.000 A 
ATOM     31  C   UNL     1       3.431  14.017  18.405  0.00  0.00    +0.000 A 
ATOM     32  C   UNL     1       2.484  14.180  19.412  0.00  0.00    +0.000 A 
ATOM     33  C   UNL     1       1.721  13.064  19.934  0.00  0.00    +0.000 A 
ATOM     34  C   UNL     1       0.933  13.237  20.999  0.00  0.00    +0.000 A 
ENDBRANCH  23  34
ENDBRANCH   1  23
TORSDOF 4
ENDMDL
MODEL 3
REMARK VINA RESULT:      -8.5      5.463     10.102
REMARK  Name = 
REMARK  4 active torsions:
REMARK  status: ('A' for Active; 'I' for Inactive)
REMARK    1  A    between atoms: C_11  and  S_12
REMARK    2  A    between atoms: S_12  and  C_13
REMARK    3  A    between atoms: C_14  and  C_15
REMARK    4  A    between atoms: C_28  and  C_29
REMARK                            x       y       z     vdW  Elec       q    Type
REMARK                         _______ _______ _______ _____ _____    ______ ____
ROOT
ATOM      1  C   UNL     1      -0.987  11.482  20.148  0.00  0.00    +0.000 A 
ATOM      2  C   UNL     1      -0.772  10.512  19.139  0.00  0.00    +0.000 A 
ATOM      3  N   UNL     1      -1.712  10.192  18.211  0.00  0.00    +0.000 NA
ATOM      4  C   UNL     1      -2.876  10.858  18.198  0.00  0.00    +0.000 A 
ATOM      5  C   UNL     1      -3.808  10.522  17.221  0.00  0.00    +0.000 A 
ATOM      6  C   UNL     1      -5.062  11.136  17.139  0.00  0.00    +0.000 A 
ATOM      7  C   UNL     1      -5.399  12.126  18.036  0.00  0.00    +0.000 A 
ATOM      8  C   UNL     1      -4.457  12.500  18.988  0.00  0.00    +0.000 A 
ATOM      9  C   UNL     1      -3.190  11.870  19.122  0.00  0.00    +0.000 A 
ATOM     10  C   UNL     1      -2.225  12.192  20.133  0.00  0.00    +0.000 A 
ENDROOT
BRANCH   2  11
ATOM     11  C   UNL     1       0.466   9.697  19.058  0.00  0.00    +0.000 A 
ATOM     12  C   UNL     1       1.234   9.621  17.890  0.00  0.00    +0.000 A 
ATOM     13  C   UNL     1       2.238   8.660  17.757  0.00  0.00    +0.000 A 
ATOM     14  C   UNL     1       2.517   7.786  18.815  0.00  0.00    +0.000 A 
ATOM     15  C   UNL     1       1.845   7.911  20.007  0.00  0.00    +0.000 A 
ATOM     16  C   UNL     1       0.867   8.886  20.131  0.00  0.00    +0.000 A 
ENDBRANCH   2  11
BRANCH  10  17
ATOM     17  C   UNL     1      -2.533  13.221  21.173  0.00  0.00    +0.000 A 
ATOM     18  C   UNL     1      -2.390  14.592  20.912  0.00  0.00    +0.000 A 
ATOM     19  C   UNL     1      -2.508  15.538  21.922  0.00  0.00    +0.000 A 
ATOM     20  C   UNL     1      -2.919  15.136  23.182  0.00  0.00    +0.000 A 
ATOM     21  C   UNL     1      -3.214  13.815  23.442  0.00  0.00    +0.000 A 
ATOM     22  C   UNL     1      -2.986  12.870  22.453  0.00  0.00    +0.000 A 
ENDBRANCH  10  17
BRANCH   1  23
ATOM     23  S   UNL     1       0.258  11.860  21.424  0.00  0.00    +0.000 S 
BRANCH  23  34
ATOM     24  O   UNL     1       0.820  14.642  22.777  0.00  0.00    +0.000 OA
ATOM     25  C   UNL     1       1.057  14.519  21.616  0.00  0.00    +0.000 A 
ATOM     26  O   UNL     1       1.376  15.646  20.860  0.00  0.00    +0.000 OA
ATOM     27  C   UNL     1       2.117  15.542  19.684  0.00  0.00    +0.000 A 
ATOM     28  C   UNL     1       2.606  16.715  19.117  0.00  0.00    +0.000 A 
ATOM     29  C   UNL     1       3.416  16.634  17.986  0.00  0.00    +0.000 A 
ATOM     30  C   UNL     1       3.727  15.386  17.439  0.00  0.00    +0.000 A 
ATOM     31  C   UNL     1       3.206  14.219  18.005  0.00  0.00    +0.000 A 
ATOM     32  C   UNL     1       2.388  14.301  19.129  0.00  0.00    +0.000 A 
ATOM     33  C   UNL     1       1.766  13.129  19.712  0.00  0.00    +0.000 A 
ATOM     34  C   UNL     1       1.114  13.229  20.873  0.00  0.00    +0.000 A 
ENDBRANCH  23  34
ENDBRANCH   1  23
TORSDOF 4
ENDMDL
MODEL 4
REMARK VINA RESULT:      -8.4      6.322     11.319
REMARK  Name = 
REMARK  4 active torsions:
REMARK  status: ('A' for Active; 'I' for Inactive)
REMARK    1  A    between atoms: C_11  and  S_12
REMARK    2  A    between atoms: S_12  and  C_13
REMARK    3  A    between atoms: C_14  and  C_15
REMARK    4  A    between atoms: C_28  and  C_29
REMARK                            x       y       z     vdW  Elec       q    Type
REMARK                         _______ _______ _______ _____ _____    ______ ____
ROOT
ATOM      1  C   UNL     1      -3.447  12.740  19.818  0.00  0.00    +0.000 A 
ATOM      2  C   UNL     1      -4.156  11.850  18.976  0.00  0.00    +0.000 A 
ATOM      3  N   UNL     1      -5.373  11.338  19.302  0.00  0.00    +0.000 NA
ATOM      4  C   UNL     1      -5.969  11.732  20.437  0.00  0.00    +0.000 A 
ATOM      5  C   UNL     1      -7.223  11.206  20.731  0.00  0.00    +0.000 A 
ATOM      6  C   UNL     1      -7.916  11.530  21.902  0.00  0.00    +0.000 A 
ATOM      7  C   UNL     1      -7.362  12.414  22.802  0.00  0.00    +0.000 A 
ATOM      8  C   UNL     1      -6.129  12.979  22.496  0.00  0.00    +0.000 A 
ATOM      9  C   UNL     1      -5.383  12.642  21.334  0.00  0.00    +0.000 A 
ATOM     10  C   UNL     1      -4.081  13.161  21.025  0.00  0.00    +0.000 A 
ENDROOT
BRANCH   2  11
ATOM     11  C   UNL     1      -3.597  11.328  17.704  0.00  0.00    +0.000 A 
ATOM     12  C   UNL     1      -4.122  11.685  16.457  0.00  0.00    +0.000 A 
ATOM     13  C   UNL     1      -3.753  10.993  15.301  0.00  0.00    +0.000 A 
ATOM     14  C   UNL     1      -2.814   9.957  15.375  0.00  0.00    +0.000 A 
ATOM     15  C   UNL     1      -2.211   9.657  16.573  0.00  0.00    +0.000 A 
ATOM     16  C   UNL     1      -2.571  10.370  17.707  0.00  0.00    +0.000 A 
ENDBRANCH   2  11
BRANCH  10  17
ATOM     17  C   UNL     1      -3.391  14.088  21.973  0.00  0.00    +0.000 A 
ATOM     18  C   UNL     1      -2.560  13.606  22.994  0.00  0.00    +0.000 A 
ATOM     19  C   UNL     1      -2.057  14.449  23.978  0.00  0.00    +0.000 A 
ATOM     20  C   UNL     1      -2.258  15.814  23.868  0.00  0.00    +0.000 A 
ATOM     21  C   UNL     1      -2.945  16.344  22.795  0.00  0.00    +0.000 A 
ATOM     22  C   UNL     1      -3.532  15.480  21.882  0.00  0.00    +0.000 A 
ENDBRANCH  10  17
BRANCH   1  23
ATOM     23  S   UNL     1      -1.789  13.373  19.399  0.00  0.00    +0.000 S 
BRANCH  23  34
ATOM     24  O   UNL     1       1.107  12.827  18.306  0.00  0.00    +0.000 OA
ATOM     25  C   UNL     1       0.544  11.948  18.882  0.00  0.00    +0.000 A 
ATOM     26  O   UNL     1       1.091  10.666  18.875  0.00  0.00    +0.000 OA
ATOM     27  C   UNL     1       0.790   9.747  19.879  0.00  0.00    +0.000 A 
ATOM     28  C   UNL     1       1.553   8.585  19.947  0.00  0.00    +0.000 A 
ATOM     29  C   UNL     1       1.328   7.687  20.988  0.00  0.00    +0.000 A 
ATOM     30  C   UNL     1       0.347   7.960  21.945  0.00  0.00    +0.000 A 
ATOM     31  C   UNL     1      -0.429   9.119  21.848  0.00  0.00    +0.000 A 
ATOM     32  C   UNL     1      -0.210  10.012  20.802  0.00  0.00    +0.000 A 
ATOM     33  C   UNL     1      -1.032  11.190  20.615  0.00  0.00    +0.000 A 
ATOM     34  C   UNL     1      -0.697  12.097  19.692  0.00  0.00    +0.000 A 
ENDBRANCH  23  34
ENDBRANCH   1  23
TORSDOF 4
ENDMDL
MODEL 5
REMARK VINA RESULT:      -8.3      5.524     11.280
REMARK  Name = 
REMARK  4 active torsions:
REMARK  status: ('A' for Active; 'I' for Inactive)
REMARK    1  A    between atoms: C_11  and  S_12
REMARK    2  A    between atoms: S_12  and  C_13
REMARK    3  A    between atoms: C_14  and  C_15
REMARK    4  A    between atoms: C_28  and  C_29
REMARK                            x       y       z     vdW  Elec       q    Type
REMARK                         _______ _______ _______ _____ _____    ______ ____
ROOT
ATOM      1  C   UNL     1      -3.231  12.577  19.854  0.00  0.00    +0.000 A 
ATOM      2  C   UNL     1      -4.147  11.793  19.112  0.00  0.00    +0.000 A 
ATOM      3  N   UNL     1      -5.425  11.568  19.520  0.00  0.00    +0.000 NA
ATOM      4  C   UNL     1      -5.871  12.155  20.640  0.00  0.00    +0.000 A 
ATOM      5  C   UNL     1      -7.189  11.921  21.018  0.00  0.00    +0.000 A 
ATOM      6  C   UNL     1      -7.743  12.464  22.182  0.00  0.00    +0.000 A 
ATOM      7  C   UNL     1      -6.977  13.278  22.989  0.00  0.00    +0.000 A 
ATOM      8  C   UNL     1      -5.672  13.553  22.596  0.00  0.00    +0.000 A 
ATOM      9  C   UNL     1      -5.069  12.988  21.439  0.00  0.00    +0.000 A 
ATOM     10  C   UNL     1      -3.706  13.205  21.045  0.00  0.00    +0.000 A 
ENDROOT
BRANCH   2  11
ATOM     11  C   UNL     1      -3.770  11.078  17.868  0.00  0.00    +0.000 A 
ATOM     12  C   UNL     1      -3.182   9.808  17.887  0.00  0.00    +0.000 A 
ATOM     13  C   UNL     1      -2.607   9.269  16.734  0.00  0.00    +0.000 A 
ATOM     14  C   UNL     1      -2.653   9.982  15.529  0.00  0.00    +0.000 A 
ATOM     15  C   UNL     1      -3.315  11.184  15.465  0.00  0.00    +0.000 A 
ATOM     16  C   UNL     1      -3.901  11.694  16.614  0.00  0.00    +0.000 A 
ENDBRANCH   2  11
BRANCH  10  17
ATOM     17  C   UNL     1      -2.796  14.036  21.891  0.00  0.00    +0.000 A 
ATOM     18  C   UNL     1      -2.556  15.387  21.598  0.00  0.00    +0.000 A 
ATOM     19  C   UNL     1      -1.583  16.113  22.274  0.00  0.00    +0.000 A 
ATOM     20  C   UNL     1      -0.939  15.538  23.357  0.00  0.00    +0.000 A 
ATOM     21  C   UNL     1      -1.255  14.261  23.771  0.00  0.00    +0.000 A 
ATOM     22  C   UNL     1      -2.148  13.513  23.019  0.00  0.00    +0.000 A 
ENDBRANCH  10  17
BRANCH   1  23
ATOM     23  S   UNL     1      -1.503  12.824  19.329  0.00  0.00    +0.000 S 
BRANCH  23  34
ATOM     24  O   UNL     1      -1.509  10.844  21.770  0.00  0.00    +0.000 OA
ATOM     25  C   UNL     1      -0.697  10.684  20.913  0.00  0.00    +0.000 A 
ATOM     26  O   UNL     1       0.337   9.771  21.113  0.00  0.00    +0.000 OA
ATOM     27  C   UNL     1       1.000   9.183  20.037  0.00  0.00    +0.000 A 
ATOM     28  C   UNL     1       1.843   8.107  20.302  0.00  0.00    +0.000 A 
ATOM     29  C   UNL     1       2.456   7.449  19.237  0.00  0.00    +0.000 A 
ATOM     30  C   UNL     1       2.219   7.873  17.927  0.00  0.00    +0.000 A 
ATOM     31  C   UNL     1       1.391   8.971  17.679  0.00  0.00    +0.000 A 
ATOM     32  C   UNL     1       0.786   9.634  18.744  0.00  0.00    +0.000 A 
ATOM     33  C   UNL     1      -0.024  10.819  18.548  0.00  0.00    +0.000 A 
ATOM     34  C   UNL     1      -0.707  11.337  19.574  0.00  0.00    +0.000 A 
ENDBRANCH  23  34
ENDBRANCH   1  23
TORSDOF 4
ENDMDL
MODEL 6
REMARK VINA RESULT:      -8.2      8.518     10.205
REMARK  Name = 
REMARK  4 active torsions:
REMARK  status: ('A' for Active; 'I' for Inactive)
REMARK    1  A    between atoms: C_11  and  S_12
REMARK    2  A    between atoms: S_12  and  C_13
REMARK    3  A    between atoms: C_14  and  C_15
REMARK    4  A    between atoms: C_28  and  C_29
REMARK                            x       y       z     vdW  Elec       q    Type
REMARK                         _______ _______ _______ _____ _____    ______ ____
ROOT
ATOM      1  C   UNL     1       8.600  14.298  21.825  0.00  0.00    +0.000 A 
ATOM      2  C   UNL     1       8.744  12.966  22.283  0.00  0.00    +0.000 A 
ATOM      3  N   UNL     1       9.531  12.051  21.656  0.00  0.00    +0.000 NA
ATOM      4  C   UNL     1      10.255  12.426  20.591  0.00  0.00    +0.000 A 
ATOM      5  C   UNL     1      11.066  11.472  19.986  0.00  0.00    +0.000 A 
ATOM      6  C   UNL     1      11.839  11.754  18.855  0.00  0.00    +0.000 A 
ATOM      7  C   UNL     1      11.825  13.022  18.315  0.00  0.00    +0.000 A 
ATOM      8  C   UNL     1      11.052  13.994  18.940  0.00  0.00    +0.000 A 
ATOM      9  C   UNL     1      10.228  13.731  20.068  0.00  0.00    +0.000 A 
ATOM     10  C   UNL     1       9.372  14.698  20.693  0.00  0.00    +0.000 A 
ENDROOT
BRANCH   2  11
ATOM     11  C   UNL     1       7.984  12.426  23.437  0.00  0.00    +0.000 A 
ATOM     12  C   UNL     1       6.757  11.771  23.282  0.00  0.00    +0.000 A 
ATOM     13  C   UNL     1       5.945  11.503  24.387  0.00  0.00    +0.000 A 
ATOM     14  C   UNL     1       6.376  11.849  25.673  0.00  0.00    +0.000 A 
ATOM     15  C   UNL     1       7.621  12.399  25.858  0.00  0.00    +0.000 A 
ATOM     16  C   UNL     1       8.424  12.638  24.753  0.00  0.00    +0.000 A 
ENDBRANCH   2  11
BRANCH  10  17
ATOM     17  C   UNL     1       9.265  16.083  20.141  0.00  0.00    +0.000 A 
ATOM     18  C   UNL     1       8.379  16.389  19.097  0.00  0.00    +0.000 A 
ATOM     19  C   UNL     1       8.400  17.627  18.468  0.00  0.00    +0.000 A 
ATOM     20  C   UNL     1       9.207  18.631  18.975  0.00  0.00    +0.000 A 
ATOM     21  C   UNL     1       9.983  18.417  20.095  0.00  0.00    +0.000 A 
ATOM     22  C   UNL     1      10.033  17.143  20.643  0.00  0.00    +0.000 A 
ENDBRANCH  10  17
BRANCH   1  23
ATOM     23  S   UNL     1       7.497  15.500  22.638  0.00  0.00    +0.000 S 
BRANCH  23  34
ATOM     24  O   UNL     1       4.800  15.138  24.213  0.00  0.00    +0.000 OA
ATOM     25  C   UNL     1       4.836  14.808  23.068  0.00  0.00    +0.000 A 
ATOM     26  O   UNL     1       3.767  14.096  22.528  0.00  0.00    +0.000 OA
ATOM     27  C   UNL     1       3.509  14.109  21.158  0.00  0.00    +0.000 A 
ATOM     28  C   UNL     1       2.295  13.587  20.719  0.00  0.00    +0.000 A 
ATOM     29  C   UNL     1       1.977  13.659  19.365  0.00  0.00    +0.000 A 
ATOM     30  C   UNL     1       2.871  14.251  18.469  0.00  0.00    +0.000 A 
ATOM     31  C   UNL     1       4.098  14.747  18.921  0.00  0.00    +0.000 A 
ATOM     32  C   UNL     1       4.420  14.666  20.273  0.00  0.00    +0.000 A 
ATOM     33  C   UNL     1       5.704  15.101  20.783  0.00  0.00    +0.000 A 
ATOM     34  C   UNL     1       5.918  15.146  22.101  0.00  0.00    +0.000 A 
ENDBRANCH  23  34
ENDBRANCH   1  23
TORSDOF 4
ENDMDL
MODEL 7
REMARK VINA RESULT:      -8.1      5.460     11.445
REMARK  Name = 
REMARK  4 active torsions:
REMARK  status: ('A' for Active; 'I' for Inactive)
REMARK    1  A    between atoms: C_11  and  S_12
REMARK    2  A    between atoms: S_12  and  C_13
REMARK    3  A    between atoms: C_14  and  C_15
REMARK    4  A    between atoms: C_28  and  C_29
REMARK                            x       y       z     vdW  Elec       q    Type
REMARK                         _______ _______ _______ _____ _____    ______ ____
ROOT
ATOM      1  C   UNL     1      -2.794  12.635  19.890  0.00  0.00    +0.000 A 
ATOM      2  C   UNL     1      -3.136  13.291  21.097  0.00  0.00    +0.000 A 
ATOM      3  N   UNL     1      -4.395  13.283  21.610  0.00  0.00    +0.000 NA
ATOM      4  C   UNL     1      -5.353  12.577  20.992  0.00  0.00    +0.000 A 
ATOM      5  C   UNL     1      -6.625  12.572  21.555  0.00  0.00    +0.000 A 
ATOM      6  C   UNL     1      -7.699  11.891  20.973  0.00  0.00    +0.000 A 
ATOM      7  C   UNL     1      -7.507  11.177  19.810  0.00  0.00    +0.000 A 
ATOM      8  C   UNL     1      -6.229  11.140  19.264  0.00  0.00    +0.000 A 
ATOM      9  C   UNL     1      -5.126  11.851  19.809  0.00  0.00    +0.000 A 
ATOM     10  C   UNL     1      -3.813  11.882  19.232  0.00  0.00    +0.000 A 
ENDROOT
BRANCH   2  11
ATOM     11  C   UNL     1      -2.171  14.118  21.863  0.00  0.00    +0.000 A 
ATOM     12  C   UNL     1      -1.795  13.802  23.175  0.00  0.00    +0.000 A 
ATOM     13  C   UNL     1      -1.094  14.721  23.958  0.00  0.00    +0.000 A 
ATOM     14  C   UNL     1      -0.720  15.959  23.420  0.00  0.00    +0.000 A 
ATOM     15  C   UNL     1      -0.990  16.248  22.104  0.00  0.00    +0.000 A 
ATOM     16  C   UNL     1      -1.666  15.315  21.333  0.00  0.00    +0.000 A 
ENDBRANCH   2  11
BRANCH  10  17
ATOM     17  C   UNL     1      -3.534  11.172  17.946  0.00  0.00    +0.000 A 
ATOM     18  C   UNL     1      -3.016   9.869  17.926  0.00  0.00    +0.000 A 
ATOM     19  C   UNL     1      -2.596   9.275  16.743  0.00  0.00    +0.000 A 
ATOM     20  C   UNL     1      -2.828   9.921  15.540  0.00  0.00    +0.000 A 
ATOM     21  C   UNL     1      -3.472  11.139  15.505  0.00  0.00    +0.000 A 
ATOM     22  C   UNL     1      -3.786  11.767  16.702  0.00  0.00    +0.000 A 
ENDBRANCH  10  17
BRANCH   1  23
ATOM     23  S   UNL     1      -1.117  12.702  19.179  0.00  0.00    +0.000 S 
BRANCH  23  34
ATOM     24  O   UNL     1      -1.293  10.783  21.664  0.00  0.00    +0.000 OA
ATOM     25  C   UNL     1      -0.465  10.562  20.835  0.00  0.00    +0.000 A 
ATOM     26  O   UNL     1       0.515   9.604  21.087  0.00  0.00    +0.000 OA
ATOM     27  C   UNL     1       1.178   8.958  20.045  0.00  0.00    +0.000 A 
ATOM     28  C   UNL     1       1.957   7.848  20.359  0.00  0.00    +0.000 A 
ATOM     29  C   UNL     1       2.567   7.135  19.329  0.00  0.00    +0.000 A 
ATOM     30  C   UNL     1       2.390   7.538  18.003  0.00  0.00    +0.000 A 
ATOM     31  C   UNL     1       1.625   8.670  17.706  0.00  0.00    +0.000 A 
ATOM     32  C   UNL     1       1.024   9.388  18.737  0.00  0.00    +0.000 A 
ATOM     33  C   UNL     1       0.281  10.607  18.490  0.00  0.00    +0.000 A 
ATOM     34  C   UNL     1      -0.404  11.182  19.482  0.00  0.00    +0.000 A 
ENDBRANCH  23  34
ENDBRANCH   1  23
TORSDOF 4
ENDMDL
MODEL 8
REMARK VINA RESULT:      -8.0      5.536     11.254
REMARK  Name = 
REMARK  4 active torsions:
REMARK  status: ('A' for Active; 'I' for Inactive)
REMARK    1  A    between atoms: C_11  and  S_12
REMARK    2  A    between atoms: S_12  and  C_13
REMARK    3  A    between atoms: C_14  and  C_15
REMARK    4  A    between atoms: C_28  and  C_29
REMARK                            x       y       z     vdW  Elec       q    Type
REMARK                         _______ _______ _______ _____ _____    ______ ____
ROOT
ATOM      1  C   UNL     1      -2.946  12.755  20.065  0.00  0.00    +0.000 A 
ATOM      2  C   UNL     1      -3.800  11.977  19.247  0.00  0.00    +0.000 A 
ATOM      3  N   UNL     1      -5.117  11.786  19.528  0.00  0.00    +0.000 NA
ATOM      4  C   UNL     1      -5.660  12.403  20.587  0.00  0.00    +0.000 A 
ATOM      5  C   UNL     1      -7.014  12.203  20.834  0.00  0.00    +0.000 A 
ATOM      6  C   UNL     1      -7.669  12.778  21.928  0.00  0.00    +0.000 A 
ATOM      7  C   UNL     1      -6.970  13.590  22.795  0.00  0.00    +0.000 A 
ATOM      8  C   UNL     1      -5.626  13.831  22.531  0.00  0.00    +0.000 A 
ATOM      9  C   UNL     1      -4.923  13.233  21.450  0.00  0.00    +0.000 A 
ATOM     10  C   UNL     1      -3.523  13.413  21.191  0.00  0.00    +0.000 A 
ENDROOT
BRANCH   2  11
ATOM     11  C   UNL     1      -3.316  11.232  18.058  0.00  0.00    +0.000 A 
ATOM     12  C   UNL     1      -2.968  11.876  16.865  0.00  0.00    +0.000 A 
ATOM     13  C   UNL     1      -2.764  11.145  15.692  0.00  0.00    +0.000 A 
ATOM     14  C   UNL     1      -2.863   9.748  15.711  0.00  0.00    +0.000 A 
ATOM     15  C   UNL     1      -3.104   9.090  16.893  0.00  0.00    +0.000 A 
ATOM     16  C   UNL     1      -3.281   9.829  18.053  0.00  0.00    +0.000 A 
ENDBRANCH   2  11
BRANCH  10  17
ATOM     17  C   UNL     1      -2.684  14.241  22.111  0.00  0.00    +0.000 A 
ATOM     18  C   UNL     1      -2.076  13.685  23.246  0.00  0.00    +0.000 A 
ATOM     19  C   UNL     1      -1.441  14.482  24.192  0.00  0.00    +0.000 A 
ATOM     20  C   UNL     1      -1.277  15.833  23.938  0.00  0.00    +0.000 A 
ATOM     21  C   UNL     1      -1.729  16.392  22.762  0.00  0.00    +0.000 A 
ATOM     22  C   UNL     1      -2.455  15.605  21.881  0.00  0.00    +0.000 A 
ENDBRANCH  10  17
BRANCH   1  23
ATOM     23  S   UNL     1      -1.169  12.956  19.712  0.00  0.00    +0.000 S 
BRANCH  23  34
ATOM     24  O   UNL     1      -1.272  10.830  22.026  0.00  0.00    +0.000 OA
ATOM     25  C   UNL     1      -0.485  10.671  21.145  0.00  0.00    +0.000 A 
ATOM     26  O   UNL     1       0.488   9.681  21.269  0.00  0.00    +0.000 OA
ATOM     27  C   UNL     1       1.093   9.119  20.146  0.00  0.00    +0.000 A 
ATOM     28  C   UNL     1       1.866   7.975  20.327  0.00  0.00    +0.000 A 
ATOM     29  C   UNL     1       2.417   7.346  19.213  0.00  0.00    +0.000 A 
ATOM     30  C   UNL     1       2.190   7.866  17.936  0.00  0.00    +0.000 A 
ATOM     31  C   UNL     1       1.434   9.031  17.773  0.00  0.00    +0.000 A 
ATOM     32  C   UNL     1       0.891   9.664  18.888  0.00  0.00    +0.000 A 
ATOM     33  C   UNL     1       0.160  10.910  18.781  0.00  0.00    +0.000 A 
ATOM     34  C   UNL     1      -0.471  11.406  19.850  0.00  0.00    +0.000 A 
ENDBRANCH  23  34
ENDBRANCH   1  23
TORSDOF 4
ENDMDL
MODEL 9
REMARK VINA RESULT:      -7.9      6.181     12.394
REMARK  Name = 
REMARK  4 active torsions:
REMARK  status: ('A' for Active; 'I' for Inactive)
REMARK    1  A    between atoms: C_11  and  S_12
REMARK    2  A    between atoms: S_12  and  C_13
REMARK    3  A    between atoms: C_14  and  C_15
REMARK    4  A    between atoms: C_28  and  C_29
REMARK                            x       y       z     vdW  Elec       q    Type
REMARK                         _______ _______ _______ _____ _____    ______ ____
ROOT
ATOM      1  C   UNL     1      -1.540  14.168  22.235  0.00  0.00    +0.000 A 
ATOM      2  C   UNL     1      -0.241  14.687  22.014  0.00  0.00    +0.000 A 
ATOM      3  N   UNL     1       0.370  15.539  22.881  0.00  0.00    +0.000 NA
ATOM      4  C   UNL     1      -0.245  15.863  24.028  0.00  0.00    +0.000 A 
ATOM      5  C   UNL     1       0.416  16.719  24.902  0.00  0.00    +0.000 A 
ATOM      6  C   UNL     1      -0.150  17.140  26.110  0.00  0.00    +0.000 A 
ATOM      7  C   UNL     1      -1.399  16.687  26.475  0.00  0.00    +0.000 A 
ATOM      8  C   UNL     1      -2.049  15.796  25.628  0.00  0.00    +0.000 A 
ATOM      9  C   UNL     1      -1.518  15.379  24.377  0.00  0.00    +0.000 A 
ATOM     10  C   UNL     1      -2.194  14.510  23.456  0.00  0.00    +0.000 A 
ENDROOT
BRANCH   2  11
ATOM     11  C   UNL     1       0.534  14.417  20.778  0.00  0.00    +0.000 A 
ATOM     12  C   UNL     1       0.114  14.869  19.521  0.00  0.00    +0.000 A 
ATOM     13  C   UNL     1       0.714  14.391  18.354  0.00  0.00    +0.000 A 
ATOM     14  C   UNL     1       1.776  13.482  18.433  0.00  0.00    +0.000 A 
ATOM     15  C   UNL     1       2.270  13.104  19.658  0.00  0.00    +0.000 A 
ATOM     16  C   UNL     1       1.679  13.606  20.808  0.00  0.00    +0.000 A 
ENDBRANCH   2  11
BRANCH  10  17
ATOM     17  C   UNL     1      -3.572  14.013  23.756  0.00  0.00    +0.000 A 
ATOM     18  C   UNL     1      -3.783  12.845  24.502  0.00  0.00    +0.000 A 
ATOM     19  C   UNL     1      -5.048  12.289  24.635  0.00  0.00    +0.000 A 
ATOM     20  C   UNL     1      -6.146  12.977  24.147  0.00  0.00    +0.000 A 
ATOM     21  C   UNL     1      -5.996  14.205  23.537  0.00  0.00    +0.000 A 
ATOM     22  C   UNL     1      -4.717  14.693  23.316  0.00  0.00    +0.000 A 
ENDBRANCH  10  17
BRANCH   1  23
ATOM     23  S   UNL     1      -2.373  13.074  21.038  0.00  0.00    +0.000 S 
BRANCH  23  34
ATOM     24  O   UNL     1      -1.363  10.944  23.118  0.00  0.00    +0.000 OA
ATOM     25  C   UNL     1      -0.855  10.968  22.040  0.00  0.00    +0.000 A 
ATOM     26  O   UNL     1       0.289  10.207  21.807  0.00  0.00    +0.000 OA
ATOM     27  C   UNL     1       0.636   9.802  20.519  0.00  0.00    +0.000 A 
ATOM     28  C   UNL     1       1.641   8.847  20.386  0.00  0.00    +0.000 A 
ATOM     29  C   UNL     1       1.953   8.366  19.116  0.00  0.00    +0.000 A 
ATOM     30  C   UNL     1       1.261   8.842  18.000  0.00  0.00    +0.000 A 
ATOM     31  C   UNL     1       0.273   9.821  18.147  0.00  0.00    +0.000 A 
ATOM     32  C   UNL     1      -0.033  10.309  19.415  0.00  0.00    +0.000 A 
ATOM     33  C   UNL     1      -0.996  11.372  19.616  0.00  0.00    +0.000 A 
ATOM     34  C   UNL     1      -1.370  11.707  20.854  0.00  0.00    +0.000 A 
ENDBRANCH  23  34
ENDBRANCH   1  23
TORSDOF 4
ENDMDL
