MODEL 1
REMARK VINA RESULT:      -6.0      0.000      0.000
REMARK  Name = 
REMARK  11 active torsions:
REMARK  status: ('A' for Active; 'I' for Inactive)
REMARK    1  A    between atoms: C_1  and  O_2
REMARK    2  A    between atoms: O_2  and  C_3
REMARK    3  A    between atoms: C_3  and  C_5
REMARK    4  A    between atoms: C_6  and  C_7
REMARK    5  A    between atoms: C_11  and  O_12
REMARK    6  A    between atoms: O_12  and  C_13
REMARK    7  A    between atoms: C_14  and  O_15
REMARK    8  A    between atoms: O_15  and  C_16
REMARK    9  A    between atoms: N_25  and  C_26
REMARK   10  A    between atoms: C_26  and  C_27
REMARK   11  A    between atoms: C_27  and  O_28
REMARK                            x       y       z     vdW  Elec       q    Type
REMARK                         _______ _______ _______ _____ _____    ______ ____
ROOT
ATOM      1  C   UNL     1       4.938   6.705  17.562  0.00  0.00    +0.000 C 
ATOM      2  C   UNL     1       4.805   5.682  18.452  0.00  0.00    +0.000 C 
ATOM      3  C   UNL     1       6.008   4.812  18.823  0.00  0.00    +0.000 C 
ATOM      4  C   UNL     1       7.316   5.308  18.165  0.00  0.00    +0.000 C 
ATOM      5  C   UNL     1       7.798   6.636  18.774  0.00  0.00    +0.000 C 
ATOM      6  C   UNL     1       7.200   7.731  17.872  0.00  0.00    +0.000 C 
ATOM      7  C   UNL     1       6.293   6.971  16.901  0.00  0.00    +0.000 C 
ATOM      8  N   UNL     1       6.990   5.689  16.802  0.00  0.00    +0.000 N 
ATOM      9  C   UNL     1       7.188   4.842  15.750  0.00  0.00    +0.000 C 
ATOM     10  O   UNL     1       7.725   3.746  15.883  0.00  0.00    +0.000 OA
ATOM     11  N   UNL     1       6.800   5.301  14.522  0.00  0.00    +0.000 N 
ATOM     12  H   UNL     1       6.167   6.080  14.454  0.00  0.00    +0.000 HD
ENDROOT
BRANCH   2  13
ATOM     13  C   UNL     1       3.518   5.178  18.988  0.00  0.00    +0.000 A 
ATOM     14  C   UNL     1       3.150   5.710  20.236  0.00  0.00    +0.000 A 
ATOM     15  C   UNL     1       1.962   5.335  20.846  0.00  0.00    +0.000 A 
ATOM     16  C   UNL     1       1.129   4.411  20.225  0.00  0.00    +0.000 A 
ATOM     17  C   UNL     1       1.456   3.877  18.967  0.00  0.00    +0.000 A 
ATOM     18  C   UNL     1       2.655   4.275  18.323  0.00  0.00    +0.000 A 
BRANCH  17  19
ATOM     19  O   UNL     1       0.664   2.908  18.393  0.00  0.00    +0.000 OA
ATOM     20  C   UNL     1       0.827   1.585  18.908  0.00  0.00    +0.000 C 
ENDBRANCH  17  19
BRANCH  18  21
ATOM     21  O   UNL     1       3.078   3.875  17.076  0.00  0.00    +0.000 OA
ATOM     22  C   UNL     1       3.842   2.679  16.980  0.00  0.00    +0.000 C 
ENDBRANCH  18  21
ENDBRANCH   2  13
BRANCH   1  23
ATOM     23  C   UNL     1       3.811   7.615  17.200  0.00  0.00    +0.000 C 
ATOM     24  O   UNL     1       3.416   7.848  16.070  0.00  0.00    +0.000 OA
BRANCH  23  26
ATOM     25  C   UNL     1       2.028   8.837  18.109  0.00  0.00    +0.000 C 
ATOM     26  O   UNL     1       3.252   8.130  18.329  0.00  0.00    +0.000 OA
ENDBRANCH  23  26
ENDBRANCH   1  23
BRANCH  11  27
ATOM     27  C   UNL     1       7.077   4.544  13.309  0.00  0.00    +0.000 C 
BRANCH  27  28
ATOM     28  C   UNL     1       5.926   3.622  12.912  0.00  0.00    +0.000 C 
BRANCH  28  29
ATOM     29  O   UNL     1       6.419   2.514  12.158  0.00  0.00    +0.000 OA
ATOM     30  H   UNL     1       5.733   2.311  11.499  0.00  0.00    +0.000 HD
ENDBRANCH  28  29
ENDBRANCH  27  28
ENDBRANCH  11  27
TORSDOF 8
ENDMDL
MODEL 2
REMARK VINA RESULT:      -5.8      7.938     10.667
REMARK  Name = 
REMARK  11 active torsions:
REMARK  status: ('A' for Active; 'I' for Inactive)
REMARK    1  A    between atoms: C_1  and  O_2
REMARK    2  A    between atoms: O_2  and  C_3
REMARK    3  A    between atoms: C_3  and  C_5
REMARK    4  A    between atoms: C_6  and  C_7
REMARK    5  A    between atoms: C_11  and  O_12
REMARK    6  A    between atoms: O_12  and  C_13
REMARK    7  A    between atoms: C_14  and  O_15
REMARK    8  A    between atoms: O_15  and  C_16
REMARK    9  A    between atoms: N_25  and  C_26
REMARK   10  A    between atoms: C_26  and  C_27
REMARK   11  A    between atoms: C_27  and  O_28
REMARK                            x       y       z     vdW  Elec       q    Type
REMARK                         _______ _______ _______ _____ _____    ______ ____
ROOT
ATOM      1  C   UNL     1      -0.358  13.068  19.566  0.00  0.00    +0.000 C 
ATOM      2  C   UNL     1      -0.953  12.603  20.699  0.00  0.00    +0.000 C 
ATOM      3  C   UNL     1      -1.216  11.106  20.883  0.00  0.00    +0.000 C 
ATOM      4  C   UNL     1      -0.644  10.264  19.719  0.00  0.00    +0.000 C 
ATOM      5  C   UNL     1       0.893  10.230  19.736  0.00  0.00    +0.000 C 
ATOM      6  C   UNL     1       1.331  11.381  18.812  0.00  0.00    +0.000 C 
ATOM      7  C   UNL     1       0.025  12.094  18.449  0.00  0.00    +0.000 C 
ATOM      8  N   UNL     1      -0.927  10.985  18.490  0.00  0.00    +0.000 N 
ATOM      9  C   UNL     1      -2.011  10.691  17.715  0.00  0.00    +0.000 C 
ATOM     10  O   UNL     1      -2.760   9.751  17.966  0.00  0.00    +0.000 OA
ATOM     11  N   UNL     1      -2.193  11.470  16.607  0.00  0.00    +0.000 N 
ATOM     12  H   UNL     1      -1.726  12.358  16.535  0.00  0.00    +0.000 HD
ENDROOT
BRANCH   2  13
ATOM     13  C   UNL     1      -1.571  13.448  21.748  0.00  0.00    +0.000 A 
ATOM     14  C   UNL     1      -0.751  13.702  22.861  0.00  0.00    +0.000 A 
ATOM     15  C   UNL     1      -1.201  14.491  23.910  0.00  0.00    +0.000 A 
ATOM     16  C   UNL     1      -2.483  15.027  23.870  0.00  0.00    +0.000 A 
ATOM     17  C   UNL     1      -3.320  14.812  22.762  0.00  0.00    +0.000 A 
ATOM     18  C   UNL     1      -2.860  14.030  21.673  0.00  0.00    +0.000 A 
BRANCH  17  19
ATOM     19  O   UNL     1      -4.614  15.285  22.762  0.00  0.00    +0.000 OA
ATOM     20  C   UNL     1      -5.507  14.654  23.681  0.00  0.00    +0.000 C 
ENDBRANCH  17  19
BRANCH  18  21
ATOM     21  O   UNL     1      -3.547  13.777  20.507  0.00  0.00    +0.000 OA
ATOM     22  C   UNL     1      -4.545  12.764  20.525  0.00  0.00    +0.000 C 
ENDBRANCH  18  21
ENDBRANCH   2  13
BRANCH   1  23
ATOM     23  C   UNL     1      -0.034  14.511  19.355  0.00  0.00    +0.000 C 
ATOM     24  O   UNL     1      -0.787  15.352  18.895  0.00  0.00    +0.000 OA
BRANCH  23  26
ATOM     25  C   UNL     1       2.114  15.250  18.772  0.00  0.00    +0.000 C 
ATOM     26  O   UNL     1       1.230  14.768  19.789  0.00  0.00    +0.000 OA
ENDBRANCH  23  26
ENDBRANCH   1  23
BRANCH  11  27
ATOM     27  C   UNL     1      -3.236  11.173  15.635  0.00  0.00    +0.000 C 
BRANCH  27  28
ATOM     28  C   UNL     1      -2.834  10.071  14.656  0.00  0.00    +0.000 C 
BRANCH  28  29
ATOM     29  O   UNL     1      -3.451  10.290  13.387  0.00  0.00    +0.000 OA
ATOM     30  H   UNL     1      -2.736  10.554  12.783  0.00  0.00    +0.000 HD
ENDBRANCH  28  29
ENDBRANCH  27  28
ENDBRANCH  11  27
TORSDOF 8
ENDMDL
MODEL 3
REMARK VINA RESULT:      -5.7      6.259      9.951
REMARK  Name = 
REMARK  11 active torsions:
REMARK  status: ('A' for Active; 'I' for Inactive)
REMARK    1  A    between atoms: C_1  and  O_2
REMARK    2  A    between atoms: O_2  and  C_3
REMARK    3  A    between atoms: C_3  and  C_5
REMARK    4  A    between atoms: C_6  and  C_7
REMARK    5  A    between atoms: C_11  and  O_12
REMARK    6  A    between atoms: O_12  and  C_13
REMARK    7  A    between atoms: C_14  and  O_15
REMARK    8  A    between atoms: O_15  and  C_16
REMARK    9  A    between atoms: N_25  and  C_26
REMARK   10  A    between atoms: C_26  and  C_27
REMARK   11  A    between atoms: C_27  and  O_28
REMARK                            x       y       z     vdW  Elec       q    Type
REMARK                         _______ _______ _______ _____ _____    ______ ____
ROOT
ATOM      1  C   UNL     1      -1.275  11.631  19.464  0.00  0.00    +0.000 C 
ATOM      2  C   UNL     1      -0.126  11.191  20.047  0.00  0.00    +0.000 C 
ATOM      3  C   UNL     1       0.488  11.948  21.227  0.00  0.00    +0.000 C 
ATOM      4  C   UNL     1      -0.393  13.132  21.684  0.00  0.00    +0.000 C 
ATOM      5  C   UNL     1      -1.687  12.657  22.367  0.00  0.00    +0.000 C 
ATOM      6  C   UNL     1      -2.738  12.610  21.243  0.00  0.00    +0.000 C 
ATOM      7  C   UNL     1      -1.946  12.911  19.968  0.00  0.00    +0.000 C 
ATOM      8  N   UNL     1      -0.892  13.782  20.485  0.00  0.00    +0.000 N 
ATOM      9  C   UNL     1      -0.286  14.885  19.957  0.00  0.00    +0.000 C 
ATOM     10  O   UNL     1       0.663  15.437  20.507  0.00  0.00    +0.000 OA
ATOM     11  N   UNL     1      -0.824  15.377  18.801  0.00  0.00    +0.000 N 
ATOM     12  H   UNL     1      -1.436  14.802  18.247  0.00  0.00    +0.000 HD
ENDROOT
BRANCH   2  13
ATOM     13  C   UNL     1       0.739  10.108  19.521  0.00  0.00    +0.000 A 
ATOM     14  C   UNL     1       1.334  10.379  18.277  0.00  0.00    +0.000 A 
ATOM     15  C   UNL     1       2.179   9.457  17.677  0.00  0.00    +0.000 A 
ATOM     16  C   UNL     1       2.431   8.241  18.303  0.00  0.00    +0.000 A 
ATOM     17  C   UNL     1       1.870   7.948  19.558  0.00  0.00    +0.000 A 
ATOM     18  C   UNL     1       1.028   8.896  20.193  0.00  0.00    +0.000 A 
BRANCH  17  19
ATOM     19  O   UNL     1       2.065   6.714  20.139  0.00  0.00    +0.000 OA
ATOM     20  C   UNL     1       3.035   5.876  19.509  0.00  0.00    +0.000 C 
ENDBRANCH  17  19
BRANCH  18  21
ATOM     21  O   UNL     1       0.452   8.766  21.436  0.00  0.00    +0.000 OA
ATOM     22  C   UNL     1       1.262   9.012  22.579  0.00  0.00    +0.000 C 
ENDBRANCH  18  21
ENDBRANCH   2  13
BRANCH   1  23
ATOM     23  C   UNL     1      -1.943  10.905  18.342  0.00  0.00    +0.000 C 
ATOM     24  O   UNL     1      -2.396   9.774  18.392  0.00  0.00    +0.000 OA
BRANCH  23  26
ATOM     25  C   UNL     1      -2.736  11.150  16.149  0.00  0.00    +0.000 C 
ATOM     26  O   UNL     1      -2.009  11.710  17.246  0.00  0.00    +0.000 OA
ENDBRANCH  23  26
ENDBRANCH   1  23
BRANCH  11  27
ATOM     27  C   UNL     1      -0.348  16.621  18.213  0.00  0.00    +0.000 C 
BRANCH  27  28
ATOM     28  C   UNL     1      -1.281  17.800  18.489  0.00  0.00    +0.000 C 
BRANCH  28  29
ATOM     29  O   UNL     1      -2.517  17.334  19.031  0.00  0.00    +0.000 OA
ATOM     30  H   UNL     1      -2.977  16.886  18.301  0.00  0.00    +0.000 HD
ENDBRANCH  28  29
ENDBRANCH  27  28
ENDBRANCH  11  27
TORSDOF 8
ENDMDL
MODEL 4
REMARK VINA RESULT:      -5.5      9.170     12.844
REMARK  Name = 
REMARK  11 active torsions:
REMARK  status: ('A' for Active; 'I' for Inactive)
REMARK    1  A    between atoms: C_1  and  O_2
REMARK    2  A    between atoms: O_2  and  C_3
REMARK    3  A    between atoms: C_3  and  C_5
REMARK    4  A    between atoms: C_6  and  C_7
REMARK    5  A    between atoms: C_11  and  O_12
REMARK    6  A    between atoms: O_12  and  C_13
REMARK    7  A    between atoms: C_14  and  O_15
REMARK    8  A    between atoms: O_15  and  C_16
REMARK    9  A    between atoms: N_25  and  C_26
REMARK   10  A    between atoms: C_26  and  C_27
REMARK   11  A    between atoms: C_27  and  O_28
REMARK                            x       y       z     vdW  Elec       q    Type
REMARK                         _______ _______ _______ _____ _____    ______ ____
ROOT
ATOM      1  C   UNL     1      -2.918  13.500  23.437  0.00  0.00    +0.000 C 
ATOM      2  C   UNL     1      -1.648  13.244  23.018  0.00  0.00    +0.000 C 
ATOM      3  C   UNL     1      -0.567  14.323  23.104  0.00  0.00    +0.000 C 
ATOM      4  C   UNL     1      -1.078  15.611  23.788  0.00  0.00    +0.000 C 
ATOM      5  C   UNL     1      -1.315  15.407  25.294  0.00  0.00    +0.000 C 
ATOM      6  C   UNL     1      -2.802  15.027  25.418  0.00  0.00    +0.000 C 
ATOM      7  C   UNL     1      -3.281  14.889  23.970  0.00  0.00    +0.000 C 
ATOM      8  N   UNL     1      -2.420  15.856  23.290  0.00  0.00    +0.000 N 
ATOM      9  C   UNL     1      -2.662  16.719  22.261  0.00  0.00    +0.000 C 
ATOM     10  O   UNL     1      -1.773  17.397  21.753  0.00  0.00    +0.000 OA
ATOM     11  N   UNL     1      -3.962  16.830  21.855  0.00  0.00    +0.000 N 
ATOM     12  H   UNL     1      -4.630  16.121  22.110  0.00  0.00    +0.000 HD
ENDROOT
BRANCH   2  13
ATOM     13  C   UNL     1      -1.220  12.030  22.281  0.00  0.00    +0.000 A 
ATOM     14  C   UNL     1      -0.835  10.951  23.095  0.00  0.00    +0.000 A 
ATOM     15  C   UNL     1      -0.426   9.750  22.535  0.00  0.00    +0.000 A 
ATOM     16  C   UNL     1      -0.381   9.612  21.152  0.00  0.00    +0.000 A 
ATOM     17  C   UNL     1      -0.781  10.664  20.310  0.00  0.00    +0.000 A 
ATOM     18  C   UNL     1      -1.228  11.886  20.873  0.00  0.00    +0.000 A 
BRANCH  17  19
ATOM     19  O   UNL     1      -0.665  10.547  18.943  0.00  0.00    +0.000 OA
ATOM     20  C   UNL     1       0.582  10.039  18.465  0.00  0.00    +0.000 C 
ENDBRANCH  17  19
BRANCH  18  21
ATOM     21  O   UNL     1      -1.693  12.979  20.177  0.00  0.00    +0.000 OA
ATOM     22  C   UNL     1      -0.745  13.794  19.499  0.00  0.00    +0.000 C 
ENDBRANCH  18  21
ENDBRANCH   2  13
BRANCH   1  23
ATOM     23  C   UNL     1      -4.000  12.470  23.422  0.00  0.00    +0.000 C 
ATOM     24  O   UNL     1      -4.361  11.800  24.374  0.00  0.00    +0.000 OA
BRANCH  23  26
ATOM     25  C   UNL     1      -5.899  12.908  22.118  0.00  0.00    +0.000 C 
ATOM     26  O   UNL     1      -4.560  12.408  22.183  0.00  0.00    +0.000 OA
ENDBRANCH  23  26
ENDBRANCH   1  23
BRANCH  11  27
ATOM     27  C   UNL     1      -4.363  17.811  20.856  0.00  0.00    +0.000 C 
BRANCH  27  28
ATOM     28  C   UNL     1      -4.834  17.168  19.552  0.00  0.00    +0.000 C 
BRANCH  28  29
ATOM     29  O   UNL     1      -5.089  15.778  19.752  0.00  0.00    +0.000 OA
ATOM     30  H   UNL     1      -4.821  15.335  18.929  0.00  0.00    +0.000 HD
ENDBRANCH  28  29
ENDBRANCH  27  28
ENDBRANCH  11  27
TORSDOF 8
ENDMDL
MODEL 5
REMARK VINA RESULT:      -5.5      8.346     11.141
REMARK  Name = 
REMARK  11 active torsions:
REMARK  status: ('A' for Active; 'I' for Inactive)
REMARK    1  A    between atoms: C_1  and  O_2
REMARK    2  A    between atoms: O_2  and  C_3
REMARK    3  A    between atoms: C_3  and  C_5
REMARK    4  A    between atoms: C_6  and  C_7
REMARK    5  A    between atoms: C_11  and  O_12
REMARK    6  A    between atoms: O_12  and  C_13
REMARK    7  A    between atoms: C_14  and  O_15
REMARK    8  A    between atoms: O_15  and  C_16
REMARK    9  A    between atoms: N_25  and  C_26
REMARK   10  A    between atoms: C_26  and  C_27
REMARK   11  A    between atoms: C_27  and  O_28
REMARK                            x       y       z     vdW  Elec       q    Type
REMARK                         _______ _______ _______ _____ _____    ______ ____
ROOT
ATOM      1  C   UNL     1      -0.791  13.824  19.656  0.00  0.00    +0.000 C 
ATOM      2  C   UNL     1      -0.842  13.098  20.807  0.00  0.00    +0.000 C 
ATOM      3  C   UNL     1      -0.472  11.613  20.808  0.00  0.00    +0.000 C 
ATOM      4  C   UNL     1       0.034  11.135  19.428  0.00  0.00    +0.000 C 
ATOM      5  C   UNL     1       1.418  11.715  19.091  0.00  0.00    +0.000 C 
ATOM      6  C   UNL     1       1.132  12.994  18.285  0.00  0.00    +0.000 C 
ATOM      7  C   UNL     1      -0.391  13.147  18.342  0.00  0.00    +0.000 C 
ATOM      8  N   UNL     1      -0.815  11.751  18.424  0.00  0.00    +0.000 N 
ATOM      9  C   UNL     1      -1.879  11.092  17.877  0.00  0.00    +0.000 C 
ATOM     10  O   UNL     1      -2.129   9.919  18.141  0.00  0.00    +0.000 OA
ATOM     11  N   UNL     1      -2.628  11.795  16.976  0.00  0.00    +0.000 N 
ATOM     12  H   UNL     1      -2.561  12.798  16.940  0.00  0.00    +0.000 HD
ENDROOT
BRANCH   2  13
ATOM     13  C   UNL     1      -1.423  13.567  22.088  0.00  0.00    +0.000 A 
ATOM     14  C   UNL     1      -2.765  13.206  22.295  0.00  0.00    +0.000 A 
ATOM     15  C   UNL     1      -3.427  13.569  23.459  0.00  0.00    +0.000 A 
ATOM     16  C   UNL     1      -2.762  14.310  24.429  0.00  0.00    +0.000 A 
ATOM     17  C   UNL     1      -1.413  14.667  24.264  0.00  0.00    +0.000 A 
ATOM     18  C   UNL     1      -0.719  14.277  23.091  0.00  0.00    +0.000 A 
BRANCH  17  19
ATOM     19  O   UNL     1      -0.782  15.463  25.195  0.00  0.00    +0.000 OA
ATOM     20  C   UNL     1      -1.425  16.703  25.490  0.00  0.00    +0.000 C 
ENDBRANCH  17  19
BRANCH  18  21
ATOM     21  O   UNL     1       0.609  14.513  22.816  0.00  0.00    +0.000 OA
ATOM     22  C   UNL     1       0.990  15.828  22.431  0.00  0.00    +0.000 C 
ENDBRANCH  18  21
ENDBRANCH   2  13
BRANCH   1  23
ATOM     23  C   UNL     1      -1.094  15.286  19.607  0.00  0.00    +0.000 C 
ATOM     24  O   UNL     1      -1.990  15.850  20.212  0.00  0.00    +0.000 OA
BRANCH  23  26
ATOM     25  C   UNL     1      -0.628  17.193  18.325  0.00  0.00    +0.000 C 
ATOM     26  O   UNL     1      -0.194  15.917  18.805  0.00  0.00    +0.000 OA
ENDBRANCH  23  26
ENDBRANCH   1  23
BRANCH  11  27
ATOM     27  C   UNL     1      -3.707  11.162  16.230  0.00  0.00    +0.000 C 
BRANCH  27  28
ATOM     28  C   UNL     1      -3.220  10.482  14.950  0.00  0.00    +0.000 C 
BRANCH  28  29
ATOM     29  O   UNL     1      -4.330   9.961  14.217  0.00  0.00    +0.000 OA
ATOM     30  H   UNL     1      -4.017   9.136  13.807  0.00  0.00    +0.000 HD
ENDBRANCH  28  29
ENDBRANCH  27  28
ENDBRANCH  11  27
TORSDOF 8
ENDMDL
MODEL 6
REMARK VINA RESULT:      -5.5      7.983     12.135
REMARK  Name = 
REMARK  11 active torsions:
REMARK  status: ('A' for Active; 'I' for Inactive)
REMARK    1  A    between atoms: C_1  and  O_2
REMARK    2  A    between atoms: O_2  and  C_3
REMARK    3  A    between atoms: C_3  and  C_5
REMARK    4  A    between atoms: C_6  and  C_7
REMARK    5  A    between atoms: C_11  and  O_12
REMARK    6  A    between atoms: O_12  and  C_13
REMARK    7  A    between atoms: C_14  and  O_15
REMARK    8  A    between atoms: O_15  and  C_16
REMARK    9  A    between atoms: N_25  and  C_26
REMARK   10  A    between atoms: C_26  and  C_27
REMARK   11  A    between atoms: C_27  and  O_28
REMARK                            x       y       z     vdW  Elec       q    Type
REMARK                         _______ _______ _______ _____ _____    ______ ____
ROOT
ATOM      1  C   UNL     1      -1.395  12.439  22.192  0.00  0.00    +0.000 C 
ATOM      2  C   UNL     1      -1.155  12.731  20.884  0.00  0.00    +0.000 C 
ATOM      3  C   UNL     1      -1.498  14.112  20.320  0.00  0.00    +0.000 C 
ATOM      4  C   UNL     1      -2.014  15.078  21.410  0.00  0.00    +0.000 C 
ATOM      5  C   UNL     1      -0.899  15.500  22.381  0.00  0.00    +0.000 C 
ATOM      6  C   UNL     1      -0.986  14.502  23.550  0.00  0.00    +0.000 C 
ATOM      7  C   UNL     1      -2.041  13.486  23.104  0.00  0.00    +0.000 C 
ATOM      8  N   UNL     1      -2.905  14.318  22.269  0.00  0.00    +0.000 N 
ATOM      9  C   UNL     1      -4.259  14.334  22.099  0.00  0.00    +0.000 C 
ATOM     10  O   UNL     1      -4.806  15.054  21.267  0.00  0.00    +0.000 OA
ATOM     11  N   UNL     1      -4.986  13.542  22.942  0.00  0.00    +0.000 N 
ATOM     12  H   UNL     1      -4.533  12.801  23.451  0.00  0.00    +0.000 HD
ENDROOT
BRANCH   2  13
ATOM     13  C   UNL     1      -0.748  11.750  19.849  0.00  0.00    +0.000 A 
ATOM     14  C   UNL     1      -1.813  11.098  19.204  0.00  0.00    +0.000 A 
ATOM     15  C   UNL     1      -1.573  10.166  18.205  0.00  0.00    +0.000 A 
ATOM     16  C   UNL     1      -0.266   9.860  17.845  0.00  0.00    +0.000 A 
ATOM     17  C   UNL     1       0.821  10.511  18.454  0.00  0.00    +0.000 A 
ATOM     18  C   UNL     1       0.586  11.485  19.457  0.00  0.00    +0.000 A 
BRANCH  17  19
ATOM     19  O   UNL     1       2.113  10.151  18.145  0.00  0.00    +0.000 OA
ATOM     20  C   UNL     1       2.316   8.774  17.823  0.00  0.00    +0.000 C 
ENDBRANCH  17  19
BRANCH  18  21
ATOM     21  O   UNL     1       1.544  12.233  20.102  0.00  0.00    +0.000 OA
ATOM     22  C   UNL     1       2.114  13.335  19.406  0.00  0.00    +0.000 C 
ENDBRANCH  18  21
ENDBRANCH   2  13
BRANCH   1  23
ATOM     23  C   UNL     1      -1.036  11.125  22.807  0.00  0.00    +0.000 C 
ATOM     24  O   UNL     1      -1.815  10.340  23.320  0.00  0.00    +0.000 OA
BRANCH  23  26
ATOM     25  C   UNL     1       0.669   9.526  22.629  0.00  0.00    +0.000 C 
ATOM     26  O   UNL     1       0.302  10.907  22.682  0.00  0.00    +0.000 OA
ENDBRANCH  23  26
ENDBRANCH   1  23
BRANCH  11  27
ATOM     27  C   UNL     1      -6.442  13.573  22.945  0.00  0.00    +0.000 C 
BRANCH  27  28
ATOM     28  C   UNL     1      -7.012  14.430  24.075  0.00  0.00    +0.000 C 
BRANCH  28  29
ATOM     29  O   UNL     1      -7.917  13.661  24.868  0.00  0.00    +0.000 OA
ATOM     30  H   UNL     1      -7.757  13.926  25.790  0.00  0.00    +0.000 HD
ENDBRANCH  28  29
ENDBRANCH  27  28
ENDBRANCH  11  27
TORSDOF 8
ENDMDL
MODEL 7
REMARK VINA RESULT:      -5.4      8.067     11.179
REMARK  Name = 
REMARK  11 active torsions:
REMARK  status: ('A' for Active; 'I' for Inactive)
REMARK    1  A    between atoms: C_1  and  O_2
REMARK    2  A    between atoms: O_2  and  C_3
REMARK    3  A    between atoms: C_3  and  C_5
REMARK    4  A    between atoms: C_6  and  C_7
REMARK    5  A    between atoms: C_11  and  O_12
REMARK    6  A    between atoms: O_12  and  C_13
REMARK    7  A    between atoms: C_14  and  O_15
REMARK    8  A    between atoms: O_15  and  C_16
REMARK    9  A    between atoms: N_25  and  C_26
REMARK   10  A    between atoms: C_26  and  C_27
REMARK   11  A    between atoms: C_27  and  O_28
REMARK                            x       y       z     vdW  Elec       q    Type
REMARK                         _______ _______ _______ _____ _____    ______ ____
ROOT
ATOM      1  C   UNL     1      -0.720  11.540  21.229  0.00  0.00    +0.000 C 
ATOM      2  C   UNL     1      -1.690  12.494  21.282  0.00  0.00    +0.000 C 
ATOM      3  C   UNL     1      -2.051  13.306  20.036  0.00  0.00    +0.000 C 
ATOM      4  C   UNL     1      -1.278  12.833  18.784  0.00  0.00    +0.000 C 
ATOM      5  C   UNL     1      -1.754  11.452  18.302  0.00  0.00    +0.000 C 
ATOM      6  C   UNL     1      -0.812  10.442  18.981  0.00  0.00    +0.000 C 
ATOM      7  C   UNL     1       0.042  11.295  19.924  0.00  0.00    +0.000 C 
ATOM      8  N   UNL     1       0.087  12.564  19.200  0.00  0.00    +0.000 N 
ATOM      9  C   UNL     1       1.083  13.484  19.044  0.00  0.00    +0.000 C 
ATOM     10  O   UNL     1       0.902  14.555  18.470  0.00  0.00    +0.000 OA
ATOM     11  N   UNL     1       2.315  13.129  19.516  0.00  0.00    +0.000 N 
ATOM     12  H   UNL     1       2.403  12.372  20.173  0.00  0.00    +0.000 HD
ENDROOT
BRANCH   2  13
ATOM     13  C   UNL     1      -2.341  12.984  22.520  0.00  0.00    +0.000 A 
ATOM     14  C   UNL     1      -3.637  12.486  22.742  0.00  0.00    +0.000 A 
ATOM     15  C   UNL     1      -4.355  12.853  23.871  0.00  0.00    +0.000 A 
ATOM     16  C   UNL     1      -3.795  13.734  24.789  0.00  0.00    +0.000 A 
ATOM     17  C   UNL     1      -2.493  14.232  24.610  0.00  0.00    +0.000 A 
ATOM     18  C   UNL     1      -1.741  13.841  23.473  0.00  0.00    +0.000 A 
BRANCH  17  19
ATOM     19  O   UNL     1      -1.974  15.160  25.484  0.00  0.00    +0.000 OA
ATOM     20  C   UNL     1      -2.467  16.493  25.342  0.00  0.00    +0.000 C 
ENDBRANCH  17  19
BRANCH  18  21
ATOM     21  O   UNL     1      -0.444  14.208  23.193  0.00  0.00    +0.000 OA
ATOM     22  C   UNL     1      -0.228  15.447  22.528  0.00  0.00    +0.000 C 
ENDBRANCH  18  21
ENDBRANCH   2  13
BRANCH   1  23
ATOM     23  C   UNL     1      -0.361  10.685  22.401  0.00  0.00    +0.000 C 
ATOM     24  O   UNL     1      -1.137  10.264  23.242  0.00  0.00    +0.000 OA
BRANCH  23  26
ATOM     25  C   UNL     1       1.279   9.015  22.261  0.00  0.00    +0.000 C 
ATOM     26  O   UNL     1       0.971  10.407  22.379  0.00  0.00    +0.000 OA
ENDBRANCH  23  26
ENDBRANCH   1  23
BRANCH  11  27
ATOM     27  C   UNL     1       3.484  13.970  19.292  0.00  0.00    +0.000 C 
BRANCH  27  28
ATOM     28  C   UNL     1       4.015  14.598  20.580  0.00  0.00    +0.000 C 
BRANCH  28  29
ATOM     29  O   UNL     1       3.546  13.869  21.714  0.00  0.00    +0.000 OA
ATOM     30  H   UNL     1       4.315  13.758  22.299  0.00  0.00    +0.000 HD
ENDBRANCH  28  29
ENDBRANCH  27  28
ENDBRANCH  11  27
TORSDOF 8
ENDMDL
MODEL 8
REMARK VINA RESULT:      -5.4      8.587     11.358
REMARK  Name = 
REMARK  11 active torsions:
REMARK  status: ('A' for Active; 'I' for Inactive)
REMARK    1  A    between atoms: C_1  and  O_2
REMARK    2  A    between atoms: O_2  and  C_3
REMARK    3  A    between atoms: C_3  and  C_5
REMARK    4  A    between atoms: C_6  and  C_7
REMARK    5  A    between atoms: C_11  and  O_12
REMARK    6  A    between atoms: O_12  and  C_13
REMARK    7  A    between atoms: C_14  and  O_15
REMARK    8  A    between atoms: O_15  and  C_16
REMARK    9  A    between atoms: N_25  and  C_26
REMARK   10  A    between atoms: C_26  and  C_27
REMARK   11  A    between atoms: C_27  and  O_28
REMARK                            x       y       z     vdW  Elec       q    Type
REMARK                         _______ _______ _______ _____ _____    ______ ____
ROOT
ATOM      1  C   UNL     1       0.151  12.271  20.413  0.00  0.00    +0.000 C 
ATOM      2  C   UNL     1      -0.513  12.565  19.260  0.00  0.00    +0.000 C 
ATOM      3  C   UNL     1      -0.315  13.916  18.570  0.00  0.00    +0.000 C 
ATOM      4  C   UNL     1       0.755  14.781  19.273  0.00  0.00    +0.000 C 
ATOM      5  C   UNL     1       2.172  14.216  19.077  0.00  0.00    +0.000 C 
ATOM      6  C   UNL     1       2.421  13.321  20.305  0.00  0.00    +0.000 C 
ATOM      7  C   UNL     1       1.080  13.311  21.045  0.00  0.00    +0.000 C 
ATOM      8  N   UNL     1       0.554  14.631  20.704  0.00  0.00    +0.000 N 
ATOM      9  C   UNL     1      -0.161  15.539  21.431  0.00  0.00    +0.000 C 
ATOM     10  O   UNL     1      -0.604  16.571  20.936  0.00  0.00    +0.000 OA
ATOM     11  N   UNL     1      -0.317  15.262  22.760  0.00  0.00    +0.000 N 
ATOM     12  H   UNL     1      -0.157  14.329  23.102  0.00  0.00    +0.000 HD
ENDROOT
BRANCH   2  13
ATOM     13  C   UNL     1      -1.601  11.749  18.669  0.00  0.00    +0.000 A 
ATOM     14  C   UNL     1      -1.167  10.692  17.849  0.00  0.00    +0.000 A 
ATOM     15  C   UNL     1      -2.081   9.842  17.245  0.00  0.00    +0.000 A 
ATOM     16  C   UNL     1      -3.443  10.042  17.437  0.00  0.00    +0.000 A 
ATOM     17  C   UNL     1      -3.909  11.074  18.268  0.00  0.00    +0.000 A 
ATOM     18  C   UNL     1      -2.983  11.932  18.914  0.00  0.00    +0.000 A 
BRANCH  17  19
ATOM     19  O   UNL     1      -5.260  11.312  18.396  0.00  0.00    +0.000 OA
ATOM     20  C   UNL     1      -5.820  12.234  17.460  0.00  0.00    +0.000 C 
ENDBRANCH  17  19
BRANCH  18  21
ATOM     21  O   UNL     1      -3.291  12.948  19.789  0.00  0.00    +0.000 OA
ATOM     22  C   UNL     1      -3.670  12.599  21.115  0.00  0.00    +0.000 C 
ENDBRANCH  18  21
ENDBRANCH   2  13
BRANCH   1  23
ATOM     23  C   UNL     1       0.032  10.951  21.102  0.00  0.00    +0.000 C 
ATOM     24  O   UNL     1       0.595   9.920  20.772  0.00  0.00    +0.000 OA
BRANCH  23  26
ATOM     25  C   UNL     1      -0.636  10.014  23.145  0.00  0.00    +0.000 C 
ATOM     26  O   UNL     1      -0.778  11.069  22.188  0.00  0.00    +0.000 OA
ENDBRANCH  23  26
ENDBRANCH   1  23
BRANCH  11  27
ATOM     27  C   UNL     1      -0.947  16.216  23.663  0.00  0.00    +0.000 C 
BRANCH  27  28
ATOM     28  C   UNL     1      -2.447  15.974  23.825  0.00  0.00    +0.000 C 
BRANCH  28  29
ATOM     29  O   UNL     1      -3.164  16.593  22.756  0.00  0.00    +0.000 OA
ATOM     30  H   UNL     1      -3.363  15.884  22.121  0.00  0.00    +0.000 HD
ENDBRANCH  28  29
ENDBRANCH  27  28
ENDBRANCH  11  27
TORSDOF 8
ENDMDL
MODEL 9
REMARK VINA RESULT:      -5.4      8.901     12.605
REMARK  Name = 
REMARK  11 active torsions:
REMARK  status: ('A' for Active; 'I' for Inactive)
REMARK    1  A    between atoms: C_1  and  O_2
REMARK    2  A    between atoms: O_2  and  C_3
REMARK    3  A    between atoms: C_3  and  C_5
REMARK    4  A    between atoms: C_6  and  C_7
REMARK    5  A    between atoms: C_11  and  O_12
REMARK    6  A    between atoms: O_12  and  C_13
REMARK    7  A    between atoms: C_14  and  O_15
REMARK    8  A    between atoms: O_15  and  C_16
REMARK    9  A    between atoms: N_25  and  C_26
REMARK   10  A    between atoms: C_26  and  C_27
REMARK   11  A    between atoms: C_27  and  O_28
REMARK                            x       y       z     vdW  Elec       q    Type
REMARK                         _______ _______ _______ _____ _____    ______ ____
ROOT
ATOM      1  C   UNL     1      -3.172  13.723  22.247  0.00  0.00    +0.000 C 
ATOM      2  C   UNL     1      -1.979  13.329  22.773  0.00  0.00    +0.000 C 
ATOM      3  C   UNL     1      -1.212  14.240  23.733  0.00  0.00    +0.000 C 
ATOM      4  C   UNL     1      -1.997  15.528  24.071  0.00  0.00    +0.000 C 
ATOM      5  C   UNL     1      -3.221  15.240  24.957  0.00  0.00    +0.000 C 
ATOM      6  C   UNL     1      -4.393  15.058  23.977  0.00  0.00    +0.000 C 
ATOM      7  C   UNL     1      -3.741  15.102  22.592  0.00  0.00    +0.000 C 
ATOM      8  N   UNL     1      -2.608  15.993  22.837  0.00  0.00    +0.000 N 
ATOM      9  C   UNL     1      -2.030  16.959  22.066  0.00  0.00    +0.000 C 
ATOM     10  O   UNL     1      -1.008  17.547  22.410  0.00  0.00    +0.000 OA
ATOM     11  N   UNL     1      -2.679  17.277  20.907  0.00  0.00    +0.000 N 
ATOM     12  H   UNL     1      -3.368  16.649  20.527  0.00  0.00    +0.000 HD
ENDROOT
BRANCH   2  13
ATOM     13  C   UNL     1      -1.214  12.130  22.352  0.00  0.00    +0.000 A 
ATOM     14  C   UNL     1      -1.352  11.016  23.197  0.00  0.00    +0.000 A 
ATOM     15  C   UNL     1      -0.702   9.824  22.913  0.00  0.00    +0.000 A 
ATOM     16  C   UNL     1       0.109   9.731  21.788  0.00  0.00    +0.000 A 
ATOM     17  C   UNL     1       0.250  10.819  20.910  0.00  0.00    +0.000 A 
ATOM     18  C   UNL     1      -0.432  12.033  21.176  0.00  0.00    +0.000 A 
BRANCH  17  19
ATOM     19  O   UNL     1       1.112  10.744  19.838  0.00  0.00    +0.000 OA
ATOM     20  C   UNL     1       0.544  10.273  18.615  0.00  0.00    +0.000 C 
ENDBRANCH  17  19
BRANCH  18  21
ATOM     21  O   UNL     1      -0.426  13.158  20.384  0.00  0.00    +0.000 OA
ATOM     22  C   UNL     1       0.676  14.051  20.497  0.00  0.00    +0.000 C 
ENDBRANCH  18  21
ENDBRANCH   2  13
BRANCH   1  23
ATOM     23  C   UNL     1      -3.985  12.854  21.344  0.00  0.00    +0.000 C 
ATOM     24  O   UNL     1      -3.792  12.685  20.152  0.00  0.00    +0.000 OA
BRANCH  23  26
ATOM     25  C   UNL     1      -6.280  12.403  21.509  0.00  0.00    +0.000 C 
ATOM     26  O   UNL     1      -4.968  12.240  22.057  0.00  0.00    +0.000 OA
ENDBRANCH  23  26
ENDBRANCH   1  23
BRANCH  11  27
ATOM     27  C   UNL     1      -2.232  18.380  20.067  0.00  0.00    +0.000 C 
BRANCH  27  28
ATOM     28  C   UNL     1      -1.807  17.925  18.671  0.00  0.00    +0.000 C 
BRANCH  28  29
ATOM     29  O   UNL     1      -0.705  17.021  18.762  0.00  0.00    +0.000 OA
ATOM     30  H   UNL     1       0.015  17.518  19.187  0.00  0.00    +0.000 HD
ENDBRANCH  28  29
ENDBRANCH  27  28
ENDBRANCH  11  27
TORSDOF 8
ENDMDL
