MODEL 1
REMARK VINA RESULT:      -8.4      0.000      0.000
REMARK  Name = 
REMARK  10 active torsions:
REMARK  status: ('A' for Active; 'I' for Inactive)
REMARK    1  A    between atoms: C_1  and  O_2
REMARK    2  A    between atoms: O_2  and  C_3
REMARK    3  A    between atoms: C_7  and  O_8
REMARK    4  A    between atoms: O_8  and  C_9
REMARK    5  A    between atoms: C_10  and  C_11
REMARK    6  A    between atoms: C_13  and  C_14
REMARK    7  A    between atoms: N_16  and  C_17
REMARK    8  A    between atoms: C_22  and  C_23
REMARK    9  A    between atoms: C_23  and  O_25
REMARK   10  A    between atoms: N_27  and  C_28
REMARK                            x       y       z     vdW  Elec       q    Type
REMARK                         _______ _______ _______ _____ _____    ______ ____
ROOT
ATOM      1  C   UNL     1       3.607   6.325  17.968  0.00  0.00    +0.000 A 
ATOM      2  C   UNL     1       3.311   7.655  17.711  0.00  0.00    +0.000 A 
ATOM      3  C   UNL     1       2.290   8.041  18.601  0.00  0.00    +0.000 A 
ATOM      4  N   UNL     1       2.021   7.057  19.472  0.00  0.00    +0.000 NA
ATOM      5  N   UNL     1       2.743   5.974  19.020  0.00  0.00    +0.000 N 
ENDROOT
BRANCH   5   6
ATOM      6  C   UNL     1       2.557   4.711  19.668  0.00  0.00    +0.000 A 
ATOM      7  C   UNL     1       3.639   3.990  20.194  0.00  0.00    +0.000 A 
ATOM      8  C   UNL     1       3.415   2.940  21.086  0.00  0.00    +0.000 A 
ATOM      9  C   UNL     1       2.114   2.554  21.376  0.00  0.00    +0.000 A 
ATOM     10  F   UNL     1       1.900   1.595  22.286  0.00  0.00    +0.000 F 
ATOM     11  C   UNL     1       1.034   3.162  20.748  0.00  0.00    +0.000 A 
ATOM     12  C   UNL     1       1.252   4.238  19.883  0.00  0.00    +0.000 A 
ENDBRANCH   5   6
BRANCH   1  18
ATOM     13  C   UNL     1       5.971   5.885  17.220  0.00  0.00    +0.000 A 
ATOM     14  C   UNL     1       6.917   5.142  16.501  0.00  0.00    +0.000 A 
ATOM     15  C   UNL     1       6.529   4.034  15.760  0.00  0.00    +0.000 A 
ATOM     16  C   UNL     1       5.209   3.602  15.807  0.00  0.00    +0.000 A 
ATOM     17  C   UNL     1       4.260   4.270  16.595  0.00  0.00    +0.000 A 
ATOM     18  C   UNL     1       4.611   5.475  17.263  0.00  0.00    +0.000 A 
BRANCH  13  20
ATOM     19  C   UNL     1       7.562   7.619  17.579  0.00  0.00    +0.000 C 
ATOM     20  O   UNL     1       6.323   7.012  17.927  0.00  0.00    +0.000 OA
ENDBRANCH  13  20
BRANCH  17  21
ATOM     21  O   UNL     1       2.971   3.815  16.747  0.00  0.00    +0.000 OA
ATOM     22  C   UNL     1       2.795   2.443  17.095  0.00  0.00    +0.000 C 
ENDBRANCH  17  21
ENDBRANCH   1  18
BRANCH   3  23
ATOM     23  C   UNL     1       1.610   9.349  18.601  0.00  0.00    +0.000 C 
ATOM     24  O   UNL     1       2.078  10.312  18.008  0.00  0.00    +0.000 OA
ATOM     25  N   UNL     1       0.459   9.411  19.383  0.00  0.00    +0.000 N 
ATOM     26  H   UNL     1       0.324   8.627  20.024  0.00  0.00    +0.000 HD
BRANCH  25  27
ATOM     27  C   UNL     1      -0.371  10.556  19.458  0.00  0.00    +0.000 A 
ATOM     28  C   UNL     1      -1.063  10.992  18.317  0.00  0.00    +0.000 A 
ATOM     29  C   UNL     1      -1.911  12.102  18.369  0.00  0.00    +0.000 A 
ATOM     30  C   UNL     1      -2.070  12.803  19.560  0.00  0.00    +0.000 A 
ATOM     31  C   UNL     1      -1.394  12.385  20.703  0.00  0.00    +0.000 A 
ATOM     32  C   UNL     1      -0.549  11.261  20.661  0.00  0.00    +0.000 A 
BRANCH  32  33
ATOM     33  C   UNL     1       0.183  10.938  21.907  0.00  0.00    +0.000 C 
ATOM     34  O   UNL     1       1.266  10.377  21.916  0.00  0.00    +0.000 OA
BRANCH  33  35
ATOM     35  O   UNL     1      -0.495  11.251  23.031  0.00  0.00    +0.000 OA
ATOM     36  H   UNL     1      -0.706  12.203  23.113  0.00  0.00    +0.000 HD
ENDBRANCH  33  35
ENDBRANCH  32  33
ENDBRANCH  25  27
ENDBRANCH   3  23
TORSDOF 8
ENDMDL
MODEL 2
REMARK VINA RESULT:      -8.2      1.345      1.866
REMARK  Name = 
REMARK  10 active torsions:
REMARK  status: ('A' for Active; 'I' for Inactive)
REMARK    1  A    between atoms: C_1  and  O_2
REMARK    2  A    between atoms: O_2  and  C_3
REMARK    3  A    between atoms: C_7  and  O_8
REMARK    4  A    between atoms: O_8  and  C_9
REMARK    5  A    between atoms: C_10  and  C_11
REMARK    6  A    between atoms: C_13  and  C_14
REMARK    7  A    between atoms: N_16  and  C_17
REMARK    8  A    between atoms: C_22  and  C_23
REMARK    9  A    between atoms: C_23  and  O_25
REMARK   10  A    between atoms: N_27  and  C_28
REMARK                            x       y       z     vdW  Elec       q    Type
REMARK                         _______ _______ _______ _____ _____    ______ ____
ROOT
ATOM      1  C   UNL     1       3.646   6.367  17.871  0.00  0.00    +0.000 A 
ATOM      2  C   UNL     1       3.400   7.702  17.588  0.00  0.00    +0.000 A 
ATOM      3  C   UNL     1       2.391   8.142  18.468  0.00  0.00    +0.000 A 
ATOM      4  N   UNL     1       2.083   7.185  19.356  0.00  0.00    +0.000 NA
ATOM      5  N   UNL     1       2.767   6.068  18.926  0.00  0.00    +0.000 N 
ENDROOT
BRANCH   5   6
ATOM      6  C   UNL     1       2.533   4.825  19.597  0.00  0.00    +0.000 A 
ATOM      7  C   UNL     1       3.579   4.103  20.190  0.00  0.00    +0.000 A 
ATOM      8  C   UNL     1       3.299   3.080  21.097  0.00  0.00    +0.000 A 
ATOM      9  C   UNL     1       1.981   2.720  21.337  0.00  0.00    +0.000 A 
ATOM     10  F   UNL     1       1.711   1.788  22.260  0.00  0.00    +0.000 F 
ATOM     11  C   UNL     1       0.940   3.325  20.645  0.00  0.00    +0.000 A 
ATOM     12  C   UNL     1       1.212   4.376  19.763  0.00  0.00    +0.000 A 
ENDBRANCH   5   6
BRANCH   1  18
ATOM     13  C   UNL     1       5.990   5.843  17.112  0.00  0.00    +0.000 A 
ATOM     14  C   UNL     1       6.908   5.051  16.410  0.00  0.00    +0.000 A 
ATOM     15  C   UNL     1       6.484   3.928  15.714  0.00  0.00    +0.000 A 
ATOM     16  C   UNL     1       5.155   3.531  15.790  0.00  0.00    +0.000 A 
ATOM     17  C   UNL     1       4.232   4.250  16.565  0.00  0.00    +0.000 A 
ATOM     18  C   UNL     1       4.620   5.468  17.185  0.00  0.00    +0.000 A 
BRANCH  13  20
ATOM     19  C   UNL     1       7.756   7.085  18.117  0.00  0.00    +0.000 C 
ATOM     20  O   UNL     1       6.377   6.985  17.775  0.00  0.00    +0.000 OA
ENDBRANCH  13  20
BRANCH  17  21
ATOM     21  O   UNL     1       2.934   3.832  16.747  0.00  0.00    +0.000 OA
ATOM     22  C   UNL     1       2.727   2.472  17.122  0.00  0.00    +0.000 C 
ENDBRANCH  17  21
ENDBRANCH   1  18
BRANCH   3  23
ATOM     23  C   UNL     1       1.759   9.474  18.441  0.00  0.00    +0.000 C 
ATOM     24  O   UNL     1       2.106  10.329  17.636  0.00  0.00    +0.000 OA
ATOM     25  N   UNL     1       0.812   9.693  19.439  0.00  0.00    +0.000 N 
ATOM     26  H   UNL     1       0.805   9.004  20.193  0.00  0.00    +0.000 HD
BRANCH  25  27
ATOM     27  C   UNL     1       0.047  10.881  19.539  0.00  0.00    +0.000 A 
ATOM     28  C   UNL     1       0.462  11.907  20.402  0.00  0.00    +0.000 A 
ATOM     29  C   UNL     1      -0.257  13.102  20.499  0.00  0.00    +0.000 A 
ATOM     30  C   UNL     1      -1.413  13.283  19.746  0.00  0.00    +0.000 A 
ATOM     31  C   UNL     1      -1.839  12.278  18.883  0.00  0.00    +0.000 A 
ATOM     32  C   UNL     1      -1.112  11.079  18.770  0.00  0.00    +0.000 A 
BRANCH  32  33
ATOM     33  C   UNL     1      -1.685  10.041  17.883  0.00  0.00    +0.000 C 
ATOM     34  O   UNL     1      -2.791   9.557  18.054  0.00  0.00    +0.000 OA
BRANCH  33  35
ATOM     35  O   UNL     1      -0.838   9.625  16.918  0.00  0.00    +0.000 OA
ATOM     36  H   UNL     1      -0.108   9.063  17.248  0.00  0.00    +0.000 HD
ENDBRANCH  33  35
ENDBRANCH  32  33
ENDBRANCH  25  27
ENDBRANCH   3  23
TORSDOF 8
ENDMDL
MODEL 3
REMARK VINA RESULT:      -8.1      0.708      1.049
REMARK  Name = 
REMARK  10 active torsions:
REMARK  status: ('A' for Active; 'I' for Inactive)
REMARK    1  A    between atoms: C_1  and  O_2
REMARK    2  A    between atoms: O_2  and  C_3
REMARK    3  A    between atoms: C_7  and  O_8
REMARK    4  A    between atoms: O_8  and  C_9
REMARK    5  A    between atoms: C_10  and  C_11
REMARK    6  A    between atoms: C_13  and  C_14
REMARK    7  A    between atoms: N_16  and  C_17
REMARK    8  A    between atoms: C_22  and  C_23
REMARK    9  A    between atoms: C_23  and  O_25
REMARK   10  A    between atoms: N_27  and  C_28
REMARK                            x       y       z     vdW  Elec       q    Type
REMARK                         _______ _______ _______ _____ _____    ______ ____
ROOT
ATOM      1  C   UNL     1       3.721   6.432  17.942  0.00  0.00    +0.000 A 
ATOM      2  C   UNL     1       3.257   7.663  17.506  0.00  0.00    +0.000 A 
ATOM      3  C   UNL     1       2.337   8.132  18.464  0.00  0.00    +0.000 A 
ATOM      4  N   UNL     1       2.294   7.312  19.525  0.00  0.00    +0.000 NA
ATOM      5  N   UNL     1       3.054   6.221  19.161  0.00  0.00    +0.000 N 
ENDROOT
BRANCH   5   6
ATOM      6  C   UNL     1       3.091   5.092  20.041  0.00  0.00    +0.000 A 
ATOM      7  C   UNL     1       2.049   4.831  20.943  0.00  0.00    +0.000 A 
ATOM      8  C   UNL     1       1.948   3.580  21.554  0.00  0.00    +0.000 A 
ATOM      9  C   UNL     1       2.935   2.630  21.337  0.00  0.00    +0.000 A 
ATOM     10  F   UNL     1       2.800   1.408  21.866  0.00  0.00    +0.000 F 
ATOM     11  C   UNL     1       4.051   2.927  20.564  0.00  0.00    +0.000 A 
ATOM     12  C   UNL     1       4.138   4.164  19.919  0.00  0.00    +0.000 A 
ENDBRANCH   5   6
BRANCH   1  18
ATOM     13  C   UNL     1       6.074   5.897  17.222  0.00  0.00    +0.000 A 
ATOM     14  C   UNL     1       6.997   5.116  16.513  0.00  0.00    +0.000 A 
ATOM     15  C   UNL     1       6.573   4.025  15.767  0.00  0.00    +0.000 A 
ATOM     16  C   UNL     1       5.236   3.647  15.797  0.00  0.00    +0.000 A 
ATOM     17  C   UNL     1       4.306   4.353  16.574  0.00  0.00    +0.000 A 
ATOM     18  C   UNL     1       4.698   5.542  17.248  0.00  0.00    +0.000 A 
BRANCH  13  20
ATOM     19  C   UNL     1       7.701   7.602  17.560  0.00  0.00    +0.000 C 
ATOM     20  O   UNL     1       6.463   7.008  17.935  0.00  0.00    +0.000 OA
ENDBRANCH  13  20
BRANCH  17  21
ATOM     21  O   UNL     1       2.998   3.951  16.710  0.00  0.00    +0.000 OA
ATOM     22  C   UNL     1       2.763   2.624  17.177  0.00  0.00    +0.000 C 
ENDBRANCH  17  21
ENDBRANCH   1  18
BRANCH   3  23
ATOM     23  C   UNL     1       1.533   9.362  18.342  0.00  0.00    +0.000 C 
ATOM     24  O   UNL     1       1.862  10.268  17.587  0.00  0.00    +0.000 OA
ATOM     25  N   UNL     1       0.437   9.433  19.199  0.00  0.00    +0.000 N 
ATOM     26  H   UNL     1       0.424   8.741  19.949  0.00  0.00    +0.000 HD
BRANCH  25  27
ATOM     27  C   UNL     1      -0.495  10.500  19.185  0.00  0.00    +0.000 A 
ATOM     28  C   UNL     1      -1.500  10.536  18.206  0.00  0.00    +0.000 A 
ATOM     29  C   UNL     1      -2.450  11.562  18.186  0.00  0.00    +0.000 A 
ATOM     30  C   UNL     1      -2.401  12.576  19.136  0.00  0.00    +0.000 A 
ATOM     31  C   UNL     1      -1.413  12.557  20.117  0.00  0.00    +0.000 A 
ATOM     32  C   UNL     1      -0.462  11.521  20.151  0.00  0.00    +0.000 A 
BRANCH  32  33
ATOM     33  C   UNL     1       0.593  11.627  21.184  0.00  0.00    +0.000 C 
ATOM     34  O   UNL     1       1.123  10.655  21.696  0.00  0.00    +0.000 OA
BRANCH  33  35
ATOM     35  O   UNL     1       0.856  12.895  21.562  0.00  0.00    +0.000 OA
ATOM     36  H   UNL     1       0.614  13.566  20.892  0.00  0.00    +0.000 HD
ENDBRANCH  33  35
ENDBRANCH  32  33
ENDBRANCH  25  27
ENDBRANCH   3  23
TORSDOF 8
ENDMDL
MODEL 4
REMARK VINA RESULT:      -8.0      0.273      2.313
REMARK  Name = 
REMARK  10 active torsions:
REMARK  status: ('A' for Active; 'I' for Inactive)
REMARK    1  A    between atoms: C_1  and  O_2
REMARK    2  A    between atoms: O_2  and  C_3
REMARK    3  A    between atoms: C_7  and  O_8
REMARK    4  A    between atoms: O_8  and  C_9
REMARK    5  A    between atoms: C_10  and  C_11
REMARK    6  A    between atoms: C_13  and  C_14
REMARK    7  A    between atoms: N_16  and  C_17
REMARK    8  A    between atoms: C_22  and  C_23
REMARK    9  A    between atoms: C_23  and  O_25
REMARK   10  A    between atoms: N_27  and  C_28
REMARK                            x       y       z     vdW  Elec       q    Type
REMARK                         _______ _______ _______ _____ _____    ______ ____
ROOT
ATOM      1  C   UNL     1       3.554   6.519  18.042  0.00  0.00    +0.000 A 
ATOM      2  C   UNL     1       3.203   7.841  17.816  0.00  0.00    +0.000 A 
ATOM      3  C   UNL     1       2.159   8.160  18.705  0.00  0.00    +0.000 A 
ATOM      4  N   UNL     1       1.924   7.143  19.548  0.00  0.00    +0.000 NA
ATOM      5  N   UNL     1       2.697   6.104  19.076  0.00  0.00    +0.000 N 
ENDROOT
BRANCH   5   6
ATOM      6  C   UNL     1       2.559   4.818  19.689  0.00  0.00    +0.000 A 
ATOM      7  C   UNL     1       3.674   4.102  20.148  0.00  0.00    +0.000 A 
ATOM      8  C   UNL     1       3.505   3.020  21.014  0.00  0.00    +0.000 A 
ATOM      9  C   UNL     1       2.224   2.600  21.342  0.00  0.00    +0.000 A 
ATOM     10  F   UNL     1       2.064   1.609  22.228  0.00  0.00    +0.000 F 
ATOM     11  C   UNL     1       1.109   3.207  20.778  0.00  0.00    +0.000 A 
ATOM     12  C   UNL     1       1.272   4.314  19.940  0.00  0.00    +0.000 A 
ENDBRANCH   5   6
BRANCH   1  18
ATOM     13  C   UNL     1       4.256   4.486  16.731  0.00  0.00    +0.000 A 
ATOM     14  C   UNL     1       5.237   3.695  16.118  0.00  0.00    +0.000 A 
ATOM     15  C   UNL     1       6.570   4.079  16.143  0.00  0.00    +0.000 A 
ATOM     16  C   UNL     1       6.925   5.303  16.698  0.00  0.00    +0.000 A 
ATOM     17  C   UNL     1       5.952   6.160  17.233  0.00  0.00    +0.000 A 
ATOM     18  C   UNL     1       4.600   5.732  17.325  0.00  0.00    +0.000 A 
BRANCH  13  20
ATOM     19  C   UNL     1       2.671   2.734  17.021  0.00  0.00    +0.000 C 
ATOM     20  O   UNL     1       2.934   4.107  16.757  0.00  0.00    +0.000 OA
ENDBRANCH  13  20
BRANCH  17  21
ATOM     21  O   UNL     1       6.250   7.420  17.698  0.00  0.00    +0.000 OA
ATOM     22  C   UNL     1       7.595   7.871  17.559  0.00  0.00    +0.000 C 
ENDBRANCH  17  21
ENDBRANCH   1  18
BRANCH   3  23
ATOM     23  C   UNL     1       1.423   9.437  18.732  0.00  0.00    +0.000 C 
ATOM     24  O   UNL     1       1.836  10.425  18.137  0.00  0.00    +0.000 OA
ATOM     25  N   UNL     1       0.287   9.442  19.539  0.00  0.00    +0.000 N 
ATOM     26  H   UNL     1       0.200   8.649  20.175  0.00  0.00    +0.000 HD
BRANCH  25  27
ATOM     27  C   UNL     1      -0.590  10.550  19.642  0.00  0.00    +0.000 A 
ATOM     28  C   UNL     1      -1.318  10.970  18.518  0.00  0.00    +0.000 A 
ATOM     29  C   UNL     1      -2.213  12.042  18.598  0.00  0.00    +0.000 A 
ATOM     30  C   UNL     1      -2.382  12.721  19.801  0.00  0.00    +0.000 A 
ATOM     31  C   UNL     1      -1.670  12.317  20.927  0.00  0.00    +0.000 A 
ATOM     32  C   UNL     1      -0.779  11.231  20.856  0.00  0.00    +0.000 A 
BRANCH  32  33
ATOM     33  C   UNL     1      -0.013  10.924  22.086  0.00  0.00    +0.000 C 
ATOM     34  O   UNL     1      -0.508  10.945  23.201  0.00  0.00    +0.000 OA
BRANCH  33  35
ATOM     35  O   UNL     1       1.298  10.698  21.866  0.00  0.00    +0.000 OA
ATOM     36  H   UNL     1       1.593   9.799  22.116  0.00  0.00    +0.000 HD
ENDBRANCH  33  35
ENDBRANCH  32  33
ENDBRANCH  25  27
ENDBRANCH   3  23
TORSDOF 8
ENDMDL
MODEL 5
REMARK VINA RESULT:      -8.0      0.747      2.486
REMARK  Name = 
REMARK  10 active torsions:
REMARK  status: ('A' for Active; 'I' for Inactive)
REMARK    1  A    between atoms: C_1  and  O_2
REMARK    2  A    between atoms: O_2  and  C_3
REMARK    3  A    between atoms: C_7  and  O_8
REMARK    4  A    between atoms: O_8  and  C_9
REMARK    5  A    between atoms: C_10  and  C_11
REMARK    6  A    between atoms: C_13  and  C_14
REMARK    7  A    between atoms: N_16  and  C_17
REMARK    8  A    between atoms: C_22  and  C_23
REMARK    9  A    between atoms: C_23  and  O_25
REMARK   10  A    between atoms: N_27  and  C_28
REMARK                            x       y       z     vdW  Elec       q    Type
REMARK                         _______ _______ _______ _____ _____    ______ ____
ROOT
ATOM      1  C   UNL     1       3.607   6.644  17.989  0.00  0.00    +0.000 A 
ATOM      2  C   UNL     1       3.103   7.878  17.608  0.00  0.00    +0.000 A 
ATOM      3  C   UNL     1       2.201   8.293  18.607  0.00  0.00    +0.000 A 
ATOM      4  N   UNL     1       2.208   7.437  19.641  0.00  0.00    +0.000 NA
ATOM      5  N   UNL     1       2.981   6.377  19.219  0.00  0.00    +0.000 N 
ENDROOT
BRANCH   5   6
ATOM      6  C   UNL     1       3.069   5.220  20.059  0.00  0.00    +0.000 A 
ATOM      7  C   UNL     1       2.027   4.861  20.924  0.00  0.00    +0.000 A 
ATOM      8  C   UNL     1       1.991   3.585  21.488  0.00  0.00    +0.000 A 
ATOM      9  C   UNL     1       3.040   2.707  21.261  0.00  0.00    +0.000 A 
ATOM     10  F   UNL     1       2.970   1.460  21.743  0.00  0.00    +0.000 F 
ATOM     11  C   UNL     1       4.152   3.101  20.527  0.00  0.00    +0.000 A 
ATOM     12  C   UNL     1       4.176   4.364  19.929  0.00  0.00    +0.000 A 
ENDBRANCH   5   6
BRANCH   1  18
ATOM     13  C   UNL     1       4.170   4.544  16.718  0.00  0.00    +0.000 A 
ATOM     14  C   UNL     1       5.088   3.703  16.073  0.00  0.00    +0.000 A 
ATOM     15  C   UNL     1       6.430   4.051  15.997  0.00  0.00    +0.000 A 
ATOM     16  C   UNL     1       6.851   5.285  16.478  0.00  0.00    +0.000 A 
ATOM     17  C   UNL     1       5.937   6.187  17.041  0.00  0.00    +0.000 A 
ATOM     18  C   UNL     1       4.584   5.801  17.238  0.00  0.00    +0.000 A 
BRANCH  13  20
ATOM     19  C   UNL     1       2.566   2.857  17.215  0.00  0.00    +0.000 C 
ATOM     20  O   UNL     1       2.843   4.203  16.845  0.00  0.00    +0.000 OA
ENDBRANCH  13  20
BRANCH  17  21
ATOM     21  O   UNL     1       6.296   7.455  17.435  0.00  0.00    +0.000 OA
ATOM     22  C   UNL     1       7.688   7.730  17.578  0.00  0.00    +0.000 C 
ENDBRANCH  17  21
ENDBRANCH   1  18
BRANCH   3  23
ATOM     23  C   UNL     1       1.366   9.507  18.550  0.00  0.00    +0.000 C 
ATOM     24  O   UNL     1       1.700  10.480  17.887  0.00  0.00    +0.000 OA
ATOM     25  N   UNL     1       0.233   9.477  19.360  0.00  0.00    +0.000 N 
ATOM     26  H   UNL     1       0.210   8.725  20.050  0.00  0.00    +0.000 HD
BRANCH  25  27
ATOM     27  C   UNL     1      -0.729  10.517  19.391  0.00  0.00    +0.000 A 
ATOM     28  C   UNL     1      -1.780  10.522  18.462  0.00  0.00    +0.000 A 
ATOM     29  C   UNL     1      -2.760  11.520  18.487  0.00  0.00    +0.000 A 
ATOM     30  C   UNL     1      -2.695  12.536  19.435  0.00  0.00    +0.000 A 
ATOM     31  C   UNL     1      -1.661  12.546  20.367  0.00  0.00    +0.000 A 
ATOM     32  C   UNL     1      -0.680  11.538  20.355  0.00  0.00    +0.000 A 
BRANCH  32  33
ATOM     33  C   UNL     1       0.420  11.676  21.337  0.00  0.00    +0.000 C 
ATOM     34  O   UNL     1       1.159  12.645  21.377  0.00  0.00    +0.000 OA
BRANCH  33  35
ATOM     35  O   UNL     1       0.577  10.595  22.130  0.00  0.00    +0.000 OA
ATOM     36  H   UNL     1       0.457   9.743  21.666  0.00  0.00    +0.000 HD
ENDBRANCH  33  35
ENDBRANCH  32  33
ENDBRANCH  25  27
ENDBRANCH   3  23
TORSDOF 8
ENDMDL
MODEL 6
REMARK VINA RESULT:      -8.0      1.232      2.927
REMARK  Name = 
REMARK  10 active torsions:
REMARK  status: ('A' for Active; 'I' for Inactive)
REMARK    1  A    between atoms: C_1  and  O_2
REMARK    2  A    between atoms: O_2  and  C_3
REMARK    3  A    between atoms: C_7  and  O_8
REMARK    4  A    between atoms: O_8  and  C_9
REMARK    5  A    between atoms: C_10  and  C_11
REMARK    6  A    between atoms: C_13  and  C_14
REMARK    7  A    between atoms: N_16  and  C_17
REMARK    8  A    between atoms: C_22  and  C_23
REMARK    9  A    between atoms: C_23  and  O_25
REMARK   10  A    between atoms: N_27  and  C_28
REMARK                            x       y       z     vdW  Elec       q    Type
REMARK                         _______ _______ _______ _____ _____    ______ ____
ROOT
ATOM      1  C   UNL     1       3.509   6.608  18.044  0.00  0.00    +0.000 A 
ATOM      2  C   UNL     1       3.190   7.940  17.830  0.00  0.00    +0.000 A 
ATOM      3  C   UNL     1       2.174   8.284  18.742  0.00  0.00    +0.000 A 
ATOM      4  N   UNL     1       1.929   7.270  19.587  0.00  0.00    +0.000 NA
ATOM      5  N   UNL     1       2.663   6.212  19.095  0.00  0.00    +0.000 N 
ENDROOT
BRANCH   5   6
ATOM      6  C   UNL     1       2.504   4.928  19.708  0.00  0.00    +0.000 A 
ATOM      7  C   UNL     1       3.603   4.208  20.198  0.00  0.00    +0.000 A 
ATOM      8  C   UNL     1       3.407   3.129  21.061  0.00  0.00    +0.000 A 
ATOM      9  C   UNL     1       2.116   2.716  21.356  0.00  0.00    +0.000 A 
ATOM     10  F   UNL     1       1.928   1.727  22.240  0.00  0.00    +0.000 F 
ATOM     11  C   UNL     1       1.019   3.326  20.761  0.00  0.00    +0.000 A 
ATOM     12  C   UNL     1       1.209   4.431  19.925  0.00  0.00    +0.000 A 
ENDBRANCH   5   6
BRANCH   1  18
ATOM     13  C   UNL     1       4.140   4.539  16.754  0.00  0.00    +0.000 A 
ATOM     14  C   UNL     1       5.088   3.726  16.118  0.00  0.00    +0.000 A 
ATOM     15  C   UNL     1       6.424   4.098  16.079  0.00  0.00    +0.000 A 
ATOM     16  C   UNL     1       6.812   5.332  16.589  0.00  0.00    +0.000 A 
ATOM     17  C   UNL     1       5.868   6.209  17.145  0.00  0.00    +0.000 A 
ATOM     18  C   UNL     1       4.518   5.795  17.303  0.00  0.00    +0.000 A 
BRANCH  13  20
ATOM     19  C   UNL     1       2.553   2.790  17.054  0.00  0.00    +0.000 C 
ATOM     20  O   UNL     1       2.817   4.173  16.844  0.00  0.00    +0.000 OA
ENDBRANCH  13  20
BRANCH  17  21
ATOM     21  O   UNL     1       6.195   7.476  17.567  0.00  0.00    +0.000 OA
ATOM     22  C   UNL     1       7.577   7.830  17.579  0.00  0.00    +0.000 C 
ENDBRANCH  17  21
ENDBRANCH   1  18
BRANCH   3  23
ATOM     23  C   UNL     1       1.474   9.580  18.789  0.00  0.00    +0.000 C 
ATOM     24  O   UNL     1       1.869  10.543  18.143  0.00  0.00    +0.000 OA
ATOM     25  N   UNL     1       0.397   9.634  19.671  0.00  0.00    +0.000 N 
ATOM     26  H   UNL     1       0.335   8.857  20.331  0.00  0.00    +0.000 HD
BRANCH  25  27
ATOM     27  C   UNL     1      -0.443  10.766  19.808  0.00  0.00    +0.000 A 
ATOM     28  C   UNL     1      -0.183  11.710  20.814  0.00  0.00    +0.000 A 
ATOM     29  C   UNL     1      -0.978  12.852  20.954  0.00  0.00    +0.000 A 
ATOM     30  C   UNL     1      -2.054  13.060  20.098  0.00  0.00    +0.000 A 
ATOM     31  C   UNL     1      -2.326  12.137  19.092  0.00  0.00    +0.000 A 
ATOM     32  C   UNL     1      -1.523  10.993  18.938  0.00  0.00    +0.000 A 
BRANCH  32  33
ATOM     33  C   UNL     1      -1.935  10.033  17.889  0.00  0.00    +0.000 C 
ATOM     34  O   UNL     1      -3.014   9.465  17.894  0.00  0.00    +0.000 OA
BRANCH  33  35
ATOM     35  O   UNL     1      -0.977   9.788  16.971  0.00  0.00    +0.000 OA
ATOM     36  H   UNL     1      -0.361   9.071  17.225  0.00  0.00    +0.000 HD
ENDBRANCH  33  35
ENDBRANCH  32  33
ENDBRANCH  25  27
ENDBRANCH   3  23
TORSDOF 8
ENDMDL
MODEL 7
REMARK VINA RESULT:      -7.9      3.744      9.593
REMARK  Name = 
REMARK  10 active torsions:
REMARK  status: ('A' for Active; 'I' for Inactive)
REMARK    1  A    between atoms: C_1  and  O_2
REMARK    2  A    between atoms: O_2  and  C_3
REMARK    3  A    between atoms: C_7  and  O_8
REMARK    4  A    between atoms: O_8  and  C_9
REMARK    5  A    between atoms: C_10  and  C_11
REMARK    6  A    between atoms: C_13  and  C_14
REMARK    7  A    between atoms: N_16  and  C_17
REMARK    8  A    between atoms: C_22  and  C_23
REMARK    9  A    between atoms: C_23  and  O_25
REMARK   10  A    between atoms: N_27  and  C_28
REMARK                            x       y       z     vdW  Elec       q    Type
REMARK                         _______ _______ _______ _____ _____    ______ ____
ROOT
ATOM      1  C   UNL     1      -0.264  11.393  20.184  0.00  0.00    +0.000 A 
ATOM      2  C   UNL     1       0.057  10.111  19.765  0.00  0.00    +0.000 A 
ATOM      3  C   UNL     1       1.227  10.201  18.987  0.00  0.00    +0.000 A 
ATOM      4  N   UNL     1       1.712  11.452  18.998  0.00  0.00    +0.000 NA
ATOM      5  N   UNL     1       0.747  12.202  19.636  0.00  0.00    +0.000 N 
ENDROOT
BRANCH   5   6
ATOM      6  C   UNL     1       0.909  13.623  19.686  0.00  0.00    +0.000 A 
ATOM      7  C   UNL     1       1.963  14.217  20.395  0.00  0.00    +0.000 A 
ATOM      8  C   UNL     1       2.290  15.556  20.176  0.00  0.00    +0.000 A 
ATOM      9  C   UNL     1       1.508  16.320  19.323  0.00  0.00    +0.000 A 
ATOM     10  F   UNL     1       1.865  17.583  19.058  0.00  0.00    +0.000 F 
ATOM     11  C   UNL     1       0.372  15.786  18.727  0.00  0.00    +0.000 A 
ATOM     12  C   UNL     1       0.062  14.436  18.914  0.00  0.00    +0.000 A 
ENDBRANCH   5   6
BRANCH   1  18
ATOM     13  C   UNL     1      -2.602  12.308  20.385  0.00  0.00    +0.000 A 
ATOM     14  C   UNL     1      -3.684  12.765  21.150  0.00  0.00    +0.000 A 
ATOM     15  C   UNL     1      -3.605  12.797  22.535  0.00  0.00    +0.000 A 
ATOM     16  C   UNL     1      -2.482  12.284  23.174  0.00  0.00    +0.000 A 
ATOM     17  C   UNL     1      -1.424  11.732  22.436  0.00  0.00    +0.000 A 
ATOM     18  C   UNL     1      -1.434  11.800  21.017  0.00  0.00    +0.000 A 
BRANCH  13  20
ATOM     19  C   UNL     1      -3.642  11.500  18.402  0.00  0.00    +0.000 C 
ATOM     20  O   UNL     1      -2.639  12.306  19.010  0.00  0.00    +0.000 OA
ENDBRANCH  13  20
BRANCH  17  21
ATOM     21  O   UNL     1      -0.344  11.124  23.033  0.00  0.00    +0.000 OA
ATOM     22  C   UNL     1      -0.451   9.732  23.325  0.00  0.00    +0.000 C 
ENDBRANCH  17  21
ENDBRANCH   1  18
BRANCH   3  23
ATOM     23  C   UNL     1       1.857   9.082  18.263  0.00  0.00    +0.000 C 
ATOM     24  O   UNL     1       1.964   9.089  17.044  0.00  0.00    +0.000 OA
ATOM     25  N   UNL     1       2.238   8.007  19.064  0.00  0.00    +0.000 N 
ATOM     26  H   UNL     1       1.863   8.016  20.013  0.00  0.00    +0.000 HD
BRANCH  25  27
ATOM     27  C   UNL     1       2.921   6.869  18.567  0.00  0.00    +0.000 A 
ATOM     28  C   UNL     1       3.807   7.004  17.487  0.00  0.00    +0.000 A 
ATOM     29  C   UNL     1       4.516   5.904  16.995  0.00  0.00    +0.000 A 
ATOM     30  C   UNL     1       4.338   4.648  17.566  0.00  0.00    +0.000 A 
ATOM     31  C   UNL     1       3.465   4.495  18.639  0.00  0.00    +0.000 A 
ATOM     32  C   UNL     1       2.759   5.600  19.148  0.00  0.00    +0.000 A 
BRANCH  32  33
ATOM     33  C   UNL     1       1.799   5.324  20.241  0.00  0.00    +0.000 C 
ATOM     34  O   UNL     1       1.023   4.384  20.223  0.00  0.00    +0.000 OA
BRANCH  33  35
ATOM     35  O   UNL     1       1.808   6.254  21.219  0.00  0.00    +0.000 OA
ATOM     36  H   UNL     1       1.829   7.175  20.889  0.00  0.00    +0.000 HD
ENDBRANCH  33  35
ENDBRANCH  32  33
ENDBRANCH  25  27
ENDBRANCH   3  23
TORSDOF 8
ENDMDL
MODEL 8
REMARK VINA RESULT:      -7.9      3.008      8.964
REMARK  Name = 
REMARK  10 active torsions:
REMARK  status: ('A' for Active; 'I' for Inactive)
REMARK    1  A    between atoms: C_1  and  O_2
REMARK    2  A    between atoms: O_2  and  C_3
REMARK    3  A    between atoms: C_7  and  O_8
REMARK    4  A    between atoms: O_8  and  C_9
REMARK    5  A    between atoms: C_10  and  C_11
REMARK    6  A    between atoms: C_13  and  C_14
REMARK    7  A    between atoms: N_16  and  C_17
REMARK    8  A    between atoms: C_22  and  C_23
REMARK    9  A    between atoms: C_23  and  O_25
REMARK   10  A    between atoms: N_27  and  C_28
REMARK                            x       y       z     vdW  Elec       q    Type
REMARK                         _______ _______ _______ _____ _____    ______ ____
ROOT
ATOM      1  C   UNL     1       0.425  10.649  19.721  0.00  0.00    +0.000 A 
ATOM      2  C   UNL     1       1.562   9.855  19.731  0.00  0.00    +0.000 A 
ATOM      3  C   UNL     1       1.500   9.015  18.602  0.00  0.00    +0.000 A 
ATOM      4  N   UNL     1       0.446   9.326  17.834  0.00  0.00    +0.000 NA
ATOM      5  N   UNL     1      -0.270  10.247  18.568  0.00  0.00    +0.000 N 
ENDROOT
BRANCH   5   6
ATOM      6  C   UNL     1      -1.542  10.676  18.070  0.00  0.00    +0.000 A 
ATOM      7  C   UNL     1      -2.071  10.169  16.875  0.00  0.00    +0.000 A 
ATOM      8  C   UNL     1      -3.421  10.351  16.572  0.00  0.00    +0.000 A 
ATOM      9  C   UNL     1      -4.214  11.115  17.415  0.00  0.00    +0.000 A 
ATOM     10  F   UNL     1      -5.524  11.228  17.162  0.00  0.00    +0.000 F 
ATOM     11  C   UNL     1      -3.670  11.748  18.526  0.00  0.00    +0.000 A 
ATOM     12  C   UNL     1      -2.327  11.538  18.854  0.00  0.00    +0.000 A 
ENDBRANCH   5   6
BRANCH   1  18
ATOM     13  C   UNL     1      -0.605  11.282  21.930  0.00  0.00    +0.000 A 
ATOM     14  C   UNL     1      -1.041  12.239  22.857  0.00  0.00    +0.000 A 
ATOM     15  C   UNL     1      -0.913  13.594  22.584  0.00  0.00    +0.000 A 
ATOM     16  C   UNL     1      -0.264  14.006  21.426  0.00  0.00    +0.000 A 
ATOM     17  C   UNL     1       0.268  13.069  20.527  0.00  0.00    +0.000 A 
ATOM     18  C   UNL     1       0.041  11.681  20.729  0.00  0.00    +0.000 A 
BRANCH  13  20
ATOM     19  C   UNL     1      -0.050   9.392  23.267  0.00  0.00    +0.000 C 
ATOM     20  O   UNL     1      -0.759   9.934  22.158  0.00  0.00    +0.000 OA
ENDBRANCH  13  20
BRANCH  17  21
ATOM     21  O   UNL     1       1.004  13.437  19.425  0.00  0.00    +0.000 OA
ATOM     22  C   UNL     1       2.368  13.798  19.635  0.00  0.00    +0.000 C 
ENDBRANCH  17  21
ENDBRANCH   1  18
BRANCH   3  23
ATOM     23  C   UNL     1       2.462   7.943  18.284  0.00  0.00    +0.000 C 
ATOM     24  O   UNL     1       3.143   7.979  17.267  0.00  0.00    +0.000 OA
ATOM     25  N   UNL     1       2.469   6.877  19.181  0.00  0.00    +0.000 N 
ATOM     26  H   UNL     1       1.683   6.848  19.830  0.00  0.00    +0.000 HD
BRANCH  25  27
ATOM     27  C   UNL     1       3.369   5.787  19.086  0.00  0.00    +0.000 A 
ATOM     28  C   UNL     1       4.749   6.007  19.218  0.00  0.00    +0.000 A 
ATOM     29  C   UNL     1       5.657   4.946  19.158  0.00  0.00    +0.000 A 
ATOM     30  C   UNL     1       5.201   3.649  18.951  0.00  0.00    +0.000 A 
ATOM     31  C   UNL     1       3.836   3.409  18.821  0.00  0.00    +0.000 A 
ATOM     32  C   UNL     1       2.915   4.471  18.893  0.00  0.00    +0.000 A 
BRANCH  32  33
ATOM     33  C   UNL     1       1.492   4.127  18.668  0.00  0.00    +0.000 C 
ATOM     34  O   UNL     1       1.011   3.980  17.558  0.00  0.00    +0.000 OA
BRANCH  33  35
ATOM     35  O   UNL     1       0.763   4.070  19.802  0.00  0.00    +0.000 OA
ATOM     36  H   UNL     1      -0.081   4.563  19.755  0.00  0.00    +0.000 HD
ENDBRANCH  33  35
ENDBRANCH  32  33
ENDBRANCH  25  27
ENDBRANCH   3  23
TORSDOF 8
ENDMDL
MODEL 9
REMARK VINA RESULT:      -7.8      3.117      8.834
REMARK  Name = 
REMARK  10 active torsions:
REMARK  status: ('A' for Active; 'I' for Inactive)
REMARK    1  A    between atoms: C_1  and  O_2
REMARK    2  A    between atoms: O_2  and  C_3
REMARK    3  A    between atoms: C_7  and  O_8
REMARK    4  A    between atoms: O_8  and  C_9
REMARK    5  A    between atoms: C_10  and  C_11
REMARK    6  A    between atoms: C_13  and  C_14
REMARK    7  A    between atoms: N_16  and  C_17
REMARK    8  A    between atoms: C_22  and  C_23
REMARK    9  A    between atoms: C_23  and  O_25
REMARK   10  A    between atoms: N_27  and  C_28
REMARK                            x       y       z     vdW  Elec       q    Type
REMARK                         _______ _______ _______ _____ _____    ______ ____
ROOT
ATOM      1  C   UNL     1       0.500  10.742  19.236  0.00  0.00    +0.000 A 
ATOM      2  C   UNL     1       1.676  10.008  19.214  0.00  0.00    +0.000 A 
ATOM      3  C   UNL     1       1.515   8.979  18.266  0.00  0.00    +0.000 A 
ATOM      4  N   UNL     1       0.347   9.107  17.618  0.00  0.00    +0.000 NA
ATOM      5  N   UNL     1      -0.320  10.114  18.282  0.00  0.00    +0.000 N 
ENDROOT
BRANCH   5   6
ATOM      6  C   UNL     1      -1.673  10.398  17.910  0.00  0.00    +0.000 A 
ATOM      7  C   UNL     1      -2.517  11.154  18.735  0.00  0.00    +0.000 A 
ATOM      8  C   UNL     1      -3.705  11.683  18.227  0.00  0.00    +0.000 A 
ATOM      9  C   UNL     1      -4.089  11.378  16.930  0.00  0.00    +0.000 A 
ATOM     10  F   UNL     1      -5.191  11.944  16.420  0.00  0.00    +0.000 F 
ATOM     11  C   UNL     1      -3.338  10.509  16.149  0.00  0.00    +0.000 A 
ATOM     12  C   UNL     1      -2.129  10.006  16.640  0.00  0.00    +0.000 A 
ENDBRANCH   5   6
BRANCH   1  18
ATOM     13  C   UNL     1       0.503  13.228  19.638  0.00  0.00    +0.000 A 
ATOM     14  C   UNL     1       0.291  14.343  20.460  0.00  0.00    +0.000 A 
ATOM     15  C   UNL     1      -0.157  14.182  21.764  0.00  0.00    +0.000 A 
ATOM     16  C   UNL     1      -0.489  12.915  22.228  0.00  0.00    +0.000 A 
ATOM     17  C   UNL     1      -0.378  11.792  21.395  0.00  0.00    +0.000 A 
ATOM     18  C   UNL     1       0.192  11.920  20.099  0.00  0.00    +0.000 A 
BRANCH  13  20
ATOM     19  C   UNL     1       2.350  13.747  18.228  0.00  0.00    +0.000 C 
ATOM     20  O   UNL     1       0.987  13.357  18.356  0.00  0.00    +0.000 OA
ENDBRANCH  13  20
BRANCH  17  21
ATOM     21  O   UNL     1      -0.792  10.539  21.783  0.00  0.00    +0.000 OA
ATOM     22  C   UNL     1      -0.762  10.238  23.177  0.00  0.00    +0.000 C 
ENDBRANCH  17  21
ENDBRANCH   1  18
BRANCH   3  23
ATOM     23  C   UNL     1       2.492   7.908  17.997  0.00  0.00    +0.000 C 
ATOM     24  O   UNL     1       3.233   7.950  17.024  0.00  0.00    +0.000 OA
ATOM     25  N   UNL     1       2.441   6.833  18.881  0.00  0.00    +0.000 N 
ATOM     26  H   UNL     1       1.616   6.801  19.482  0.00  0.00    +0.000 HD
BRANCH  25  27
ATOM     27  C   UNL     1       3.341   5.740  18.832  0.00  0.00    +0.000 A 
ATOM     28  C   UNL     1       4.709   5.953  19.064  0.00  0.00    +0.000 A 
ATOM     29  C   UNL     1       5.616   4.889  19.050  0.00  0.00    +0.000 A 
ATOM     30  C   UNL     1       5.172   3.597  18.788  0.00  0.00    +0.000 A 
ATOM     31  C   UNL     1       3.818   3.366  18.558  0.00  0.00    +0.000 A 
ATOM     32  C   UNL     1       2.899   4.430  18.584  0.00  0.00    +0.000 A 
BRANCH  32  33
ATOM     33  C   UNL     1       1.494   4.097  18.253  0.00  0.00    +0.000 C 
ATOM     34  O   UNL     1       0.949   4.457  17.223  0.00  0.00    +0.000 OA
BRANCH  33  35
ATOM     35  O   UNL     1       0.852   3.425  19.231  0.00  0.00    +0.000 OA
ATOM     36  H   UNL     1      -0.050   3.136  18.987  0.00  0.00    +0.000 HD
ENDBRANCH  33  35
ENDBRANCH  32  33
ENDBRANCH  25  27
ENDBRANCH   3  23
TORSDOF 8
ENDMDL
