MODEL 1
REMARK VINA RESULT:      -8.4      0.000      0.000
REMARK  Name = 
REMARK  6 active torsions:
REMARK  status: ('A' for Active; 'I' for Inactive)
REMARK    1  A    between atoms: C_1  and  C_2
REMARK    2  A    between atoms: C_6  and  C_7
REMARK    3  A    between atoms: N_9  and  C_10
REMARK    4  A    between atoms: C_10  and  C_11
REMARK    5  A    between atoms: C_10  and  C_12
REMARK    6  A    between atoms: C_14  and  C_15
REMARK                            x       y       z     vdW  Elec       q    Type
REMARK                         _______ _______ _______ _____ _____    ______ ____
ROOT
ATOM      1  C   UNL     1       3.106   6.215  18.791  0.00  0.00    +0.000 C 
ATOM      2  O   UNL     1       2.760   5.463  17.883  0.00  0.00    +0.000 OA
ATOM      3  N   UNL     1       4.273   6.017  19.500  0.00  0.00    +0.000 N 
ATOM      4  H   UNL     1       4.620   6.716  20.140  0.00  0.00    +0.000 HD
ENDROOT
BRANCH   1  10
ATOM      5  C   UNL     1      -0.915  10.939  22.833  0.00  0.00    +0.000 C 
ATOM      6  C   UNL     1      -0.146  10.130  21.859  0.00  0.00    +0.000 A 
ATOM      7  C   UNL     1       0.462   8.901  22.021  0.00  0.00    +0.000 A 
ATOM      8  N   UNL     1       1.045   8.606  20.811  0.00  0.00    +0.000 N 
ATOM      9  C   UNL     1       1.789   7.492  20.419  0.00  0.00    +0.000 A 
ATOM     10  C   UNL     1       2.273   7.416  19.157  0.00  0.00    +0.000 A 
ATOM     11  C   UNL     1       2.014   8.544  18.258  0.00  0.00    +0.000 A 
ATOM     12  C   UNL     1       1.287   9.612  18.649  0.00  0.00    +0.000 A 
ATOM     13  C   UNL     1       0.763   9.673  19.968  0.00  0.00    +0.000 A 
ATOM     14  N   UNL     1       0.048  10.593  20.577  0.00  0.00    +0.000 NA
ENDBRANCH   1  10
BRANCH   3  15
ATOM     15  C   UNL     1       5.173   4.915  19.157  0.00  0.00    +0.000 C 
ATOM     16  C   UNL     1       4.455   3.567  19.245  0.00  0.00    +0.000 C 
BRANCH  15  17
ATOM     17  C   UNL     1       5.773   5.090  17.794  0.00  0.00    +0.000 A 
ATOM     18  N   UNL     1       5.513   4.524  16.629  0.00  0.00    +0.000 NA
ATOM     19  C   UNL     1       6.497   5.060  15.807  0.00  0.00    +0.000 A 
ATOM     20  N   UNL     1       7.311   5.922  16.439  0.00  0.00    +0.000 NA
ATOM     21  O   UNL     1       6.838   5.941  17.741  0.00  0.00    +0.000 OA
BRANCH  19  22
ATOM     22  C   UNL     1       6.666   4.701  14.400  0.00  0.00    +0.000 A 
ATOM     23  C   UNL     1       5.874   3.715  13.810  0.00  0.00    +0.000 A 
ATOM     24  C   UNL     1       6.097   3.392  12.479  0.00  0.00    +0.000 A 
ATOM     25  N   UNL     1       7.038   3.978  11.708  0.00  0.00    +0.000 NA
ATOM     26  C   UNL     1       7.789   4.934  12.289  0.00  0.00    +0.000 A 
ATOM     27  C   UNL     1       7.641   5.327  13.610  0.00  0.00    +0.000 A 
ENDBRANCH  19  22
ENDBRANCH  15  17
ENDBRANCH   3  15
TORSDOF 4
ENDMDL
MODEL 2
REMARK VINA RESULT:      -8.3      3.912      5.987
REMARK  Name = 
REMARK  6 active torsions:
REMARK  status: ('A' for Active; 'I' for Inactive)
REMARK    1  A    between atoms: C_1  and  C_2
REMARK    2  A    between atoms: C_6  and  C_7
REMARK    3  A    between atoms: N_9  and  C_10
REMARK    4  A    between atoms: C_10  and  C_11
REMARK    5  A    between atoms: C_10  and  C_12
REMARK    6  A    between atoms: C_14  and  C_15
REMARK                            x       y       z     vdW  Elec       q    Type
REMARK                         _______ _______ _______ _____ _____    ______ ____
ROOT
ATOM      1  C   UNL     1      -0.372  10.346  18.901  0.00  0.00    +0.000 C 
ATOM      2  O   UNL     1       0.657  10.790  18.395  0.00  0.00    +0.000 OA
ATOM      3  N   UNL     1      -0.352   9.589  20.054  0.00  0.00    +0.000 N 
ATOM      4  H   UNL     1      -1.206   9.354  20.539  0.00  0.00    +0.000 HD
ENDROOT
BRANCH   1  10
ATOM      5  C   UNL     1      -7.219  13.039  18.074  0.00  0.00    +0.000 C 
ATOM      6  C   UNL     1      -5.879  12.409  18.045  0.00  0.00    +0.000 A 
ATOM      7  C   UNL     1      -4.895  12.385  19.014  0.00  0.00    +0.000 A 
ATOM      8  N   UNL     1      -3.849  11.676  18.473  0.00  0.00    +0.000 N 
ATOM      9  C   UNL     1      -2.605  11.352  19.017  0.00  0.00    +0.000 A 
ATOM     10  C   UNL     1      -1.718  10.634  18.289  0.00  0.00    +0.000 A 
ATOM     11  C   UNL     1      -2.104  10.253  16.927  0.00  0.00    +0.000 A 
ATOM     12  C   UNL     1      -3.313  10.567  16.417  0.00  0.00    +0.000 A 
ATOM     13  C   UNL     1      -4.247  11.300  17.197  0.00  0.00    +0.000 A 
ATOM     14  N   UNL     1      -5.460  11.727  16.924  0.00  0.00    +0.000 NA
ENDBRANCH   1  10
BRANCH   3  15
ATOM     15  C   UNL     1       0.909   9.327  20.749  0.00  0.00    +0.000 C 
ATOM     16  C   UNL     1       0.698   9.235  22.261  0.00  0.00    +0.000 C 
BRANCH  15  17
ATOM     17  C   UNL     1       1.573   8.080  20.246  0.00  0.00    +0.000 A 
ATOM     18  N   UNL     1       2.283   7.827  19.161  0.00  0.00    +0.000 NA
ATOM     19  C   UNL     1       2.505   6.459  19.259  0.00  0.00    +0.000 A 
ATOM     20  N   UNL     1       1.967   5.906  20.359  0.00  0.00    +0.000 NA
ATOM     21  O   UNL     1       1.354   6.967  21.005  0.00  0.00    +0.000 OA
BRANCH  19  22
ATOM     22  C   UNL     1       3.221   5.677  18.252  0.00  0.00    +0.000 A 
ATOM     23  C   UNL     1       2.890   4.343  18.010  0.00  0.00    +0.000 A 
ATOM     24  C   UNL     1       3.622   3.638  17.066  0.00  0.00    +0.000 A 
ATOM     25  N   UNL     1       4.642   4.163  16.355  0.00  0.00    +0.000 NA
ATOM     26  C   UNL     1       4.945   5.455  16.593  0.00  0.00    +0.000 A 
ATOM     27  C   UNL     1       4.272   6.241  17.515  0.00  0.00    +0.000 A 
ENDBRANCH  19  22
ENDBRANCH  15  17
ENDBRANCH   3  15
TORSDOF 4
ENDMDL
MODEL 3
REMARK VINA RESULT:      -8.3      3.486     10.455
REMARK  Name = 
REMARK  6 active torsions:
REMARK  status: ('A' for Active; 'I' for Inactive)
REMARK    1  A    between atoms: C_1  and  C_2
REMARK    2  A    between atoms: C_6  and  C_7
REMARK    3  A    between atoms: N_9  and  C_10
REMARK    4  A    between atoms: C_10  and  C_11
REMARK    5  A    between atoms: C_10  and  C_12
REMARK    6  A    between atoms: C_14  and  C_15
REMARK                            x       y       z     vdW  Elec       q    Type
REMARK                         _______ _______ _______ _____ _____    ______ ____
ROOT
ATOM      1  C   UNL     1       1.967   9.075  18.174  0.00  0.00    +0.000 C 
ATOM      2  O   UNL     1       2.214   9.891  17.290  0.00  0.00    +0.000 OA
ATOM      3  N   UNL     1       0.966   9.282  19.101  0.00  0.00    +0.000 N 
ATOM      4  H   UNL     1       0.675   8.547  19.729  0.00  0.00    +0.000 HD
ENDROOT
BRANCH   1  10
ATOM      5  C   UNL     1       3.993   2.316  20.417  0.00  0.00    +0.000 C 
ATOM      6  C   UNL     1       3.756   3.656  19.831  0.00  0.00    +0.000 A 
ATOM      7  C   UNL     1       2.825   4.616  20.176  0.00  0.00    +0.000 A 
ATOM      8  N   UNL     1       3.027   5.666  19.312  0.00  0.00    +0.000 N 
ATOM      9  C   UNL     1       2.364   6.890  19.214  0.00  0.00    +0.000 A 
ATOM     10  C   UNL     1       2.739   7.786  18.271  0.00  0.00    +0.000 A 
ATOM     11  C   UNL     1       3.823   7.403  17.361  0.00  0.00    +0.000 A 
ATOM     12  C   UNL     1       4.460   6.218  17.472  0.00  0.00    +0.000 A 
ATOM     13  C   UNL     1       4.075   5.295  18.481  0.00  0.00    +0.000 A 
ATOM     14  N   UNL     1       4.526   4.096  18.778  0.00  0.00    +0.000 NA
ENDBRANCH   1  10
BRANCH   3  15
ATOM     15  C   UNL     1       0.123  10.476  19.030  0.00  0.00    +0.000 C 
ATOM     16  C   UNL     1      -1.094  10.242  18.132  0.00  0.00    +0.000 C 
BRANCH  15  17
ATOM     17  C   UNL     1      -0.320  10.927  20.389  0.00  0.00    +0.000 A 
ATOM     18  N   UNL     1      -1.257  11.770  20.785  0.00  0.00    +0.000 NA
ATOM     19  C   UNL     1      -1.069  11.805  22.161  0.00  0.00    +0.000 A 
ATOM     20  N   UNL     1      -0.072  11.010  22.586  0.00  0.00    +0.000 NA
ATOM     21  O   UNL     1       0.420  10.436  21.425  0.00  0.00    +0.000 OA
BRANCH  19  22
ATOM     22  C   UNL     1      -1.847  12.648  23.067  0.00  0.00    +0.000 A 
ATOM     23  C   UNL     1      -1.345  13.869  23.522  0.00  0.00    +0.000 A 
ATOM     24  C   UNL     1      -2.112  14.615  24.405  0.00  0.00    +0.000 A 
ATOM     25  N   UNL     1      -3.326  14.235  24.857  0.00  0.00    +0.000 NA
ATOM     26  C   UNL     1      -3.802  13.059  24.403  0.00  0.00    +0.000 A 
ATOM     27  C   UNL     1      -3.112  12.244  23.519  0.00  0.00    +0.000 A 
ENDBRANCH  19  22
ENDBRANCH  15  17
ENDBRANCH   3  15
TORSDOF 4
ENDMDL
MODEL 4
REMARK VINA RESULT:      -8.2      3.709      9.967
REMARK  Name = 
REMARK  6 active torsions:
REMARK  status: ('A' for Active; 'I' for Inactive)
REMARK    1  A    between atoms: C_1  and  C_2
REMARK    2  A    between atoms: C_6  and  C_7
REMARK    3  A    between atoms: N_9  and  C_10
REMARK    4  A    between atoms: C_10  and  C_11
REMARK    5  A    between atoms: C_10  and  C_12
REMARK    6  A    between atoms: C_14  and  C_15
REMARK                            x       y       z     vdW  Elec       q    Type
REMARK                         _______ _______ _______ _____ _____    ______ ____
ROOT
ATOM      1  C   UNL     1       1.974   8.144  19.109  0.00  0.00    +0.000 C 
ATOM      2  O   UNL     1       1.820   8.152  20.329  0.00  0.00    +0.000 OA
ATOM      3  N   UNL     1       1.572   9.198  18.315  0.00  0.00    +0.000 N 
ATOM      4  H   UNL     1       1.833   9.247  17.341  0.00  0.00    +0.000 HD
ENDROOT
BRANCH   1  10
ATOM      5  C   UNL     1       6.703   4.320  14.887  0.00  0.00    +0.000 C 
ATOM      6  C   UNL     1       5.665   4.893  15.774  0.00  0.00    +0.000 A 
ATOM      7  C   UNL     1       5.396   6.214  16.077  0.00  0.00    +0.000 A 
ATOM      8  N   UNL     1       4.339   6.192  16.957  0.00  0.00    +0.000 N 
ATOM      9  C   UNL     1       3.668   7.243  17.582  0.00  0.00    +0.000 A 
ATOM     10  C   UNL     1       2.641   6.981  18.424  0.00  0.00    +0.000 A 
ATOM     11  C   UNL     1       2.300   5.575  18.666  0.00  0.00    +0.000 A 
ATOM     12  C   UNL     1       2.954   4.569  18.049  0.00  0.00    +0.000 A 
ATOM     13  C   UNL     1       4.015   4.855  17.148  0.00  0.00    +0.000 A 
ATOM     14  N   UNL     1       4.796   4.063  16.446  0.00  0.00    +0.000 NA
ENDBRANCH   1  10
BRANCH   3  15
ATOM     15  C   UNL     1       0.983  10.397  18.914  0.00  0.00    +0.000 C 
ATOM     16  C   UNL     1       1.823  11.638  18.607  0.00  0.00    +0.000 C 
BRANCH  15  17
ATOM     17  C   UNL     1      -0.431  10.608  18.460  0.00  0.00    +0.000 A 
ATOM     18  N   UNL     1      -1.384  11.424  18.873  0.00  0.00    +0.000 NA
ATOM     19  C   UNL     1      -2.470  11.036  18.098  0.00  0.00    +0.000 A 
ATOM     20  N   UNL     1      -2.188  10.037  17.243  0.00  0.00    +0.000 NA
ATOM     21  O   UNL     1      -0.853   9.755  17.482  0.00  0.00    +0.000 OA
BRANCH  19  22
ATOM     22  C   UNL     1      -3.804  11.620  18.215  0.00  0.00    +0.000 A 
ATOM     23  C   UNL     1      -4.692  11.606  17.139  0.00  0.00    +0.000 A 
ATOM     24  C   UNL     1      -5.935  12.202  17.294  0.00  0.00    +0.000 A 
ATOM     25  N   UNL     1      -6.348  12.799  18.432  0.00  0.00    +0.000 NA
ATOM     26  C   UNL     1      -5.484  12.798  19.466  0.00  0.00    +0.000 A 
ATOM     27  C   UNL     1      -4.222  12.228  19.408  0.00  0.00    +0.000 A 
ENDBRANCH  19  22
ENDBRANCH  15  17
ENDBRANCH   3  15
TORSDOF 4
ENDMDL
MODEL 5
REMARK VINA RESULT:      -8.2      1.169      2.016
REMARK  Name = 
REMARK  6 active torsions:
REMARK  status: ('A' for Active; 'I' for Inactive)
REMARK    1  A    between atoms: C_1  and  C_2
REMARK    2  A    between atoms: C_6  and  C_7
REMARK    3  A    between atoms: N_9  and  C_10
REMARK    4  A    between atoms: C_10  and  C_11
REMARK    5  A    between atoms: C_10  and  C_12
REMARK    6  A    between atoms: C_14  and  C_15
REMARK                            x       y       z     vdW  Elec       q    Type
REMARK                         _______ _______ _______ _____ _____    ______ ____
ROOT
ATOM      1  C   UNL     1       2.958   5.651  19.120  0.00  0.00    +0.000 C 
ATOM      2  O   UNL     1       2.439   4.924  18.276  0.00  0.00    +0.000 OA
ATOM      3  N   UNL     1       4.159   5.332  19.719  0.00  0.00    +0.000 N 
ATOM      4  H   UNL     1       4.647   5.999  20.299  0.00  0.00    +0.000 HD
ENDROOT
BRANCH   1  10
ATOM      5  C   UNL     1       0.379  12.578  18.699  0.00  0.00    +0.000 C 
ATOM      6  C   UNL     1       0.824  11.195  18.988  0.00  0.00    +0.000 A 
ATOM      7  C   UNL     1       1.529  10.312  18.194  0.00  0.00    +0.000 A 
ATOM      8  N   UNL     1       1.670   9.164  18.938  0.00  0.00    +0.000 N 
ATOM      9  C   UNL     1       2.295   7.957  18.620  0.00  0.00    +0.000 A 
ATOM     10  C   UNL     1       2.310   6.949  19.523  0.00  0.00    +0.000 A 
ATOM     11  C   UNL     1       1.627   7.168  20.802  0.00  0.00    +0.000 A 
ATOM     12  C   UNL     1       1.033   8.343  21.098  0.00  0.00    +0.000 A 
ATOM     13  C   UNL     1       1.043   9.405  20.153  0.00  0.00    +0.000 A 
ATOM     14  N   UNL     1       0.534  10.615  20.203  0.00  0.00    +0.000 NA
ENDBRANCH   1  10
BRANCH   3  15
ATOM     15  C   UNL     1       4.888   4.124  19.329  0.00  0.00    +0.000 C 
ATOM     16  C   UNL     1       3.938   2.938  19.154  0.00  0.00    +0.000 C 
BRANCH  15  17
ATOM     17  C   UNL     1       5.684   4.335  18.076  0.00  0.00    +0.000 A 
ATOM     18  N   UNL     1       5.366   4.252  16.796  0.00  0.00    +0.000 NA
ATOM     19  C   UNL     1       6.586   4.466  16.168  0.00  0.00    +0.000 A 
ATOM     20  N   UNL     1       7.600   4.681  17.025  0.00  0.00    +0.000 NA
ATOM     21  O   UNL     1       7.009   4.593  18.275  0.00  0.00    +0.000 OA
BRANCH  19  22
ATOM     22  C   UNL     1       6.774   4.426  14.719  0.00  0.00    +0.000 A 
ATOM     23  C   UNL     1       7.711   5.249  14.093  0.00  0.00    +0.000 A 
ATOM     24  C   UNL     1       7.827   5.193  12.711  0.00  0.00    +0.000 A 
ATOM     25  N   UNL     1       7.087   4.384  11.925  0.00  0.00    +0.000 NA
ATOM     26  C   UNL     1       6.192   3.588  12.543  0.00  0.00    +0.000 A 
ATOM     27  C   UNL     1       6.004   3.572  13.917  0.00  0.00    +0.000 A 
ENDBRANCH  19  22
ENDBRANCH  15  17
ENDBRANCH   3  15
TORSDOF 4
ENDMDL
MODEL 6
REMARK VINA RESULT:      -8.2      4.198      6.844
REMARK  Name = 
REMARK  6 active torsions:
REMARK  status: ('A' for Active; 'I' for Inactive)
REMARK    1  A    between atoms: C_1  and  C_2
REMARK    2  A    between atoms: C_6  and  C_7
REMARK    3  A    between atoms: N_9  and  C_10
REMARK    4  A    between atoms: C_10  and  C_11
REMARK    5  A    between atoms: C_10  and  C_12
REMARK    6  A    between atoms: C_14  and  C_15
REMARK                            x       y       z     vdW  Elec       q    Type
REMARK                         _______ _______ _______ _____ _____    ______ ____
ROOT
ATOM      1  C   UNL     1      -0.556  10.704  18.985  0.00  0.00    +0.000 C 
ATOM      2  O   UNL     1       0.444  11.287  18.572  0.00  0.00    +0.000 OA
ATOM      3  N   UNL     1      -0.499   9.806  20.030  0.00  0.00    +0.000 N 
ATOM      4  H   UNL     1      -1.340   9.445  20.457  0.00  0.00    +0.000 HD
ENDROOT
BRANCH   1  10
ATOM      5  C   UNL     1      -7.510  13.137  18.249  0.00  0.00    +0.000 C 
ATOM      6  C   UNL     1      -6.143  12.569  18.197  0.00  0.00    +0.000 A 
ATOM      7  C   UNL     1      -5.167  12.531  19.173  0.00  0.00    +0.000 A 
ATOM      8  N   UNL     1      -4.086  11.902  18.601  0.00  0.00    +0.000 N 
ATOM      9  C   UNL     1      -2.833  11.602  19.138  0.00  0.00    +0.000 A 
ATOM     10  C   UNL     1      -1.909  10.969  18.378  0.00  0.00    +0.000 A 
ATOM     11  C   UNL     1      -2.267  10.652  16.992  0.00  0.00    +0.000 A 
ATOM     12  C   UNL     1      -3.485  10.942  16.489  0.00  0.00    +0.000 A 
ATOM     13  C   UNL     1      -4.457  11.586  17.302  0.00  0.00    +0.000 A 
ATOM     14  N   UNL     1      -5.686  11.974  17.042  0.00  0.00    +0.000 NA
ENDBRANCH   1  10
BRANCH   3  15
ATOM     15  C   UNL     1       0.766   9.549  20.721  0.00  0.00    +0.000 C 
ATOM     16  C   UNL     1       0.569   9.506  22.238  0.00  0.00    +0.000 C 
BRANCH  15  17
ATOM     17  C   UNL     1       1.411   8.281  20.250  0.00  0.00    +0.000 A 
ATOM     18  N   UNL     1       1.538   7.089  20.806  0.00  0.00    +0.000 NA
ATOM     19  C   UNL     1       2.325   6.409  19.884  0.00  0.00    +0.000 A 
ATOM     20  N   UNL     1       2.652   7.149  18.810  0.00  0.00    +0.000 NA
ATOM     21  O   UNL     1       2.055   8.376  19.051  0.00  0.00    +0.000 OA
BRANCH  19  22
ATOM     22  C   UNL     1       2.791   5.036  20.068  0.00  0.00    +0.000 A 
ATOM     23  C   UNL     1       2.177   4.186  20.989  0.00  0.00    +0.000 A 
ATOM     24  C   UNL     1       2.679   2.902  21.146  0.00  0.00    +0.000 A 
ATOM     25  N   UNL     1       3.733   2.415  20.456  0.00  0.00    +0.000 NA
ATOM     26  C   UNL     1       4.310   3.243  19.564  0.00  0.00    +0.000 A 
ATOM     27  C   UNL     1       3.880   4.541  19.336  0.00  0.00    +0.000 A 
ENDBRANCH  19  22
ENDBRANCH  15  17
ENDBRANCH   3  15
TORSDOF 4
ENDMDL
MODEL 7
REMARK VINA RESULT:      -8.1      1.163      1.533
REMARK  Name = 
REMARK  6 active torsions:
REMARK  status: ('A' for Active; 'I' for Inactive)
REMARK    1  A    between atoms: C_1  and  C_2
REMARK    2  A    between atoms: C_6  and  C_7
REMARK    3  A    between atoms: N_9  and  C_10
REMARK    4  A    between atoms: C_10  and  C_11
REMARK    5  A    between atoms: C_10  and  C_12
REMARK    6  A    between atoms: C_14  and  C_15
REMARK                            x       y       z     vdW  Elec       q    Type
REMARK                         _______ _______ _______ _____ _____    ______ ____
ROOT
ATOM      1  C   UNL     1       3.089   6.231  19.102  0.00  0.00    +0.000 C 
ATOM      2  O   UNL     1       4.255   6.187  19.487  0.00  0.00    +0.000 OA
ATOM      3  N   UNL     1       2.492   5.168  18.457  0.00  0.00    +0.000 N 
ATOM      4  H   UNL     1       1.499   5.157  18.275  0.00  0.00    +0.000 HD
ENDROOT
BRANCH   1  10
ATOM      5  C   UNL     1      -1.129  11.208  22.602  0.00  0.00    +0.000 C 
ATOM      6  C   UNL     1      -0.311  10.338  21.726  0.00  0.00    +0.000 A 
ATOM      7  C   UNL     1       0.282   9.120  22.000  0.00  0.00    +0.000 A 
ATOM      8  N   UNL     1       0.930   8.748  20.846  0.00  0.00    +0.000 N 
ATOM      9  C   UNL     1       1.689   7.610  20.568  0.00  0.00    +0.000 A 
ATOM     10  C   UNL     1       2.243   7.453  19.343  0.00  0.00    +0.000 A 
ATOM     11  C   UNL     1       2.040   8.523  18.361  0.00  0.00    +0.000 A 
ATOM     12  C   UNL     1       1.298   9.615  18.642  0.00  0.00    +0.000 A 
ATOM     13  C   UNL     1       0.701   9.760  19.923  0.00  0.00    +0.000 A 
ATOM     14  N   UNL     1      -0.042  10.718  20.431  0.00  0.00    +0.000 NA
ENDBRANCH   1  10
BRANCH   3  15
ATOM     15  C   UNL     1       3.225   3.917  18.250  0.00  0.00    +0.000 C 
ATOM     16  C   UNL     1       2.293   2.803  17.772  0.00  0.00    +0.000 C 
BRANCH  15  17
ATOM     17  C   UNL     1       4.359   4.090  17.284  0.00  0.00    +0.000 A 
ATOM     18  N   UNL     1       4.399   4.168  15.966  0.00  0.00    +0.000 NA
ATOM     19  C   UNL     1       5.763   4.219  15.709  0.00  0.00    +0.000 A 
ATOM     20  N   UNL     1       6.520   4.186  16.819  0.00  0.00    +0.000 NA
ATOM     21  O   UNL     1       5.599   4.100  17.852  0.00  0.00    +0.000 OA
BRANCH  19  22
ATOM     22  C   UNL     1       6.337   4.266  14.365  0.00  0.00    +0.000 A 
ATOM     23  C   UNL     1       7.368   5.154  14.054  0.00  0.00    +0.000 A 
ATOM     24  C   UNL     1       7.855   5.179  12.756  0.00  0.00    +0.000 A 
ATOM     25  N   UNL     1       7.394   4.390  11.762  0.00  0.00    +0.000 NA
ATOM     26  C   UNL     1       6.405   3.531  12.078  0.00  0.00    +0.000 A 
ATOM     27  C   UNL     1       5.854   3.432  13.346  0.00  0.00    +0.000 A 
ENDBRANCH  19  22
ENDBRANCH  15  17
ENDBRANCH   3  15
TORSDOF 4
ENDMDL
MODEL 8
REMARK VINA RESULT:      -8.1      0.925      1.575
REMARK  Name = 
REMARK  6 active torsions:
REMARK  status: ('A' for Active; 'I' for Inactive)
REMARK    1  A    between atoms: C_1  and  C_2
REMARK    2  A    between atoms: C_6  and  C_7
REMARK    3  A    between atoms: N_9  and  C_10
REMARK    4  A    between atoms: C_10  and  C_11
REMARK    5  A    between atoms: C_10  and  C_12
REMARK    6  A    between atoms: C_14  and  C_15
REMARK                            x       y       z     vdW  Elec       q    Type
REMARK                         _______ _______ _______ _____ _____    ______ ____
ROOT
ATOM      1  C   UNL     1       3.007   6.107  18.968  0.00  0.00    +0.000 C 
ATOM      2  O   UNL     1       2.689   5.590  17.899  0.00  0.00    +0.000 OA
ATOM      3  N   UNL     1       4.092   5.668  19.698  0.00  0.00    +0.000 N 
ATOM      4  H   UNL     1       4.431   6.188  20.494  0.00  0.00    +0.000 HD
ENDROOT
BRANCH   1  10
ATOM      5  C   UNL     1      -0.472  12.635  19.298  0.00  0.00    +0.000 C 
ATOM      6  C   UNL     1       0.171  11.308  19.441  0.00  0.00    +0.000 A 
ATOM      7  C   UNL     1       0.916  10.587  18.529  0.00  0.00    +0.000 A 
ATOM      8  N   UNL     1       1.265   9.419  19.165  0.00  0.00    +0.000 N 
ATOM      9  C   UNL     1       2.013   8.333  18.706  0.00  0.00    +0.000 A 
ATOM     10  C   UNL     1       2.232   7.274  19.520  0.00  0.00    +0.000 A 
ATOM     11  C   UNL     1       1.633   7.308  20.859  0.00  0.00    +0.000 A 
ATOM     12  C   UNL     1       0.918   8.367  21.291  0.00  0.00    +0.000 A 
ATOM     13  C   UNL     1       0.714   9.485  20.438  0.00  0.00    +0.000 A 
ATOM     14  N   UNL     1       0.058  10.609  20.623  0.00  0.00    +0.000 NA
ENDBRANCH   1  10
BRANCH   3  15
ATOM     15  C   UNL     1       4.940   4.587  19.192  0.00  0.00    +0.000 C 
ATOM     16  C   UNL     1       4.184   3.257  19.169  0.00  0.00    +0.000 C 
BRANCH  15  17
ATOM     17  C   UNL     1       5.481   4.895  17.829  0.00  0.00    +0.000 A 
ATOM     18  N   UNL     1       5.412   4.250  16.678  0.00  0.00    +0.000 NA
ATOM     19  C   UNL     1       6.209   5.028  15.848  0.00  0.00    +0.000 A 
ATOM     20  N   UNL     1       6.730   6.105  16.460  0.00  0.00    +0.000 NA
ATOM     21  O   UNL     1       6.255   6.017  17.759  0.00  0.00    +0.000 OA
BRANCH  19  22
ATOM     22  C   UNL     1       6.494   4.700  14.452  0.00  0.00    +0.000 A 
ATOM     23  C   UNL     1       5.747   3.735  13.774  0.00  0.00    +0.000 A 
ATOM     24  C   UNL     1       6.080   3.440  12.460  0.00  0.00    +0.000 A 
ATOM     25  N   UNL     1       7.087   4.034  11.785  0.00  0.00    +0.000 NA
ATOM     26  C   UNL     1       7.793   4.969  12.449  0.00  0.00    +0.000 A 
ATOM     27  C   UNL     1       7.537   5.333  13.762  0.00  0.00    +0.000 A 
ENDBRANCH  19  22
ENDBRANCH  15  17
ENDBRANCH   3  15
TORSDOF 4
ENDMDL
MODEL 9
REMARK VINA RESULT:      -8.1      1.538      2.130
REMARK  Name = 
REMARK  6 active torsions:
REMARK  status: ('A' for Active; 'I' for Inactive)
REMARK    1  A    between atoms: C_1  and  C_2
REMARK    2  A    between atoms: C_6  and  C_7
REMARK    3  A    between atoms: N_9  and  C_10
REMARK    4  A    between atoms: C_10  and  C_11
REMARK    5  A    between atoms: C_10  and  C_12
REMARK    6  A    between atoms: C_14  and  C_15
REMARK                            x       y       z     vdW  Elec       q    Type
REMARK                         _______ _______ _______ _____ _____    ______ ____
ROOT
ATOM      1  C   UNL     1       2.317   6.077  19.996  0.00  0.00    +0.000 C 
ATOM      2  O   UNL     1       2.381   5.276  20.925  0.00  0.00    +0.000 OA
ATOM      3  N   UNL     1       2.759   5.763  18.728  0.00  0.00    +0.000 N 
ATOM      4  H   UNL     1       2.571   6.369  17.943  0.00  0.00    +0.000 HD
ENDROOT
BRANCH   1  10
ATOM      5  C   UNL     1       0.233  13.045  18.608  0.00  0.00    +0.000 C 
ATOM      6  C   UNL     1       0.563  11.681  19.083  0.00  0.00    +0.000 A 
ATOM      7  C   UNL     1       1.272  10.677  18.453  0.00  0.00    +0.000 A 
ATOM      8  N   UNL     1       1.278   9.614  19.325  0.00  0.00    +0.000 N 
ATOM      9  C   UNL     1       1.847   8.347  19.195  0.00  0.00    +0.000 A 
ATOM     10  C   UNL     1       1.723   7.446  20.198  0.00  0.00    +0.000 A 
ATOM     11  C   UNL     1       0.955   7.846  21.381  0.00  0.00    +0.000 A 
ATOM     12  C   UNL     1       0.415   9.077  21.496  0.00  0.00    +0.000 A 
ATOM     13  C   UNL     1       0.571  10.024  20.448  0.00  0.00    +0.000 A 
ATOM     14  N   UNL     1       0.138  11.259  20.322  0.00  0.00    +0.000 NA
ENDBRANCH   1  10
BRANCH   3  15
ATOM     15  C   UNL     1       3.282   4.427  18.433  0.00  0.00    +0.000 C 
ATOM     16  C   UNL     1       2.172   3.495  17.944  0.00  0.00    +0.000 C 
BRANCH  15  17
ATOM     17  C   UNL     1       4.394   4.474  17.428  0.00  0.00    +0.000 A 
ATOM     18  N   UNL     1       4.397   4.501  16.107  0.00  0.00    +0.000 NA
ATOM     19  C   UNL     1       5.753   4.435  15.809  0.00  0.00    +0.000 A 
ATOM     20  N   UNL     1       6.540   4.383  16.897  0.00  0.00    +0.000 NA
ATOM     21  O   UNL     1       5.649   4.406  17.959  0.00  0.00    +0.000 OA
BRANCH  19  22
ATOM     22  C   UNL     1       6.285   4.388  14.448  0.00  0.00    +0.000 A 
ATOM     23  C   UNL     1       5.747   3.521  13.496  0.00  0.00    +0.000 A 
ATOM     24  C   UNL     1       6.310   3.494  12.228  0.00  0.00    +0.000 A 
ATOM     25  N   UNL     1       7.354   4.261  11.850  0.00  0.00    +0.000 NA
ATOM     26  C   UNL     1       7.858   5.100  12.776  0.00  0.00    +0.000 A 
ATOM     27  C   UNL     1       7.364   5.199  14.068  0.00  0.00    +0.000 A 
ENDBRANCH  19  22
ENDBRANCH  15  17
ENDBRANCH   3  15
TORSDOF 4
ENDMDL
