MODEL 1
REMARK VINA RESULT:      -8.5      0.000      0.000
REMARK  Name = 
REMARK  7 active torsions:
REMARK  status: ('A' for Active; 'I' for Inactive)
REMARK    1  A    between atoms: C_5  and  C_6
REMARK    2  A    between atoms: C_6  and  O_7
REMARK    3  A    between atoms: C_6  and  C_23
REMARK    4  A    between atoms: O_7  and  C_8
REMARK    5  A    between atoms: C_8  and  C_9
REMARK    6  A    between atoms: C_9  and  N_10
REMARK    7  A    between atoms: N_13  and  C_14
REMARK                            x       y       z     vdW  Elec       q    Type
REMARK                         _______ _______ _______ _____ _____    ______ ____
ROOT
ATOM      1  O   UNL     1       2.948   7.502  18.245  0.00  0.00    +0.000 OA
ENDROOT
BRANCH   1   2
ATOM      2  C   UNL     1       2.931   6.107  17.822  0.00  0.00    +0.000 C 
BRANCH   2   7
ATOM      3  F   UNL     1       0.995   2.518  21.778  0.00  0.00    +0.000 F 
ATOM      4  C   UNL     1       1.397   3.399  20.853  0.00  0.00    +0.000 A 
ATOM      5  C   UNL     1       2.207   4.465  21.223  0.00  0.00    +0.000 A 
ATOM      6  C   UNL     1       2.682   5.351  20.249  0.00  0.00    +0.000 A 
ATOM      7  C   UNL     1       2.327   5.189  18.900  0.00  0.00    +0.000 A 
ATOM      8  C   UNL     1       1.419   4.156  18.579  0.00  0.00    +0.000 A 
ATOM      9  C   UNL     1       0.994   3.239  19.539  0.00  0.00    +0.000 A 
ENDBRANCH   2   7
BRANCH   2  10
ATOM     10  C   UNL     1       4.273   5.648  17.234  0.00  0.00    +0.000 A 
ATOM     11  C   UNL     1       5.411   6.473  17.271  0.00  0.00    +0.000 A 
ATOM     12  C   UNL     1       6.599   6.080  16.647  0.00  0.00    +0.000 A 
ATOM     13  C   UNL     1       6.665   4.849  16.008  0.00  0.00    +0.000 A 
ATOM     14  F   UNL     1       7.787   4.496  15.368  0.00  0.00    +0.000 F 
ATOM     15  C   UNL     1       5.580   3.978  16.026  0.00  0.00    +0.000 A 
ATOM     16  C   UNL     1       4.401   4.369  16.656  0.00  0.00    +0.000 A 
ENDBRANCH   2  10
ENDBRANCH   1   2
BRANCH   1  17
ATOM     17  C   UNL     1       1.692   8.163  18.088  0.00  0.00    +0.000 C 
BRANCH  17  18
ATOM     18  C   UNL     1       1.762   9.686  17.984  0.00  0.00    +0.000 C 
BRANCH  18  19
ATOM     19  N   UNL     1       1.420  10.274  19.295  0.00  0.00    +0.000 NA
ATOM     20  C   UNL     1       0.177   9.705  19.852  0.00  0.00    +0.000 C 
ATOM     21  C   UNL     1      -0.093  10.230  21.287  0.00  0.00    +0.000 C 
ATOM     22  N   UNL     1      -0.146  11.702  21.267  0.00  0.00    +0.000 N 
ATOM     23  C   UNL     1       1.066  12.316  20.703  0.00  0.00    +0.000 C 
ATOM     24  C   UNL     1       1.306  11.753  19.286  0.00  0.00    +0.000 C 
BRANCH  22  25
ATOM     25  C   UNL     1      -0.894  12.419  22.183  0.00  0.00    +0.000 A 
ATOM     26  C   UNL     1      -2.120  11.964  22.687  0.00  0.00    +0.000 A 
ATOM     27  C   UNL     1      -2.899  12.755  23.540  0.00  0.00    +0.000 A 
ATOM     28  C   UNL     1      -2.461  14.023  23.902  0.00  0.00    +0.000 A 
ATOM     29 CL   UNL     1      -3.436  15.015  24.913  0.00  0.00    +0.000 Cl
ATOM     30  C   UNL     1      -1.245  14.497  23.433  0.00  0.00    +0.000 A 
ATOM     31  C   UNL     1      -0.473  13.698  22.584  0.00  0.00    +0.000 A 
ENDBRANCH  22  25
ENDBRANCH  18  19
ENDBRANCH  17  18
ENDBRANCH   1  17
TORSDOF 7
ENDMDL
MODEL 2
REMARK VINA RESULT:      -8.4      0.701      1.559
REMARK  Name = 
REMARK  7 active torsions:
REMARK  status: ('A' for Active; 'I' for Inactive)
REMARK    1  A    between atoms: C_5  and  C_6
REMARK    2  A    between atoms: C_6  and  O_7
REMARK    3  A    between atoms: C_6  and  C_23
REMARK    4  A    between atoms: O_7  and  C_8
REMARK    5  A    between atoms: C_8  and  C_9
REMARK    6  A    between atoms: C_9  and  N_10
REMARK    7  A    between atoms: N_13  and  C_14
REMARK                            x       y       z     vdW  Elec       q    Type
REMARK                         _______ _______ _______ _____ _____    ______ ____
ROOT
ATOM      1  O   UNL     1       3.060   7.355  18.591  0.00  0.00    +0.000 OA
ENDROOT
BRANCH   1   2
ATOM      2  C   UNL     1       2.949   6.016  18.023  0.00  0.00    +0.000 C 
BRANCH   2   7
ATOM      3  F   UNL     1       0.818   2.480  21.924  0.00  0.00    +0.000 F 
ATOM      4  C   UNL     1       1.365   3.268  20.991  0.00  0.00    +0.000 A 
ATOM      5  C   UNL     1       0.865   3.251  19.694  0.00  0.00    +0.000 A 
ATOM      6  C   UNL     1       1.392   4.120  18.732  0.00  0.00    +0.000 A 
ATOM      7  C   UNL     1       2.442   4.995  19.057  0.00  0.00    +0.000 A 
ATOM      8  C   UNL     1       2.991   4.911  20.355  0.00  0.00    +0.000 A 
ATOM      9  C   UNL     1       2.428   4.088  21.329  0.00  0.00    +0.000 A 
ENDBRANCH   2   7
BRANCH   2  10
ATOM     10  C   UNL     1       4.199   5.600  17.235  0.00  0.00    +0.000 A 
ATOM     11  C   UNL     1       4.302   4.332  16.636  0.00  0.00    +0.000 A 
ATOM     12  C   UNL     1       5.483   3.934  16.004  0.00  0.00    +0.000 A 
ATOM     13  C   UNL     1       6.560   4.809  15.943  0.00  0.00    +0.000 A 
ATOM     14  F   UNL     1       7.707   4.407  15.383  0.00  0.00    +0.000 F 
ATOM     15  C   UNL     1       6.458   6.098  16.456  0.00  0.00    +0.000 A 
ATOM     16  C   UNL     1       5.276   6.496  17.077  0.00  0.00    +0.000 A 
ENDBRANCH   2  10
ENDBRANCH   1   2
BRANCH   1  17
ATOM     17  C   UNL     1       1.829   7.861  19.107  0.00  0.00    +0.000 C 
BRANCH  17  18
ATOM     18  C   UNL     1       1.464   9.276  18.659  0.00  0.00    +0.000 C 
BRANCH  18  19
ATOM     19  N   UNL     1       0.408   9.804  19.547  0.00  0.00    +0.000 NA
ATOM     20  C   UNL     1       0.029  11.187  19.199  0.00  0.00    +0.000 C 
ATOM     21  C   UNL     1      -1.174  11.676  20.049  0.00  0.00    +0.000 C 
ATOM     22  N   UNL     1      -0.840  11.561  21.479  0.00  0.00    +0.000 N 
ATOM     23  C   UNL     1      -0.438  10.202  21.871  0.00  0.00    +0.000 C 
ATOM     24  C   UNL     1       0.746   9.750  20.990  0.00  0.00    +0.000 C 
BRANCH  22  25
ATOM     25  C   UNL     1      -1.404  12.392  22.431  0.00  0.00    +0.000 A 
ATOM     26  C   UNL     1      -2.676  12.170  22.975  0.00  0.00    +0.000 A 
ATOM     27  C   UNL     1      -3.260  13.080  23.865  0.00  0.00    +0.000 A 
ATOM     28  C   UNL     1      -2.575  14.235  24.224  0.00  0.00    +0.000 A 
ATOM     29 CL   UNL     1      -3.306  15.377  25.280  0.00  0.00    +0.000 Cl
ATOM     30  C   UNL     1      -1.309  14.477  23.714  0.00  0.00    +0.000 A 
ATOM     31  C   UNL     1      -0.733  13.561  22.828  0.00  0.00    +0.000 A 
ENDBRANCH  22  25
ENDBRANCH  18  19
ENDBRANCH  17  18
ENDBRANCH   1  17
TORSDOF 7
ENDMDL
MODEL 3
REMARK VINA RESULT:      -8.3      0.898      1.392
REMARK  Name = 
REMARK  7 active torsions:
REMARK  status: ('A' for Active; 'I' for Inactive)
REMARK    1  A    between atoms: C_5  and  C_6
REMARK    2  A    between atoms: C_6  and  O_7
REMARK    3  A    between atoms: C_6  and  C_23
REMARK    4  A    between atoms: O_7  and  C_8
REMARK    5  A    between atoms: C_8  and  C_9
REMARK    6  A    between atoms: C_9  and  N_10
REMARK    7  A    between atoms: N_13  and  C_14
REMARK                            x       y       z     vdW  Elec       q    Type
REMARK                         _______ _______ _______ _____ _____    ______ ____
ROOT
ATOM      1  O   UNL     1       2.558   7.308  18.603  0.00  0.00    +0.000 OA
ENDROOT
BRANCH   1   2
ATOM      2  C   UNL     1       2.661   5.943  18.099  0.00  0.00    +0.000 C 
BRANCH   2   7
ATOM      3  F   UNL     1       0.859   2.323  22.089  0.00  0.00    +0.000 F 
ATOM      4  C   UNL     1       1.334   3.137  21.138  0.00  0.00    +0.000 A 
ATOM      5  C   UNL     1       0.871   3.015  19.833  0.00  0.00    +0.000 A 
ATOM      6  C   UNL     1       1.317   3.905  18.849  0.00  0.00    +0.000 A 
ATOM      7  C   UNL     1       2.250   4.907  19.161  0.00  0.00    +0.000 A 
ATOM      8  C   UNL     1       2.774   4.934  20.472  0.00  0.00    +0.000 A 
ATOM      9  C   UNL     1       2.287   4.086  21.466  0.00  0.00    +0.000 A 
ENDBRANCH   2   7
BRANCH   2  10
ATOM     10  C   UNL     1       3.993   5.673  17.387  0.00  0.00    +0.000 A 
ATOM     11  C   UNL     1       5.011   6.643  17.338  0.00  0.00    +0.000 A 
ATOM     12  C   UNL     1       6.179   6.417  16.605  0.00  0.00    +0.000 A 
ATOM     13  C   UNL     1       6.351   5.211  15.939  0.00  0.00    +0.000 A 
ATOM     14  F   UNL     1       7.448   5.017  15.197  0.00  0.00    +0.000 F 
ATOM     15  C   UNL     1       5.398   4.203  16.036  0.00  0.00    +0.000 A 
ATOM     16  C   UNL     1       4.238   4.427  16.775  0.00  0.00    +0.000 A 
ENDBRANCH   2  10
ENDBRANCH   1   2
BRANCH   1  17
ATOM     17  C   UNL     1       1.787   8.170  17.766  0.00  0.00    +0.000 C 
BRANCH  17  18
ATOM     18  C   UNL     1       1.836   9.653  18.131  0.00  0.00    +0.000 C 
BRANCH  18  19
ATOM     19  N   UNL     1       0.682   9.974  18.995  0.00  0.00    +0.000 NA
ATOM     20  C   UNL     1      -0.077  11.139  18.499  0.00  0.00    +0.000 C 
ATOM     21  C   UNL     1      -1.361  11.377  19.337  0.00  0.00    +0.000 C 
ATOM     22  N   UNL     1      -0.995  11.548  20.753  0.00  0.00    +0.000 N 
ATOM     23  C   UNL     1      -0.221  10.418  21.289  0.00  0.00    +0.000 C 
ATOM     24  C   UNL     1       1.035  10.205  20.418  0.00  0.00    +0.000 C 
BRANCH  22  25
ATOM     25  C   UNL     1      -1.764  12.303  21.621  0.00  0.00    +0.000 A 
ATOM     26  C   UNL     1      -3.073  12.704  21.325  0.00  0.00    +0.000 A 
ATOM     27  C   UNL     1      -3.792  13.547  22.181  0.00  0.00    +0.000 A 
ATOM     28  C   UNL     1      -3.205  14.007  23.353  0.00  0.00    +0.000 A 
ATOM     29 CL   UNL     1      -4.066  15.079  24.385  0.00  0.00    +0.000 Cl
ATOM     30  C   UNL     1      -1.916  13.617  23.683  0.00  0.00    +0.000 A 
ATOM     31  C   UNL     1      -1.208  12.772  22.823  0.00  0.00    +0.000 A 
ENDBRANCH  22  25
ENDBRANCH  18  19
ENDBRANCH  17  18
ENDBRANCH   1  17
TORSDOF 7
ENDMDL
MODEL 4
REMARK VINA RESULT:      -8.3      2.955      3.402
REMARK  Name = 
REMARK  7 active torsions:
REMARK  status: ('A' for Active; 'I' for Inactive)
REMARK    1  A    between atoms: C_5  and  C_6
REMARK    2  A    between atoms: C_6  and  O_7
REMARK    3  A    between atoms: C_6  and  C_23
REMARK    4  A    between atoms: O_7  and  C_8
REMARK    5  A    between atoms: C_8  and  C_9
REMARK    6  A    between atoms: C_9  and  N_10
REMARK    7  A    between atoms: N_13  and  C_14
REMARK                            x       y       z     vdW  Elec       q    Type
REMARK                         _______ _______ _______ _____ _____    ______ ____
ROOT
ATOM      1  O   UNL     1       2.944   7.473  18.665  0.00  0.00    +0.000 OA
ENDROOT
BRANCH   1   2
ATOM      2  C   UNL     1       2.791   6.140  18.094  0.00  0.00    +0.000 C 
BRANCH   2   7
ATOM      3  F   UNL     1       1.017   2.248  21.833  0.00  0.00    +0.000 F 
ATOM      4  C   UNL     1       1.381   3.199  20.964  0.00  0.00    +0.000 A 
ATOM      5  C   UNL     1       2.192   4.246  21.386  0.00  0.00    +0.000 A 
ATOM      6  C   UNL     1       2.627   5.206  20.466  0.00  0.00    +0.000 A 
ATOM      7  C   UNL     1       2.230   5.139  19.120  0.00  0.00    +0.000 A 
ATOM      8  C   UNL     1       1.323   4.121  18.752  0.00  0.00    +0.000 A 
ATOM      9  C   UNL     1       0.937   3.131  19.655  0.00  0.00    +0.000 A 
ENDBRANCH   2   7
BRANCH   2  10
ATOM     10  C   UNL     1       4.036   5.677  17.325  0.00  0.00    +0.000 A 
ATOM     11  C   UNL     1       4.122   4.385  16.775  0.00  0.00    +0.000 A 
ATOM     12  C   UNL     1       5.299   3.947  16.162  0.00  0.00    +0.000 A 
ATOM     13  C   UNL     1       6.387   4.805  16.068  0.00  0.00    +0.000 A 
ATOM     14  F   UNL     1       7.529   4.365  15.525  0.00  0.00    +0.000 F 
ATOM     15  C   UNL     1       6.303   6.114  16.531  0.00  0.00    +0.000 A 
ATOM     16  C   UNL     1       5.125   6.551  17.134  0.00  0.00    +0.000 A 
ENDBRANCH   2  10
ENDBRANCH   1   2
BRANCH   1  17
ATOM     17  C   UNL     1       1.760   8.268  18.588  0.00  0.00    +0.000 C 
BRANCH  17  18
ATOM     18  C   UNL     1       1.555   9.250  19.740  0.00  0.00    +0.000 C 
BRANCH  18  19
ATOM     19  N   UNL     1       0.492  10.208  19.372  0.00  0.00    +0.000 NA
ATOM     20  C   UNL     1      -0.496  10.387  20.454  0.00  0.00    +0.000 C 
ATOM     21  C   UNL     1      -1.524  11.496  20.105  0.00  0.00    +0.000 C 
ATOM     22  N   UNL     1      -2.187  11.164  18.833  0.00  0.00    +0.000 N 
ATOM     23  C   UNL     1      -1.241  10.958  17.725  0.00  0.00    +0.000 C 
ATOM     24  C   UNL     1      -0.228   9.863  18.121  0.00  0.00    +0.000 C 
BRANCH  22  25
ATOM     25  C   UNL     1      -3.471  11.590  18.545  0.00  0.00    +0.000 A 
ATOM     26  C   UNL     1      -4.073  11.400  17.294  0.00  0.00    +0.000 A 
ATOM     27  C   UNL     1      -5.337  11.926  17.002  0.00  0.00    +0.000 A 
ATOM     28  C   UNL     1      -6.021  12.660  17.964  0.00  0.00    +0.000 A 
ATOM     29 CL   UNL     1      -7.553  13.347  17.595  0.00  0.00    +0.000 Cl
ATOM     30  C   UNL     1      -5.459  12.854  19.217  0.00  0.00    +0.000 A 
ATOM     31  C   UNL     1      -4.197  12.321  19.499  0.00  0.00    +0.000 A 
ENDBRANCH  22  25
ENDBRANCH  18  19
ENDBRANCH  17  18
ENDBRANCH   1  17
TORSDOF 7
ENDMDL
MODEL 5
REMARK VINA RESULT:      -8.3      2.248      2.795
REMARK  Name = 
REMARK  7 active torsions:
REMARK  status: ('A' for Active; 'I' for Inactive)
REMARK    1  A    between atoms: C_5  and  C_6
REMARK    2  A    between atoms: C_6  and  O_7
REMARK    3  A    between atoms: C_6  and  C_23
REMARK    4  A    between atoms: O_7  and  C_8
REMARK    5  A    between atoms: C_8  and  C_9
REMARK    6  A    between atoms: C_9  and  N_10
REMARK    7  A    between atoms: N_13  and  C_14
REMARK                            x       y       z     vdW  Elec       q    Type
REMARK                         _______ _______ _______ _____ _____    ______ ____
ROOT
ATOM      1  O   UNL     1       2.570   7.326  18.721  0.00  0.00    +0.000 OA
ENDROOT
BRANCH   1   2
ATOM      2  C   UNL     1       2.557   5.965  18.199  0.00  0.00    +0.000 C 
BRANCH   2   7
ATOM      3  F   UNL     1       1.221   2.027  22.070  0.00  0.00    +0.000 F 
ATOM      4  C   UNL     1       1.480   2.986  21.172  0.00  0.00    +0.000 A 
ATOM      5  C   UNL     1       2.249   4.085  21.538  0.00  0.00    +0.000 A 
ATOM      6  C   UNL     1       2.575   5.056  20.585  0.00  0.00    +0.000 A 
ATOM      7  C   UNL     1       2.112   4.946  19.264  0.00  0.00    +0.000 A 
ATOM      8  C   UNL     1       1.250   3.872  18.956  0.00  0.00    +0.000 A 
ATOM      9  C   UNL     1       0.973   2.873  19.889  0.00  0.00    +0.000 A 
ENDBRANCH   2   7
BRANCH   2  10
ATOM     10  C   UNL     1       3.839   5.610  17.434  0.00  0.00    +0.000 A 
ATOM     11  C   UNL     1       4.048   4.323  16.905  0.00  0.00    +0.000 A 
ATOM     12  C   UNL     1       5.260   3.989  16.295  0.00  0.00    +0.000 A 
ATOM     13  C   UNL     1       6.261   4.945  16.184  0.00  0.00    +0.000 A 
ATOM     14  F   UNL     1       7.439   4.608  15.645  0.00  0.00    +0.000 F 
ATOM     15  C   UNL     1       6.052   6.248  16.624  0.00  0.00    +0.000 A 
ATOM     16  C   UNL     1       4.839   6.580  17.224  0.00  0.00    +0.000 A 
ENDBRANCH   2  10
ENDBRANCH   1   2
BRANCH   1  17
ATOM     17  C   UNL     1       1.857   8.258  17.908  0.00  0.00    +0.000 C 
BRANCH  17  18
ATOM     18  C   UNL     1       2.213   9.728  18.129  0.00  0.00    +0.000 C 
BRANCH  18  19
ATOM     19  N   UNL     1       0.978  10.536  18.065  0.00  0.00    +0.000 NA
ATOM     20  C   UNL     1       0.831  11.421  19.237  0.00  0.00    +0.000 C 
ATOM     21  C   UNL     1      -0.395  12.361  19.087  0.00  0.00    +0.000 C 
ATOM     22  N   UNL     1      -1.608  11.551  18.879  0.00  0.00    +0.000 N 
ATOM     23  C   UNL     1      -1.503  10.638  17.730  0.00  0.00    +0.000 C 
ATOM     24  C   UNL     1      -0.263   9.737  17.911  0.00  0.00    +0.000 C 
BRANCH  22  25
ATOM     25  C   UNL     1      -2.859  11.996  19.266  0.00  0.00    +0.000 A 
ATOM     26  C   UNL     1      -3.068  12.774  20.412  0.00  0.00    +0.000 A 
ATOM     27  C   UNL     1      -4.356  13.128  20.832  0.00  0.00    +0.000 A 
ATOM     28  C   UNL     1      -5.463  12.704  20.106  0.00  0.00    +0.000 A 
ATOM     29 CL   UNL     1      -7.048  13.098  20.641  0.00  0.00    +0.000 Cl
ATOM     30  C   UNL     1      -5.289  11.945  18.958  0.00  0.00    +0.000 A 
ATOM     31  C   UNL     1      -3.998  11.598  18.547  0.00  0.00    +0.000 A 
ENDBRANCH  22  25
ENDBRANCH  18  19
ENDBRANCH  17  18
ENDBRANCH   1  17
TORSDOF 7
ENDMDL
MODEL 6
REMARK VINA RESULT:      -8.3      1.008      1.832
REMARK  Name = 
REMARK  7 active torsions:
REMARK  status: ('A' for Active; 'I' for Inactive)
REMARK    1  A    between atoms: C_5  and  C_6
REMARK    2  A    between atoms: C_6  and  O_7
REMARK    3  A    between atoms: C_6  and  C_23
REMARK    4  A    between atoms: O_7  and  C_8
REMARK    5  A    between atoms: C_8  and  C_9
REMARK    6  A    between atoms: C_9  and  N_10
REMARK    7  A    between atoms: N_13  and  C_14
REMARK                            x       y       z     vdW  Elec       q    Type
REMARK                         _______ _______ _______ _____ _____    ______ ____
ROOT
ATOM      1  O   UNL     1       2.799   7.264  18.626  0.00  0.00    +0.000 OA
ENDROOT
BRANCH   1   2
ATOM      2  C   UNL     1       2.802   5.904  18.099  0.00  0.00    +0.000 C 
BRANCH   2   7
ATOM      3  F   UNL     1       0.841   2.360  22.083  0.00  0.00    +0.000 F 
ATOM      4  C   UNL     1       1.347   3.151  21.128  0.00  0.00    +0.000 A 
ATOM      5  C   UNL     1       0.795   3.133  19.853  0.00  0.00    +0.000 A 
ATOM      6  C   UNL     1       1.280   4.004  18.871  0.00  0.00    +0.000 A 
ATOM      7  C   UNL     1       2.340   4.881  19.152  0.00  0.00    +0.000 A 
ATOM      8  C   UNL     1       2.943   4.797  20.427  0.00  0.00    +0.000 A 
ATOM      9  C   UNL     1       2.422   3.972  21.423  0.00  0.00    +0.000 A 
ENDBRANCH   2   7
BRANCH   2  10
ATOM     10  C   UNL     1       4.101   5.556  17.360  0.00  0.00    +0.000 A 
ATOM     11  C   UNL     1       5.136   6.497  17.210  0.00  0.00    +0.000 A 
ATOM     12  C   UNL     1       6.271   6.196  16.453  0.00  0.00    +0.000 A 
ATOM     13  C   UNL     1       6.393   4.945  15.863  0.00  0.00    +0.000 A 
ATOM     14  F   UNL     1       7.458   4.677  15.097  0.00  0.00    +0.000 F 
ATOM     15  C   UNL     1       5.424   3.967  16.062  0.00  0.00    +0.000 A 
ATOM     16  C   UNL     1       4.297   4.267  16.825  0.00  0.00    +0.000 A 
ENDBRANCH   2  10
ENDBRANCH   1   2
BRANCH   1  17
ATOM     17  C   UNL     1       1.641   7.575  19.400  0.00  0.00    +0.000 C 
BRANCH  17  18
ATOM     18  C   UNL     1       1.914   8.226  20.755  0.00  0.00    +0.000 C 
BRANCH  18  19
ATOM     19  N   UNL     1       0.732   9.016  21.156  0.00  0.00    +0.000 NA
ATOM     20  C   UNL     1       0.674  10.319  20.464  0.00  0.00    +0.000 C 
ATOM     21  C   UNL     1      -0.641  11.075  20.791  0.00  0.00    +0.000 C 
ATOM     22  N   UNL     1      -0.758  11.244  22.249  0.00  0.00    +0.000 N 
ATOM     23  C   UNL     1      -0.687   9.973  22.985  0.00  0.00    +0.000 C 
ATOM     24  C   UNL     1       0.624   9.247  22.618  0.00  0.00    +0.000 C 
BRANCH  22  25
ATOM     25  C   UNL     1      -1.450  12.303  22.809  0.00  0.00    +0.000 A 
ATOM     26  C   UNL     1      -0.872  13.561  23.023  0.00  0.00    +0.000 A 
ATOM     27  C   UNL     1      -1.567  14.585  23.679  0.00  0.00    +0.000 A 
ATOM     28  C   UNL     1      -2.861  14.361  24.136  0.00  0.00    +0.000 A 
ATOM     29 CL   UNL     1      -3.702  15.599  24.981  0.00  0.00    +0.000 Cl
ATOM     30  C   UNL     1      -3.467  13.132  23.926  0.00  0.00    +0.000 A 
ATOM     31  C   UNL     1      -2.764  12.117  23.268  0.00  0.00    +0.000 A 
ENDBRANCH  22  25
ENDBRANCH  18  19
ENDBRANCH  17  18
ENDBRANCH   1  17
TORSDOF 7
ENDMDL
MODEL 7
REMARK VINA RESULT:      -8.3      0.652      1.639
REMARK  Name = 
REMARK  7 active torsions:
REMARK  status: ('A' for Active; 'I' for Inactive)
REMARK    1  A    between atoms: C_5  and  C_6
REMARK    2  A    between atoms: C_6  and  O_7
REMARK    3  A    between atoms: C_6  and  C_23
REMARK    4  A    between atoms: O_7  and  C_8
REMARK    5  A    between atoms: C_8  and  C_9
REMARK    6  A    between atoms: C_9  and  N_10
REMARK    7  A    between atoms: N_13  and  C_14
REMARK                            x       y       z     vdW  Elec       q    Type
REMARK                         _______ _______ _______ _____ _____    ______ ____
ROOT
ATOM      1  O   UNL     1       2.961   7.465  18.554  0.00  0.00    +0.000 OA
ENDROOT
BRANCH   1   2
ATOM      2  C   UNL     1       2.840   6.112  18.021  0.00  0.00    +0.000 C 
BRANCH   2   7
ATOM      3  F   UNL     1       1.062   2.296  21.835  0.00  0.00    +0.000 F 
ATOM      4  C   UNL     1       1.428   3.230  20.949  0.00  0.00    +0.000 A 
ATOM      5  C   UNL     1       2.259   4.270  21.346  0.00  0.00    +0.000 A 
ATOM      6  C   UNL     1       2.695   5.212  20.407  0.00  0.00    +0.000 A 
ATOM      7  C   UNL     1       2.279   5.133  19.068  0.00  0.00    +0.000 A 
ATOM      8  C   UNL     1       1.353   4.124  18.725  0.00  0.00    +0.000 A 
ATOM      9  C   UNL     1       0.965   3.151  19.646  0.00  0.00    +0.000 A 
ENDBRANCH   2   7
BRANCH   2  10
ATOM     10  C   UNL     1       4.106   5.648  17.287  0.00  0.00    +0.000 A 
ATOM     11  C   UNL     1       4.230   4.337  16.793  0.00  0.00    +0.000 A 
ATOM     12  C   UNL     1       5.424   3.902  16.212  0.00  0.00    +0.000 A 
ATOM     13  C   UNL     1       6.493   4.782  16.096  0.00  0.00    +0.000 A 
ATOM     14  F   UNL     1       7.652   4.348  15.585  0.00  0.00    +0.000 F 
ATOM     15  C   UNL     1       6.371   6.107  16.502  0.00  0.00    +0.000 A 
ATOM     16  C   UNL     1       5.176   6.540  17.073  0.00  0.00    +0.000 A 
ENDBRANCH   2  10
ENDBRANCH   1   2
BRANCH   1  17
ATOM     17  C   UNL     1       1.759   8.228  18.452  0.00  0.00    +0.000 C 
BRANCH  17  18
ATOM     18  C   UNL     1       1.917   9.621  17.843  0.00  0.00    +0.000 C 
BRANCH  18  19
ATOM     19  N   UNL     1       0.987  10.549  18.518  0.00  0.00    +0.000 NA
ATOM     20  C   UNL     1       1.640  11.822  18.885  0.00  0.00    +0.000 C 
ATOM     21  C   UNL     1       0.618  12.835  19.466  0.00  0.00    +0.000 C 
ATOM     22  N   UNL     1      -0.060  12.234  20.627  0.00  0.00    +0.000 N 
ATOM     23  C   UNL     1      -0.711  10.952  20.315  0.00  0.00    +0.000 C 
ATOM     24  C   UNL     1       0.334   9.983  19.724  0.00  0.00    +0.000 C 
BRANCH  22  25
ATOM     25  C   UNL     1      -0.561  13.004  21.661  0.00  0.00    +0.000 A 
ATOM     26  C   UNL     1      -0.038  14.260  21.996  0.00  0.00    +0.000 A 
ATOM     27  C   UNL     1      -0.503  14.974  23.107  0.00  0.00    +0.000 A 
ATOM     28  C   UNL     1      -1.505  14.436  23.907  0.00  0.00    +0.000 A 
ATOM     29 CL   UNL     1      -2.048  15.288  25.297  0.00  0.00    +0.000 Cl
ATOM     30  C   UNL     1      -2.054  13.202  23.593  0.00  0.00    +0.000 A 
ATOM     31  C   UNL     1      -1.584  12.498  22.480  0.00  0.00    +0.000 A 
ENDBRANCH  22  25
ENDBRANCH  18  19
ENDBRANCH  17  18
ENDBRANCH   1  17
TORSDOF 7
ENDMDL
MODEL 8
REMARK VINA RESULT:      -8.3      1.048      1.928
REMARK  Name = 
REMARK  7 active torsions:
REMARK  status: ('A' for Active; 'I' for Inactive)
REMARK    1  A    between atoms: C_5  and  C_6
REMARK    2  A    between atoms: C_6  and  O_7
REMARK    3  A    between atoms: C_6  and  C_23
REMARK    4  A    between atoms: O_7  and  C_8
REMARK    5  A    between atoms: C_8  and  C_9
REMARK    6  A    between atoms: C_9  and  N_10
REMARK    7  A    between atoms: N_13  and  C_14
REMARK                            x       y       z     vdW  Elec       q    Type
REMARK                         _______ _______ _______ _____ _____    ______ ____
ROOT
ATOM      1  O   UNL     1       3.034   7.372  18.356  0.00  0.00    +0.000 OA
ENDROOT
BRANCH   1   2
ATOM      2  C   UNL     1       2.970   6.015  17.827  0.00  0.00    +0.000 C 
BRANCH   2   7
ATOM      3  F   UNL     1       0.747   2.523  21.718  0.00  0.00    +0.000 F 
ATOM      4  C   UNL     1       1.323   3.308  20.798  0.00  0.00    +0.000 A 
ATOM      5  C   UNL     1       1.044   3.110  19.451  0.00  0.00    +0.000 A 
ATOM      6  C   UNL     1       1.594   3.969  18.492  0.00  0.00    +0.000 A 
ATOM      7  C   UNL     1       2.448   5.015  18.875  0.00  0.00    +0.000 A 
ATOM      8  C   UNL     1       2.789   5.120  20.241  0.00  0.00    +0.000 A 
ATOM      9  C   UNL     1       2.196   4.303  21.203  0.00  0.00    +0.000 A 
ENDBRANCH   2   7
BRANCH   2  10
ATOM     10  C   UNL     1       4.255   5.602  17.096  0.00  0.00    +0.000 A 
ATOM     11  C   UNL     1       4.346   4.382  16.401  0.00  0.00    +0.000 A 
ATOM     12  C   UNL     1       5.551   3.978  15.822  0.00  0.00    +0.000 A 
ATOM     13  C   UNL     1       6.667   4.801  15.909  0.00  0.00    +0.000 A 
ATOM     14  F   UNL     1       7.833   4.388  15.398  0.00  0.00    +0.000 F 
ATOM     15  C   UNL     1       6.584   6.048  16.519  0.00  0.00    +0.000 A 
ATOM     16  C   UNL     1       5.378   6.453  17.088  0.00  0.00    +0.000 A 
ENDBRANCH   2  10
ENDBRANCH   1   2
BRANCH   1  17
ATOM     17  C   UNL     1       1.974   8.214  17.900  0.00  0.00    +0.000 C 
BRANCH  17  18
ATOM     18  C   UNL     1       2.271   9.713  17.926  0.00  0.00    +0.000 C 
BRANCH  18  19
ATOM     19  N   UNL     1       1.056  10.436  18.354  0.00  0.00    +0.000 NA
ATOM     20  C   UNL     1       1.375  11.653  19.126  0.00  0.00    +0.000 C 
ATOM     21  C   UNL     1       0.097  12.472  19.448  0.00  0.00    +0.000 C 
ATOM     22  N   UNL     1      -0.859  11.619  20.175  0.00  0.00    +0.000 N 
ATOM     23  C   UNL     1      -1.195  10.383  19.453  0.00  0.00    +0.000 C 
ATOM     24  C   UNL     1       0.103   9.611  19.138  0.00  0.00    +0.000 C 
BRANCH  22  25
ATOM     25  C   UNL     1      -1.779  12.146  21.064  0.00  0.00    +0.000 A 
ATOM     26  C   UNL     1      -1.761  11.862  22.435  0.00  0.00    +0.000 A 
ATOM     27  C   UNL     1      -2.761  12.332  23.294  0.00  0.00    +0.000 A 
ATOM     28  C   UNL     1      -3.805  13.099  22.788  0.00  0.00    +0.000 A 
ATOM     29 CL   UNL     1      -5.060  13.641  23.830  0.00  0.00    +0.000 Cl
ATOM     30  C   UNL     1      -3.844  13.411  21.437  0.00  0.00    +0.000 A 
ATOM     31  C   UNL     1      -2.838  12.937  20.589  0.00  0.00    +0.000 A 
ENDBRANCH  22  25
ENDBRANCH  18  19
ENDBRANCH  17  18
ENDBRANCH   1  17
TORSDOF 7
ENDMDL
MODEL 9
REMARK VINA RESULT:      -8.2      1.251      4.313
REMARK  Name = 
REMARK  7 active torsions:
REMARK  status: ('A' for Active; 'I' for Inactive)
REMARK    1  A    between atoms: C_5  and  C_6
REMARK    2  A    between atoms: C_6  and  O_7
REMARK    3  A    between atoms: C_6  and  C_23
REMARK    4  A    between atoms: O_7  and  C_8
REMARK    5  A    between atoms: C_8  and  C_9
REMARK    6  A    between atoms: C_9  and  N_10
REMARK    7  A    between atoms: N_13  and  C_14
REMARK                            x       y       z     vdW  Elec       q    Type
REMARK                         _______ _______ _______ _____ _____    ______ ____
ROOT
ATOM      1  O   UNL     1       3.218   7.542  17.463  0.00  0.00    +0.000 OA
ENDROOT
BRANCH   1   2
ATOM      2  C   UNL     1       3.879   6.353  17.989  0.00  0.00    +0.000 C 
BRANCH   2   7
ATOM      3  F   UNL     1       6.677   3.657  13.845  0.00  0.00    +0.000 F 
ATOM      4  C   UNL     1       6.074   4.305  14.849  0.00  0.00    +0.000 A 
ATOM      5  C   UNL     1       5.779   5.656  14.720  0.00  0.00    +0.000 A 
ATOM      6  C   UNL     1       5.092   6.322  15.742  0.00  0.00    +0.000 A 
ATOM      7  C   UNL     1       4.719   5.642  16.913  0.00  0.00    +0.000 A 
ATOM      8  C   UNL     1       5.128   4.297  17.052  0.00  0.00    +0.000 A 
ATOM      9  C   UNL     1       5.760   3.619  16.010  0.00  0.00    +0.000 A 
ENDBRANCH   2   7
BRANCH   2  10
ATOM     10  C   UNL     1       2.929   5.453  18.792  0.00  0.00    +0.000 A 
ATOM     11  C   UNL     1       2.981   5.400  20.197  0.00  0.00    +0.000 A 
ATOM     12  C   UNL     1       2.176   4.506  20.908  0.00  0.00    +0.000 A 
ATOM     13  C   UNL     1       1.294   3.680  20.224  0.00  0.00    +0.000 A 
ATOM     14  F   UNL     1       0.561   2.789  20.904  0.00  0.00    +0.000 F 
ATOM     15  C   UNL     1       1.164   3.768  18.842  0.00  0.00    +0.000 A 
ATOM     16  C   UNL     1       1.962   4.667  18.136  0.00  0.00    +0.000 A 
ENDBRANCH   2  10
ENDBRANCH   1   2
BRANCH   1  17
ATOM     17  C   UNL     1       2.387   8.203  18.418  0.00  0.00    +0.000 C 
BRANCH  17  18
ATOM     18  C   UNL     1       1.673   9.455  17.909  0.00  0.00    +0.000 C 
BRANCH  18  19
ATOM     19  N   UNL     1       0.562   9.781  18.826  0.00  0.00    +0.000 NA
ATOM     20  C   UNL     1      -0.336  10.812  18.268  0.00  0.00    +0.000 C 
ATOM     21  C   UNL     1      -1.570  11.042  19.180  0.00  0.00    +0.000 C 
ATOM     22  N   UNL     1      -1.116  11.410  20.532  0.00  0.00    +0.000 N 
ATOM     23  C   UNL     1      -0.203  10.421  21.125  0.00  0.00    +0.000 C 
ATOM     24  C   UNL     1       0.998  10.209  20.178  0.00  0.00    +0.000 C 
BRANCH  22  25
ATOM     25  C   UNL     1      -1.883  12.198  21.371  0.00  0.00    +0.000 A 
ATOM     26  C   UNL     1      -2.127  11.869  22.711  0.00  0.00    +0.000 A 
ATOM     27  C   UNL     1      -2.985  12.636  23.509  0.00  0.00    +0.000 A 
ATOM     28  C   UNL     1      -3.619  13.750  22.972  0.00  0.00    +0.000 A 
ATOM     29 CL   UNL     1      -4.709  14.668  23.934  0.00  0.00    +0.000 Cl
ATOM     30  C   UNL     1      -3.388  14.111  21.654  0.00  0.00    +0.000 A 
ATOM     31  C   UNL     1      -2.527  13.340  20.866  0.00  0.00    +0.000 A 
ENDBRANCH  22  25
ENDBRANCH  18  19
ENDBRANCH  17  18
ENDBRANCH   1  17
TORSDOF 7
ENDMDL
