MODEL 1
REMARK VINA RESULT:      -7.7      0.000      0.000
REMARK  Name = 
REMARK  15 active torsions:
REMARK  status: ('A' for Active; 'I' for Inactive)
REMARK    1  A    between atoms: C_1  and  O_2
REMARK    2  A    between atoms: O_2  and  C_3
REMARK    3  A    between atoms: C_6  and  C_7
REMARK    4  A    between atoms: C_15  and  S_16
REMARK    5  A    between atoms: S_16  and  C_17
REMARK    6  A    between atoms: C_19  and  O_20
REMARK    7  A    between atoms: O_20  and  C_21
REMARK    8  A    between atoms: C_22  and  O_23
REMARK    9  A    between atoms: O_23  and  C_24
REMARK   10  A    between atoms: C_25  and  O_26
REMARK   11  A    between atoms: O_26  and  C_27
REMARK   12  A    between atoms: C_30  and  O_31
REMARK   13  A    between atoms: O_31  and  C_32
REMARK   14  A    between atoms: C_32  and  C_33
REMARK   15  A    between atoms: C_32  and  C_34
REMARK                            x       y       z     vdW  Elec       q    Type
REMARK                         _______ _______ _______ _____ _____    ______ ____
ROOT
ATOM      1  C   UNL     1       1.662   8.466  19.957  0.00  0.00    +0.000 A 
ATOM      2  N   UNL     1       1.332   8.225  21.275  0.00  0.00    +0.000 N 
ATOM      3  C   UNL     1       0.532   9.210  21.788  0.00  0.00    +0.000 A 
ATOM      4  C   UNL     1      -0.097   9.264  23.043  0.00  0.00    +0.000 A 
ATOM      5  C   UNL     1      -0.909  10.369  23.296  0.00  0.00    +0.000 A 
ATOM      6  C   UNL     1      -1.062  11.375  22.346  0.00  0.00    +0.000 A 
ATOM      7  C   UNL     1      -0.412  11.299  21.102  0.00  0.00    +0.000 A 
ATOM      8  C   UNL     1       0.415  10.189  20.797  0.00  0.00    +0.000 A 
ATOM      9  C   UNL     1       1.204   9.756  19.673  0.00  0.00    +0.000 A 
ATOM     10  H   UNL     1       1.568   7.380  21.776  0.00  0.00    +0.000 HD
ENDROOT
BRANCH   1  14
ATOM     11  C   UNL     1       3.772   5.356  17.865  0.00  0.00    +0.000 A 
ATOM     12  C   UNL     1       3.854   6.691  17.436  0.00  0.00    +0.000 A 
ATOM     13  C   UNL     1       3.173   7.712  18.108  0.00  0.00    +0.000 A 
ATOM     14  C   UNL     1       2.347   7.417  19.187  0.00  0.00    +0.000 A 
ATOM     15  C   UNL     1       2.203   6.068  19.554  0.00  0.00    +0.000 A 
ATOM     16  C   UNL     1       2.895   5.033  18.906  0.00  0.00    +0.000 A 
BRANCH  11  18
ATOM     17  C   UNL     1       5.180   4.683  16.083  0.00  0.00    +0.000 C 
ATOM     18  O   UNL     1       4.541   4.368  17.315  0.00  0.00    +0.000 OA
ENDBRANCH  11  18
BRANCH  16  19
ATOM     19  O   UNL     1       2.667   3.810  19.484  0.00  0.00    +0.000 OA
BRANCH  19  20
ATOM     20  C   UNL     1       1.351   3.446  19.908  0.00  0.00    +0.000 C 
ATOM     21  C   UNL     1       0.789   2.437  18.910  0.00  0.00    +0.000 C 
ATOM     22  C   UNL     1       1.475   2.793  21.284  0.00  0.00    +0.000 C 
ENDBRANCH  19  20
ENDBRANCH  16  19
ENDBRANCH   1  14
BRANCH   9  23
ATOM     23  S   UNL     1       1.374  10.559  18.103  0.00  0.00    +0.000 S 
BRANCH  23  24
ATOM     24  C   UNL     1       1.620  12.319  18.326  0.00  0.00    +0.000 A 
ATOM     25  C   UNL     1       2.873  12.916  18.389  0.00  0.00    +0.000 A 
ATOM     26  C   UNL     1       3.007  14.253  18.782  0.00  0.00    +0.000 A 
ATOM     27  C   UNL     1       1.868  15.033  19.084  0.00  0.00    +0.000 A 
ATOM     28  C   UNL     1       0.587  14.489  18.878  0.00  0.00    +0.000 A 
ATOM     29  C   UNL     1       0.483  13.138  18.492  0.00  0.00    +0.000 A 
BRANCH  26  30
ATOM     30  O   UNL     1       4.230  14.864  18.939  0.00  0.00    +0.000 OA
ATOM     31  C   UNL     1       5.178  14.662  17.900  0.00  0.00    +0.000 C 
ENDBRANCH  26  30
BRANCH  27  32
ATOM     32  O   UNL     1       2.163  16.251  19.652  0.00  0.00    +0.000 OA
ATOM     33  C   UNL     1       2.127  16.416  21.059  0.00  0.00    +0.000 C 
ENDBRANCH  27  32
BRANCH  28  34
ATOM     34  O   UNL     1      -0.491  15.289  19.136  0.00  0.00    +0.000 OA
ATOM     35  C   UNL     1      -1.281  15.069  20.295  0.00  0.00    +0.000 C 
ENDBRANCH  28  34
ENDBRANCH  23  24
ENDBRANCH   9  23
TORSDOF 9
ENDMDL
MODEL 2
REMARK VINA RESULT:      -7.6      3.220      4.220
REMARK  Name = 
REMARK  15 active torsions:
REMARK  status: ('A' for Active; 'I' for Inactive)
REMARK    1  A    between atoms: C_1  and  O_2
REMARK    2  A    between atoms: O_2  and  C_3
REMARK    3  A    between atoms: C_6  and  C_7
REMARK    4  A    between atoms: C_15  and  S_16
REMARK    5  A    between atoms: S_16  and  C_17
REMARK    6  A    between atoms: C_19  and  O_20
REMARK    7  A    between atoms: O_20  and  C_21
REMARK    8  A    between atoms: C_22  and  O_23
REMARK    9  A    between atoms: O_23  and  C_24
REMARK   10  A    between atoms: C_25  and  O_26
REMARK   11  A    between atoms: O_26  and  C_27
REMARK   12  A    between atoms: C_30  and  O_31
REMARK   13  A    between atoms: O_31  and  C_32
REMARK   14  A    between atoms: C_32  and  C_33
REMARK   15  A    between atoms: C_32  and  C_34
REMARK                            x       y       z     vdW  Elec       q    Type
REMARK                         _______ _______ _______ _____ _____    ______ ____
ROOT
ATOM      1  C   UNL     1       1.560   8.425  19.975  0.00  0.00    +0.000 A 
ATOM      2  N   UNL     1       1.560   8.296  21.349  0.00  0.00    +0.000 N 
ATOM      3  C   UNL     1       0.711   9.188  21.944  0.00  0.00    +0.000 A 
ATOM      4  C   UNL     1       0.354   9.290  23.300  0.00  0.00    +0.000 A 
ATOM      5  C   UNL     1      -0.583  10.265  23.635  0.00  0.00    +0.000 A 
ATOM      6  C   UNL     1      -1.117  11.107  22.663  0.00  0.00    +0.000 A 
ATOM      7  C   UNL     1      -0.734  10.989  21.316  0.00  0.00    +0.000 A 
ATOM      8  C   UNL     1       0.208  10.004  20.927  0.00  0.00    +0.000 A 
ATOM      9  C   UNL     1       0.817   9.575  19.694  0.00  0.00    +0.000 A 
ATOM     10  H   UNL     1       2.051   7.571  21.852  0.00  0.00    +0.000 HD
ENDROOT
BRANCH   1  14
ATOM     11  C   UNL     1       3.716   5.442  17.749  0.00  0.00    +0.000 A 
ATOM     12  C   UNL     1       3.740   6.789  17.352  0.00  0.00    +0.000 A 
ATOM     13  C   UNL     1       3.044   7.770  18.067  0.00  0.00    +0.000 A 
ATOM     14  C   UNL     1       2.259   7.420  19.160  0.00  0.00    +0.000 A 
ATOM     15  C   UNL     1       2.172   6.058  19.498  0.00  0.00    +0.000 A 
ATOM     16  C   UNL     1       2.881   5.063  18.806  0.00  0.00    +0.000 A 
BRANCH  11  18
ATOM     17  C   UNL     1       5.866   4.468  17.561  0.00  0.00    +0.000 C 
ATOM     18  O   UNL     1       4.503   4.495  17.155  0.00  0.00    +0.000 OA
ENDBRANCH  11  18
BRANCH  16  19
ATOM     19  O   UNL     1       2.712   3.820  19.360  0.00  0.00    +0.000 OA
BRANCH  19  20
ATOM     20  C   UNL     1       1.416   3.387  19.778  0.00  0.00    +0.000 C 
ATOM     21  C   UNL     1       0.882   2.405  18.739  0.00  0.00    +0.000 C 
ATOM     22  C   UNL     1       1.580   2.675  21.121  0.00  0.00    +0.000 C 
ENDBRANCH  19  20
ENDBRANCH  16  19
ENDBRANCH   1  14
BRANCH   9  23
ATOM     23  S   UNL     1       0.503  10.197  18.065  0.00  0.00    +0.000 S 
BRANCH  23  24
ATOM     24  C   UNL     1      -1.246  10.510  17.842  0.00  0.00    +0.000 A 
ATOM     25  C   UNL     1      -1.949  10.152  16.698  0.00  0.00    +0.000 A 
ATOM     26  C   UNL     1      -3.254  10.614  16.491  0.00  0.00    +0.000 A 
ATOM     27  C   UNL     1      -3.896  11.422  17.456  0.00  0.00    +0.000 A 
ATOM     28  C   UNL     1      -3.254  11.666  18.684  0.00  0.00    +0.000 A 
ATOM     29  C   UNL     1      -1.938  11.197  18.862  0.00  0.00    +0.000 A 
BRANCH  26  30
ATOM     30  O   UNL     1      -3.960  10.356  15.338  0.00  0.00    +0.000 OA
ATOM     31  C   UNL     1      -3.196  10.030  14.186  0.00  0.00    +0.000 C 
ENDBRANCH  26  30
BRANCH  27  32
ATOM     32  O   UNL     1      -5.082  11.968  17.024  0.00  0.00    +0.000 OA
ATOM     33  C   UNL     1      -6.299  11.651  17.677  0.00  0.00    +0.000 C 
ENDBRANCH  27  32
BRANCH  28  34
ATOM     34  O   UNL     1      -3.925  12.412  19.612  0.00  0.00    +0.000 OA
ATOM     35  C   UNL     1      -3.232  13.381  20.385  0.00  0.00    +0.000 C 
ENDBRANCH  28  34
ENDBRANCH  23  24
ENDBRANCH   9  23
TORSDOF 9
ENDMDL
MODEL 3
REMARK VINA RESULT:      -7.6      0.832      2.333
REMARK  Name = 
REMARK  15 active torsions:
REMARK  status: ('A' for Active; 'I' for Inactive)
REMARK    1  A    between atoms: C_1  and  O_2
REMARK    2  A    between atoms: O_2  and  C_3
REMARK    3  A    between atoms: C_6  and  C_7
REMARK    4  A    between atoms: C_15  and  S_16
REMARK    5  A    between atoms: S_16  and  C_17
REMARK    6  A    between atoms: C_19  and  O_20
REMARK    7  A    between atoms: O_20  and  C_21
REMARK    8  A    between atoms: C_22  and  O_23
REMARK    9  A    between atoms: O_23  and  C_24
REMARK   10  A    between atoms: C_25  and  O_26
REMARK   11  A    between atoms: O_26  and  C_27
REMARK   12  A    between atoms: C_30  and  O_31
REMARK   13  A    between atoms: O_31  and  C_32
REMARK   14  A    between atoms: C_32  and  C_33
REMARK   15  A    between atoms: C_32  and  C_34
REMARK                            x       y       z     vdW  Elec       q    Type
REMARK                         _______ _______ _______ _____ _____    ______ ____
ROOT
ATOM      1  C   UNL     1       1.466   8.648  20.093  0.00  0.00    +0.000 A 
ATOM      2  N   UNL     1       1.098   8.408  21.401  0.00  0.00    +0.000 N 
ATOM      3  C   UNL     1       0.297   9.402  21.896  0.00  0.00    +0.000 A 
ATOM      4  C   UNL     1      -0.364   9.461  23.134  0.00  0.00    +0.000 A 
ATOM      5  C   UNL     1      -1.168  10.575  23.369  0.00  0.00    +0.000 A 
ATOM      6  C   UNL     1      -1.284  11.586  22.417  0.00  0.00    +0.000 A 
ATOM      7  C   UNL     1      -0.602  11.504  21.190  0.00  0.00    +0.000 A 
ATOM      8  C   UNL     1       0.218  10.384  20.905  0.00  0.00    +0.000 A 
ATOM      9  C   UNL     1       1.032   9.944  19.801  0.00  0.00    +0.000 A 
ATOM     10  H   UNL     1       1.310   7.559  21.906  0.00  0.00    +0.000 HD
ENDROOT
BRANCH   1  14
ATOM     11  C   UNL     1       3.607   5.533  18.041  0.00  0.00    +0.000 A 
ATOM     12  C   UNL     1       3.591   6.844  17.537  0.00  0.00    +0.000 A 
ATOM     13  C   UNL     1       2.900   7.867  18.195  0.00  0.00    +0.000 A 
ATOM     14  C   UNL     1       2.158   7.593  19.338  0.00  0.00    +0.000 A 
ATOM     15  C   UNL     1       2.109   6.261  19.786  0.00  0.00    +0.000 A 
ATOM     16  C   UNL     1       2.815   5.226  19.152  0.00  0.00    +0.000 A 
BRANCH  11  18
ATOM     17  C   UNL     1       5.764   4.568  17.879  0.00  0.00    +0.000 C 
ATOM     18  O   UNL     1       4.393   4.555  17.497  0.00  0.00    +0.000 OA
ENDBRANCH  11  18
BRANCH  16  19
ATOM     19  O   UNL     1       2.689   4.029  19.808  0.00  0.00    +0.000 OA
BRANCH  19  20
ATOM     20  C   UNL     1       1.396   3.538  20.171  0.00  0.00    +0.000 C 
ATOM     21  C   UNL     1       0.911   2.605  19.065  0.00  0.00    +0.000 C 
ATOM     22  C   UNL     1       1.551   2.753  21.474  0.00  0.00    +0.000 C 
ENDBRANCH  19  20
ENDBRANCH  16  19
ENDBRANCH   1  14
BRANCH   9  23
ATOM     23  S   UNL     1       1.252  10.749  18.238  0.00  0.00    +0.000 S 
BRANCH  23  24
ATOM     24  C   UNL     1       1.686  12.470  18.478  0.00  0.00    +0.000 A 
ATOM     25  C   UNL     1       0.762  13.456  18.801  0.00  0.00    +0.000 A 
ATOM     26  C   UNL     1       1.119  14.808  18.760  0.00  0.00    +0.000 A 
ATOM     27  C   UNL     1       2.436  15.197  18.427  0.00  0.00    +0.000 A 
ATOM     28  C   UNL     1       3.420  14.207  18.247  0.00  0.00    +0.000 A 
ATOM     29  C   UNL     1       3.030  12.855  18.284  0.00  0.00    +0.000 A 
BRANCH  26  30
ATOM     30  O   UNL     1       0.219  15.823  18.990  0.00  0.00    +0.000 OA
ATOM     31  C   UNL     1      -0.815  15.554  19.927  0.00  0.00    +0.000 C 
ENDBRANCH  26  30
BRANCH  27  32
ATOM     32  O   UNL     1       2.582  16.550  18.223  0.00  0.00    +0.000 OA
ATOM     33  C   UNL     1       2.654  17.076  16.909  0.00  0.00    +0.000 C 
ENDBRANCH  27  32
BRANCH  28  34
ATOM     34  O   UNL     1       4.694  14.623  17.972  0.00  0.00    +0.000 OA
ATOM     35  C   UNL     1       5.534  15.085  19.019  0.00  0.00    +0.000 C 
ENDBRANCH  28  34
ENDBRANCH  23  24
ENDBRANCH   9  23
TORSDOF 9
ENDMDL
MODEL 4
REMARK VINA RESULT:      -7.2      2.969      6.183
REMARK  Name = 
REMARK  15 active torsions:
REMARK  status: ('A' for Active; 'I' for Inactive)
REMARK    1  A    between atoms: C_1  and  O_2
REMARK    2  A    between atoms: O_2  and  C_3
REMARK    3  A    between atoms: C_6  and  C_7
REMARK    4  A    between atoms: C_15  and  S_16
REMARK    5  A    between atoms: S_16  and  C_17
REMARK    6  A    between atoms: C_19  and  O_20
REMARK    7  A    between atoms: O_20  and  C_21
REMARK    8  A    between atoms: C_22  and  O_23
REMARK    9  A    between atoms: O_23  and  C_24
REMARK   10  A    between atoms: C_25  and  O_26
REMARK   11  A    between atoms: O_26  and  C_27
REMARK   12  A    between atoms: C_30  and  O_31
REMARK   13  A    between atoms: O_31  and  C_32
REMARK   14  A    between atoms: C_32  and  C_33
REMARK   15  A    between atoms: C_32  and  C_34
REMARK                            x       y       z     vdW  Elec       q    Type
REMARK                         _______ _______ _______ _____ _____    ______ ____
ROOT
ATOM      1  C   UNL     1       4.212   4.380  18.365  0.00  0.00    +0.000 A 
ATOM      2  N   UNL     1       4.486   3.500  19.393  0.00  0.00    +0.000 N 
ATOM      3  C   UNL     1       3.389   3.277  20.179  0.00  0.00    +0.000 A 
ATOM      4  C   UNL     1       3.240   2.370  21.242  0.00  0.00    +0.000 A 
ATOM      5  C   UNL     1       1.986   2.306  21.847  0.00  0.00    +0.000 A 
ATOM      6  C   UNL     1       0.944   3.125  21.421  0.00  0.00    +0.000 A 
ATOM      7  C   UNL     1       1.125   4.031  20.360  0.00  0.00    +0.000 A 
ATOM      8  C   UNL     1       2.379   4.123  19.709  0.00  0.00    +0.000 A 
ATOM      9  C   UNL     1       2.933   4.883  18.618  0.00  0.00    +0.000 A 
ATOM     10  H   UNL     1       5.359   3.004  19.499  0.00  0.00    +0.000 HD
ENDROOT
BRANCH   1  14
ATOM     11  C   UNL     1       7.053   5.136  15.226  0.00  0.00    +0.000 A 
ATOM     12  C   UNL     1       6.224   4.003  15.184  0.00  0.00    +0.000 A 
ATOM     13  C   UNL     1       5.295   3.746  16.198  0.00  0.00    +0.000 A 
ATOM     14  C   UNL     1       5.213   4.580  17.307  0.00  0.00    +0.000 A 
ATOM     15  C   UNL     1       6.108   5.663  17.382  0.00  0.00    +0.000 A 
ATOM     16  C   UNL     1       7.030   5.950  16.364  0.00  0.00    +0.000 A 
BRANCH  11  18
ATOM     17  C   UNL     1       7.472   4.998  12.899  0.00  0.00    +0.000 C 
ATOM     18  O   UNL     1       7.860   5.484  14.179  0.00  0.00    +0.000 OA
ENDBRANCH  11  18
BRANCH  16  19
ATOM     19  O   UNL     1       7.740   7.097  16.609  0.00  0.00    +0.000 OA
BRANCH  19  20
ATOM     20  C   UNL     1       7.590   7.786  17.853  0.00  0.00    +0.000 C 
ATOM     21  C   UNL     1       8.373   7.024  18.919  0.00  0.00    +0.000 C 
ATOM     22  C   UNL     1       8.185   9.183  17.680  0.00  0.00    +0.000 C 
ENDBRANCH  19  20
ENDBRANCH  16  19
ENDBRANCH   1  14
BRANCH   9  23
ATOM     23  S   UNL     1       2.095   6.059  17.591  0.00  0.00    +0.000 S 
BRANCH  23  24
ATOM     24  C   UNL     1       1.881   7.608  18.463  0.00  0.00    +0.000 A 
ATOM     25  C   UNL     1       1.438   7.694  19.777  0.00  0.00    +0.000 A 
ATOM     26  C   UNL     1       1.083   8.929  20.330  0.00  0.00    +0.000 A 
ATOM     27  C   UNL     1       1.203  10.119  19.577  0.00  0.00    +0.000 A 
ATOM     28  C   UNL     1       1.793  10.067  18.300  0.00  0.00    +0.000 A 
ATOM     29  C   UNL     1       2.132   8.809  17.765  0.00  0.00    +0.000 A 
BRANCH  26  30
ATOM     30  O   UNL     1       0.562   9.055  21.598  0.00  0.00    +0.000 OA
ATOM     31  C   UNL     1       1.497   9.128  22.664  0.00  0.00    +0.000 C 
ENDBRANCH  26  30
BRANCH  27  32
ATOM     32  O   UNL     1       0.624  11.215  20.173  0.00  0.00    +0.000 OA
ATOM     33  C   UNL     1      -0.709  11.583  19.861  0.00  0.00    +0.000 C 
ENDBRANCH  27  32
BRANCH  28  34
ATOM     34  O   UNL     1       1.936  11.245  17.620  0.00  0.00    +0.000 OA
ATOM     35  C   UNL     1       2.647  12.324  18.206  0.00  0.00    +0.000 C 
ENDBRANCH  28  34
ENDBRANCH  23  24
ENDBRANCH   9  23
TORSDOF 9
ENDMDL
MODEL 5
REMARK VINA RESULT:      -7.2      3.307      6.463
REMARK  Name = 
REMARK  15 active torsions:
REMARK  status: ('A' for Active; 'I' for Inactive)
REMARK    1  A    between atoms: C_1  and  O_2
REMARK    2  A    between atoms: O_2  and  C_3
REMARK    3  A    between atoms: C_6  and  C_7
REMARK    4  A    between atoms: C_15  and  S_16
REMARK    5  A    between atoms: S_16  and  C_17
REMARK    6  A    between atoms: C_19  and  O_20
REMARK    7  A    between atoms: O_20  and  C_21
REMARK    8  A    between atoms: C_22  and  O_23
REMARK    9  A    between atoms: O_23  and  C_24
REMARK   10  A    between atoms: C_25  and  O_26
REMARK   11  A    between atoms: O_26  and  C_27
REMARK   12  A    between atoms: C_30  and  O_31
REMARK   13  A    between atoms: O_31  and  C_32
REMARK   14  A    between atoms: C_32  and  C_33
REMARK   15  A    between atoms: C_32  and  C_34
REMARK                            x       y       z     vdW  Elec       q    Type
REMARK                         _______ _______ _______ _____ _____    ______ ____
ROOT
ATOM      1  C   UNL     1       4.105   3.958  17.570  0.00  0.00    +0.000 A 
ATOM      2  N   UNL     1       3.401   2.780  17.419  0.00  0.00    +0.000 N 
ATOM      3  C   UNL     1       2.350   2.699  18.292  0.00  0.00    +0.000 A 
ATOM      4  C   UNL     1       1.346   1.719  18.369  0.00  0.00    +0.000 A 
ATOM      5  C   UNL     1       0.353   1.906  19.329  0.00  0.00    +0.000 A 
ATOM      6  C   UNL     1       0.379   3.008  20.179  0.00  0.00    +0.000 A 
ATOM      7  C   UNL     1       1.402   3.969  20.086  0.00  0.00    +0.000 A 
ATOM      8  C   UNL     1       2.427   3.825  19.118  0.00  0.00    +0.000 A 
ATOM      9  C   UNL     1       3.590   4.572  18.715  0.00  0.00    +0.000 A 
ATOM     10  H   UNL     1       3.576   2.102  16.692  0.00  0.00    +0.000 HD
ENDROOT
BRANCH   1  14
ATOM     11  C   UNL     1       7.057   5.152  14.679  0.00  0.00    +0.000 A 
ATOM     12  C   UNL     1       6.163   4.105  14.400  0.00  0.00    +0.000 A 
ATOM     13  C   UNL     1       5.198   3.707  15.331  0.00  0.00    +0.000 A 
ATOM     14  C   UNL     1       5.140   4.305  16.585  0.00  0.00    +0.000 A 
ATOM     15  C   UNL     1       6.095   5.292  16.887  0.00  0.00    +0.000 A 
ATOM     16  C   UNL     1       7.056   5.720  15.957  0.00  0.00    +0.000 A 
BRANCH  11  18
ATOM     17  C   UNL     1       7.794   5.094  12.429  0.00  0.00    +0.000 C 
ATOM     18  O   UNL     1       7.907   5.653  13.732  0.00  0.00    +0.000 OA
ENDBRANCH  11  18
BRANCH  16  19
ATOM     19  O   UNL     1       7.826   6.748  16.438  0.00  0.00    +0.000 OA
BRANCH  19  20
ATOM     20  C   UNL     1       7.495   7.380  17.676  0.00  0.00    +0.000 C 
ATOM     21  C   UNL     1       8.171   6.606  18.805  0.00  0.00    +0.000 C 
ATOM     22  C   UNL     1       8.047   8.805  17.628  0.00  0.00    +0.000 C 
ENDBRANCH  19  20
ENDBRANCH  16  19
ENDBRANCH   1  14
BRANCH   9  23
ATOM     23  S   UNL     1       4.148   6.126  19.358  0.00  0.00    +0.000 S 
BRANCH  23  24
ATOM     24  C   UNL     1       2.825   7.333  19.308  0.00  0.00    +0.000 A 
ATOM     25  C   UNL     1       2.690   8.281  18.302  0.00  0.00    +0.000 A 
ATOM     26  C   UNL     1       1.773   9.330  18.430  0.00  0.00    +0.000 A 
ATOM     27  C   UNL     1       0.939   9.425  19.567  0.00  0.00    +0.000 A 
ATOM     28  C   UNL     1       0.957   8.390  20.521  0.00  0.00    +0.000 A 
ATOM     29  C   UNL     1       1.897   7.352  20.371  0.00  0.00    +0.000 A 
BRANCH  26  30
ATOM     30  O   UNL     1       1.660  10.338  17.500  0.00  0.00    +0.000 OA
ATOM     31  C   UNL     1       2.488  11.476  17.695  0.00  0.00    +0.000 C 
ENDBRANCH  26  30
BRANCH  27  32
ATOM     32  O   UNL     1       0.246  10.610  19.651  0.00  0.00    +0.000 OA
ATOM     33  C   UNL     1      -1.098  10.691  19.208  0.00  0.00    +0.000 C 
ENDBRANCH  27  32
BRANCH  28  34
ATOM     34  O   UNL     1       0.102   8.493  21.583  0.00  0.00    +0.000 OA
ATOM     35  C   UNL     1       0.455   9.282  22.709  0.00  0.00    +0.000 C 
ENDBRANCH  28  34
ENDBRANCH  23  24
ENDBRANCH   9  23
TORSDOF 9
ENDMDL
MODEL 6
REMARK VINA RESULT:      -7.1      3.113      4.299
REMARK  Name = 
REMARK  15 active torsions:
REMARK  status: ('A' for Active; 'I' for Inactive)
REMARK    1  A    between atoms: C_1  and  O_2
REMARK    2  A    between atoms: O_2  and  C_3
REMARK    3  A    between atoms: C_6  and  C_7
REMARK    4  A    between atoms: C_15  and  S_16
REMARK    5  A    between atoms: S_16  and  C_17
REMARK    6  A    between atoms: C_19  and  O_20
REMARK    7  A    between atoms: O_20  and  C_21
REMARK    8  A    between atoms: C_22  and  O_23
REMARK    9  A    between atoms: O_23  and  C_24
REMARK   10  A    between atoms: C_25  and  O_26
REMARK   11  A    between atoms: O_26  and  C_27
REMARK   12  A    between atoms: C_30  and  O_31
REMARK   13  A    between atoms: O_31  and  C_32
REMARK   14  A    between atoms: C_32  and  C_33
REMARK   15  A    between atoms: C_32  and  C_34
REMARK                            x       y       z     vdW  Elec       q    Type
REMARK                         _______ _______ _______ _____ _____    ______ ____
ROOT
ATOM      1  C   UNL     1       1.643   8.413  19.887  0.00  0.00    +0.000 A 
ATOM      2  N   UNL     1       1.638   8.218  21.253  0.00  0.00    +0.000 N 
ATOM      3  C   UNL     1       0.773   9.069  21.885  0.00  0.00    +0.000 A 
ATOM      4  C   UNL     1       0.408   9.101  23.242  0.00  0.00    +0.000 A 
ATOM      5  C   UNL     1      -0.545  10.046  23.618  0.00  0.00    +0.000 A 
ATOM      6  C   UNL     1      -1.087  10.925  22.684  0.00  0.00    +0.000 A 
ATOM      7  C   UNL     1      -0.696  10.876  21.334  0.00  0.00    +0.000 A 
ATOM      8  C   UNL     1       0.263   9.925  20.905  0.00  0.00    +0.000 A 
ATOM      9  C   UNL     1       0.884   9.563  19.657  0.00  0.00    +0.000 A 
ATOM     10  H   UNL     1       2.137   7.477  21.724  0.00  0.00    +0.000 HD
ENDROOT
BRANCH   1  14
ATOM     11  C   UNL     1       3.854   5.569  17.535  0.00  0.00    +0.000 A 
ATOM     12  C   UNL     1       3.860   6.933  17.202  0.00  0.00    +0.000 A 
ATOM     13  C   UNL     1       3.146   7.869  17.959  0.00  0.00    +0.000 A 
ATOM     14  C   UNL     1       2.361   7.457  19.030  0.00  0.00    +0.000 A 
ATOM     15  C   UNL     1       2.291   6.079  19.302  0.00  0.00    +0.000 A 
ATOM     16  C   UNL     1       3.019   5.129  18.568  0.00  0.00    +0.000 A 
BRANCH  11  18
ATOM     17  C   UNL     1       5.281   5.109  15.703  0.00  0.00    +0.000 C 
ATOM     18  O   UNL     1       4.657   4.663  16.901  0.00  0.00    +0.000 OA
ENDBRANCH  11  18
BRANCH  16  19
ATOM     19  O   UNL     1       2.865   3.859  19.061  0.00  0.00    +0.000 OA
BRANCH  19  20
ATOM     20  C   UNL     1       2.260   2.842  18.259  0.00  0.00    +0.000 C 
ATOM     21  C   UNL     1       3.171   1.617  18.271  0.00  0.00    +0.000 C 
ATOM     22  C   UNL     1       0.917   2.489  18.900  0.00  0.00    +0.000 C 
ENDBRANCH  19  20
ENDBRANCH  16  19
ENDBRANCH   1  14
BRANCH   9  23
ATOM     23  S   UNL     1       0.570  10.257  18.057  0.00  0.00    +0.000 S 
BRANCH  23  24
ATOM     24  C   UNL     1      -1.103  10.891  17.969  0.00  0.00    +0.000 A 
ATOM     25  C   UNL     1      -1.682  11.668  18.965  0.00  0.00    +0.000 A 
ATOM     26  C   UNL     1      -3.052  11.948  18.944  0.00  0.00    +0.000 A 
ATOM     27  C   UNL     1      -3.869  11.480  17.889  0.00  0.00    +0.000 A 
ATOM     28  C   UNL     1      -3.271  10.824  16.797  0.00  0.00    +0.000 A 
ATOM     29  C   UNL     1      -1.891  10.547  16.850  0.00  0.00    +0.000 A 
BRANCH  26  30
ATOM     30  O   UNL     1      -3.686  12.642  19.949  0.00  0.00    +0.000 OA
ATOM     31  C   UNL     1      -2.949  13.693  20.557  0.00  0.00    +0.000 C 
ENDBRANCH  26  30
BRANCH  27  32
ATOM     32  O   UNL     1      -5.215  11.652  18.110  0.00  0.00    +0.000 OA
ATOM     33  C   UNL     1      -6.024  10.558  18.507  0.00  0.00    +0.000 C 
ENDBRANCH  27  32
BRANCH  28  34
ATOM     34  O   UNL     1      -4.086  10.428  15.773  0.00  0.00    +0.000 OA
ATOM     35  C   UNL     1      -3.536  10.138  14.496  0.00  0.00    +0.000 C 
ENDBRANCH  28  34
ENDBRANCH  23  24
ENDBRANCH   9  23
TORSDOF 9
ENDMDL
MODEL 7
REMARK VINA RESULT:      -7.1      0.959      1.121
REMARK  Name = 
REMARK  15 active torsions:
REMARK  status: ('A' for Active; 'I' for Inactive)
REMARK    1  A    between atoms: C_1  and  O_2
REMARK    2  A    between atoms: O_2  and  C_3
REMARK    3  A    between atoms: C_6  and  C_7
REMARK    4  A    between atoms: C_15  and  S_16
REMARK    5  A    between atoms: S_16  and  C_17
REMARK    6  A    between atoms: C_19  and  O_20
REMARK    7  A    between atoms: O_20  and  C_21
REMARK    8  A    between atoms: C_22  and  O_23
REMARK    9  A    between atoms: O_23  and  C_24
REMARK   10  A    between atoms: C_25  and  O_26
REMARK   11  A    between atoms: O_26  and  C_27
REMARK   12  A    between atoms: C_30  and  O_31
REMARK   13  A    between atoms: O_31  and  C_32
REMARK   14  A    between atoms: C_32  and  C_33
REMARK   15  A    between atoms: C_32  and  C_34
REMARK                            x       y       z     vdW  Elec       q    Type
REMARK                         _______ _______ _______ _____ _____    ______ ____
ROOT
ATOM      1  C   UNL     1       0.946   9.239  20.445  0.00  0.00    +0.000 A 
ATOM      2  N   UNL     1       0.461   9.131  21.732  0.00  0.00    +0.000 N 
ATOM      3  C   UNL     1      -0.335  10.192  22.067  0.00  0.00    +0.000 A 
ATOM      4  C   UNL     1      -1.095  10.386  23.233  0.00  0.00    +0.000 A 
ATOM      5  C   UNL     1      -1.868  11.544  23.299  0.00  0.00    +0.000 A 
ATOM      6  C   UNL     1      -1.862  12.467  22.257  0.00  0.00    +0.000 A 
ATOM      7  C   UNL     1      -1.084  12.251  21.105  0.00  0.00    +0.000 A 
ATOM      8  C   UNL     1      -0.291  11.083  20.991  0.00  0.00    +0.000 A 
ATOM      9  C   UNL     1       0.592  10.517  20.004  0.00  0.00    +0.000 A 
ATOM     10  H   UNL     1       0.595   8.325  22.325  0.00  0.00    +0.000 HD
ENDROOT
BRANCH   1  14
ATOM     11  C   UNL     1       3.147   5.907  18.845  0.00  0.00    +0.000 A 
ATOM     12  C   UNL     1       2.992   7.088  18.100  0.00  0.00    +0.000 A 
ATOM     13  C   UNL     1       2.280   8.180  18.609  0.00  0.00    +0.000 A 
ATOM     14  C   UNL     1       1.654   8.096  19.848  0.00  0.00    +0.000 A 
ATOM     15  C   UNL     1       1.741   6.880  20.548  0.00  0.00    +0.000 A 
ATOM     16  C   UNL     1       2.471   5.783  20.063  0.00  0.00    +0.000 A 
BRANCH  11  18
ATOM     17  C   UNL     1       3.682   4.351  17.143  0.00  0.00    +0.000 C 
ATOM     18  O   UNL     1       3.959   4.888  18.431  0.00  0.00    +0.000 OA
ENDBRANCH  11  18
BRANCH  16  19
ATOM     19  O   UNL     1       2.488   4.735  20.948  0.00  0.00    +0.000 OA
BRANCH  19  20
ATOM     20  C   UNL     1       1.376   3.839  21.027  0.00  0.00    +0.000 C 
ATOM     21  C   UNL     1       0.924   3.512  19.606  0.00  0.00    +0.000 C 
ATOM     22  C   UNL     1       1.861   2.565  21.718  0.00  0.00    +0.000 C 
ENDBRANCH  19  20
ENDBRANCH  16  19
ENDBRANCH   1  14
BRANCH   9  23
ATOM     23  S   UNL     1       0.976  11.169  18.401  0.00  0.00    +0.000 S 
BRANCH  23  24
ATOM     24  C   UNL     1       1.462  12.888  18.527  0.00  0.00    +0.000 A 
ATOM     25  C   UNL     1       2.782  13.304  18.650  0.00  0.00    +0.000 A 
ATOM     26  C   UNL     1       3.083  14.635  18.963  0.00  0.00    +0.000 A 
ATOM     27  C   UNL     1       2.054  15.589  19.123  0.00  0.00    +0.000 A 
ATOM     28  C   UNL     1       0.724  15.218  18.852  0.00  0.00    +0.000 A 
ATOM     29  C   UNL     1       0.449  13.870  18.548  0.00  0.00    +0.000 A 
BRANCH  26  30
ATOM     30  O   UNL     1       4.369  15.076  19.176  0.00  0.00    +0.000 OA
ATOM     31  C   UNL     1       5.265  14.972  18.079  0.00  0.00    +0.000 C 
ENDBRANCH  26  30
BRANCH  27  32
ATOM     32  O   UNL     1       2.485  16.792  19.630  0.00  0.00    +0.000 OA
ATOM     33  C   UNL     1       2.580  16.990  21.031  0.00  0.00    +0.000 C 
ENDBRANCH  27  32
BRANCH  28  34
ATOM     34  O   UNL     1      -0.240  16.180  18.971  0.00  0.00    +0.000 OA
ATOM     35  C   UNL     1      -1.138  16.158  20.070  0.00  0.00    +0.000 C 
ENDBRANCH  28  34
ENDBRANCH  23  24
ENDBRANCH   9  23
TORSDOF 9
ENDMDL
MODEL 8
REMARK VINA RESULT:      -7.1      1.693      2.565
REMARK  Name = 
REMARK  15 active torsions:
REMARK  status: ('A' for Active; 'I' for Inactive)
REMARK    1  A    between atoms: C_1  and  O_2
REMARK    2  A    between atoms: O_2  and  C_3
REMARK    3  A    between atoms: C_6  and  C_7
REMARK    4  A    between atoms: C_15  and  S_16
REMARK    5  A    between atoms: S_16  and  C_17
REMARK    6  A    between atoms: C_19  and  O_20
REMARK    7  A    between atoms: O_20  and  C_21
REMARK    8  A    between atoms: C_22  and  O_23
REMARK    9  A    between atoms: O_23  and  C_24
REMARK   10  A    between atoms: C_25  and  O_26
REMARK   11  A    between atoms: O_26  and  C_27
REMARK   12  A    between atoms: C_30  and  O_31
REMARK   13  A    between atoms: O_31  and  C_32
REMARK   14  A    between atoms: C_32  and  C_33
REMARK   15  A    between atoms: C_32  and  C_34
REMARK                            x       y       z     vdW  Elec       q    Type
REMARK                         _______ _______ _______ _____ _____    ______ ____
ROOT
ATOM      1  C   UNL     1       0.963   9.911  20.303  0.00  0.00    +0.000 A 
ATOM      2  N   UNL     1       0.325   9.616  21.491  0.00  0.00    +0.000 N 
ATOM      3  C   UNL     1      -0.356  10.695  21.985  0.00  0.00    +0.000 A 
ATOM      4  C   UNL     1      -1.210  10.760  23.099  0.00  0.00    +0.000 A 
ATOM      5  C   UNL     1      -1.824  11.984  23.354  0.00  0.00    +0.000 A 
ATOM      6  C   UNL     1      -1.578  13.090  22.545  0.00  0.00    +0.000 A 
ATOM      7  C   UNL     1      -0.711  12.999  21.442  0.00  0.00    +0.000 A 
ATOM      8  C   UNL     1      -0.072  11.771  21.138  0.00  0.00    +0.000 A 
ATOM      9  C   UNL     1       0.835  11.291  20.127  0.00  0.00    +0.000 A 
ATOM     10  H   UNL     1       0.283   8.694  21.901  0.00  0.00    +0.000 HD
ENDROOT
BRANCH   1  14
ATOM     11  C   UNL     1       2.912   6.732  18.158  0.00  0.00    +0.000 A 
ATOM     12  C   UNL     1       2.576   7.933  17.511  0.00  0.00    +0.000 A 
ATOM     13  C   UNL     1       1.943   8.975  18.197  0.00  0.00    +0.000 A 
ATOM     14  C   UNL     1       1.576   8.821  19.529  0.00  0.00    +0.000 A 
ATOM     15  C   UNL     1       1.837   7.583  20.144  0.00  0.00    +0.000 A 
ATOM     16  C   UNL     1       2.492   6.535  19.478  0.00  0.00    +0.000 A 
BRANCH  11  18
ATOM     17  C   UNL     1       4.850   6.200  16.907  0.00  0.00    +0.000 C 
ATOM     18  O   UNL     1       3.658   5.762  17.548  0.00  0.00    +0.000 OA
ENDBRANCH  11  18
BRANCH  16  19
ATOM     19  O   UNL     1       2.715   5.456  20.294  0.00  0.00    +0.000 OA
BRANCH  19  20
ATOM     20  C   UNL     1       1.637   4.589  20.655  0.00  0.00    +0.000 C 
ATOM     21  C   UNL     1       1.176   3.852  19.400  0.00  0.00    +0.000 C 
ATOM     22  C   UNL     1       2.177   3.582  21.671  0.00  0.00    +0.000 C 
ENDBRANCH  19  20
ENDBRANCH  16  19
ENDBRANCH   1  14
BRANCH   9  23
ATOM     23  S   UNL     1       1.480  12.192  18.744  0.00  0.00    +0.000 S 
BRANCH  23  24
ATOM     24  C   UNL     1       2.164  13.757  19.283  0.00  0.00    +0.000 A 
ATOM     25  C   UNL     1       1.907  14.966  18.649  0.00  0.00    +0.000 A 
ATOM     26  C   UNL     1       2.637  16.113  18.979  0.00  0.00    +0.000 A 
ATOM     27  C   UNL     1       3.626  16.074  19.988  0.00  0.00    +0.000 A 
ATOM     28  C   UNL     1       3.791  14.898  20.743  0.00  0.00    +0.000 A 
ATOM     29  C   UNL     1       3.049  13.756  20.383  0.00  0.00    +0.000 A 
BRANCH  26  30
ATOM     30  O   UNL     1       2.477  17.312  18.322  0.00  0.00    +0.000 OA
ATOM     31  C   UNL     1       2.638  17.289  16.911  0.00  0.00    +0.000 C 
ENDBRANCH  26  30
BRANCH  27  32
ATOM     32  O   UNL     1       4.398  17.210  20.055  0.00  0.00    +0.000 OA
ATOM     33  C   UNL     1       5.687  17.239  19.465  0.00  0.00    +0.000 C 
ENDBRANCH  27  32
BRANCH  28  34
ATOM     34  O   UNL     1       4.723  14.913  21.743  0.00  0.00    +0.000 OA
ATOM     35  C   UNL     1       4.377  15.392  23.034  0.00  0.00    +0.000 C 
ENDBRANCH  28  34
ENDBRANCH  23  24
ENDBRANCH   9  23
TORSDOF 9
ENDMDL
MODEL 9
REMARK VINA RESULT:      -7.0      1.622      2.200
REMARK  Name = 
REMARK  15 active torsions:
REMARK  status: ('A' for Active; 'I' for Inactive)
REMARK    1  A    between atoms: C_1  and  O_2
REMARK    2  A    between atoms: O_2  and  C_3
REMARK    3  A    between atoms: C_6  and  C_7
REMARK    4  A    between atoms: C_15  and  S_16
REMARK    5  A    between atoms: S_16  and  C_17
REMARK    6  A    between atoms: C_19  and  O_20
REMARK    7  A    between atoms: O_20  and  C_21
REMARK    8  A    between atoms: C_22  and  O_23
REMARK    9  A    between atoms: O_23  and  C_24
REMARK   10  A    between atoms: C_25  and  O_26
REMARK   11  A    between atoms: O_26  and  C_27
REMARK   12  A    between atoms: C_30  and  O_31
REMARK   13  A    between atoms: O_31  and  C_32
REMARK   14  A    between atoms: C_32  and  C_33
REMARK   15  A    between atoms: C_32  and  C_34
REMARK                            x       y       z     vdW  Elec       q    Type
REMARK                         _______ _______ _______ _____ _____    ______ ____
ROOT
ATOM      1  C   UNL     1       1.010   9.774  20.317  0.00  0.00    +0.000 A 
ATOM      2  N   UNL     1       0.361   9.460  21.494  0.00  0.00    +0.000 N 
ATOM      3  C   UNL     1      -0.341  10.526  21.988  0.00  0.00    +0.000 A 
ATOM      4  C   UNL     1      -1.210  10.569  23.092  0.00  0.00    +0.000 A 
ATOM      5  C   UNL     1      -1.844  11.782  23.351  0.00  0.00    +0.000 A 
ATOM      6  C   UNL     1      -1.602  12.899  22.554  0.00  0.00    +0.000 A 
ATOM      7  C   UNL     1      -0.720  12.829  21.462  0.00  0.00    +0.000 A 
ATOM      8  C   UNL     1      -0.060  11.613  21.156  0.00  0.00    +0.000 A 
ATOM      9  C   UNL     1       0.865  11.154  20.151  0.00  0.00    +0.000 A 
ATOM     10  H   UNL     1       0.326   8.534  21.895  0.00  0.00    +0.000 HD
ENDROOT
BRANCH   1  14
ATOM     11  C   UNL     1       3.025   6.637  18.172  0.00  0.00    +0.000 A 
ATOM     12  C   UNL     1       2.712   7.851  17.539  0.00  0.00    +0.000 A 
ATOM     13  C   UNL     1       2.058   8.880  18.226  0.00  0.00    +0.000 A 
ATOM     14  C   UNL     1       1.646   8.699  19.541  0.00  0.00    +0.000 A 
ATOM     15  C   UNL     1       1.886   7.449  20.139  0.00  0.00    +0.000 A 
ATOM     16  C   UNL     1       2.562   6.414  19.473  0.00  0.00    +0.000 A 
BRANCH  11  18
ATOM     17  C   UNL     1       4.824   6.151  16.711  0.00  0.00    +0.000 C 
ATOM     18  O   UNL     1       3.791   5.679  17.567  0.00  0.00    +0.000 OA
ENDBRANCH  11  18
BRANCH  16  19
ATOM     19  O   UNL     1       2.758   5.318  20.274  0.00  0.00    +0.000 OA
BRANCH  19  20
ATOM     20  C   UNL     1       1.648   4.511  20.677  0.00  0.00    +0.000 C 
ATOM     21  C   UNL     1       1.115   3.783  19.447  0.00  0.00    +0.000 C 
ATOM     22  C   UNL     1       2.165   3.493  21.693  0.00  0.00    +0.000 C 
ENDBRANCH  19  20
ENDBRANCH  16  19
ENDBRANCH   1  14
BRANCH   9  23
ATOM     23  S   UNL     1       1.516  12.076  18.785  0.00  0.00    +0.000 S 
BRANCH  23  24
ATOM     24  C   UNL     1       2.316  13.570  19.365  0.00  0.00    +0.000 A 
ATOM     25  C   UNL     1       2.840  13.712  20.644  0.00  0.00    +0.000 A 
ATOM     26  C   UNL     1       3.253  14.965  21.109  0.00  0.00    +0.000 A 
ATOM     27  C   UNL     1       3.182  16.104  20.275  0.00  0.00    +0.000 A 
ATOM     28  C   UNL     1       2.799  15.948  18.931  0.00  0.00    +0.000 A 
ATOM     29  C   UNL     1       2.379  14.677  18.493  0.00  0.00    +0.000 A 
BRANCH  26  30
ATOM     30  O   UNL     1       3.700  15.172  22.394  0.00  0.00    +0.000 OA
ATOM     31  C   UNL     1       4.953  14.593  22.731  0.00  0.00    +0.000 C 
ENDBRANCH  26  30
BRANCH  27  32
ATOM     32  O   UNL     1       3.422  17.289  20.931  0.00  0.00    +0.000 OA
ATOM     33  C   UNL     1       2.345  18.080  21.405  0.00  0.00    +0.000 C 
ENDBRANCH  27  32
BRANCH  28  34
ATOM     34  O   UNL     1       2.788  17.064  18.141  0.00  0.00    +0.000 OA
ATOM     35  C   UNL     1       1.554  17.641  17.739  0.00  0.00    +0.000 C 
ENDBRANCH  28  34
ENDBRANCH  23  24
ENDBRANCH   9  23
TORSDOF 9
ENDMDL
