MODEL 1
REMARK VINA RESULT:      -7.4      0.000      0.000
REMARK  Name = 
REMARK  7 active torsions:
REMARK  status: ('A' for Active; 'I' for Inactive)
REMARK    1  A    between atoms: C_1  and  C_2
REMARK    2  A    between atoms: C_2  and  N_3
REMARK    3  A    between atoms: N_3  and  C_4
REMARK    4  A    between atoms: C_10  and  C_11
REMARK    5  A    between atoms: C_16  and  N_17
REMARK    6  A    between atoms: N_17  and  C_18
REMARK    7  A    between atoms: C_18  and  C_19
REMARK                            x       y       z     vdW  Elec       q    Type
REMARK                         _______ _______ _______ _____ _____    ______ ____
ROOT
ATOM      1  C   UNL     1       5.927   4.348  16.350  0.00  0.00    +0.000 A 
ATOM      2  N   UNL     1       4.680   3.809  16.317  0.00  0.00    +0.000 NA
ATOM      3  C   UNL     1       4.089   3.498  17.482  0.00  0.00    +0.000 A 
ATOM      4  C   UNL     1       2.778   3.047  17.501  0.00  0.00    +0.000 A 
ATOM      5  C   UNL     1       2.117   2.799  18.712  0.00  0.00    +0.000 A 
ATOM      6 CL   UNL     1       0.463   2.321  18.644  0.00  0.00    +0.000 Cl
ATOM      7  C   UNL     1       2.794   2.972  19.924  0.00  0.00    +0.000 A 
ATOM      8  C   UNL     1       4.123   3.384  19.899  0.00  0.00    +0.000 A 
ATOM      9  C   UNL     1       4.761   3.668  18.706  0.00  0.00    +0.000 A 
ATOM     10  N   UNL     1       5.996   4.159  18.756  0.00  0.00    +0.000 NA
ATOM     11  C   UNL     1       6.586   4.545  17.597  0.00  0.00    +0.000 A 
ENDROOT
BRANCH   1  12
ATOM     12  N   UNL     1       6.537   4.698  15.121  0.00  0.00    +0.000 N 
ATOM     13  H   UNL     1       6.594   5.703  15.024  0.00  0.00    +0.000 HD
BRANCH  12  15
ATOM     14  C   UNL     1       6.813   4.048  12.771  0.00  0.00    +0.000 C 
ATOM     15  C   UNL     1       5.872   4.086  13.966  0.00  0.00    +0.000 C 
ENDBRANCH  12  15
ENDBRANCH   1  12
BRANCH   7  16
ATOM     16  C   UNL     1       2.154   2.768  21.187  0.00  0.00    +0.000 C 
ATOM     17  N   UNL     1       1.674   2.577  22.228  0.00  0.00    +0.000 NA
ENDBRANCH   7  16
BRANCH  11  18
ATOM     18  N   UNL     1       7.854   5.175  17.711  0.00  0.00    +0.000 N 
ATOM     19  H   UNL     1       8.263   5.323  16.799  0.00  0.00    +0.000 HD
BRANCH  18  20
ATOM     20  C   UNL     1       7.715   6.434  18.460  0.00  0.00    +0.000 C 
ATOM     21  C   UNL     1       7.604   7.632  17.541  0.00  0.00    +0.000 C 
ENDBRANCH  18  20
ENDBRANCH  11  18
TORSDOF 5
ENDMDL
MODEL 2
REMARK VINA RESULT:      -7.2      1.830      3.782
REMARK  Name = 
REMARK  7 active torsions:
REMARK  status: ('A' for Active; 'I' for Inactive)
REMARK    1  A    between atoms: C_1  and  C_2
REMARK    2  A    between atoms: C_2  and  N_3
REMARK    3  A    between atoms: N_3  and  C_4
REMARK    4  A    between atoms: C_10  and  C_11
REMARK    5  A    between atoms: C_16  and  N_17
REMARK    6  A    between atoms: N_17  and  C_18
REMARK    7  A    between atoms: C_18  and  C_19
REMARK                            x       y       z     vdW  Elec       q    Type
REMARK                         _______ _______ _______ _____ _____    ______ ____
ROOT
ATOM      1  C   UNL     1       6.405   6.174  16.914  0.00  0.00    +0.000 A 
ATOM      2  N   UNL     1       5.721   6.243  18.085  0.00  0.00    +0.000 NA
ATOM      3  C   UNL     1       4.614   5.494  18.221  0.00  0.00    +0.000 A 
ATOM      4  C   UNL     1       3.946   5.451  19.436  0.00  0.00    +0.000 A 
ATOM      5  C   UNL     1       2.840   4.610  19.623  0.00  0.00    +0.000 A 
ATOM      6 CL   UNL     1       2.122   4.558  21.188  0.00  0.00    +0.000 Cl
ATOM      7  C   UNL     1       2.374   3.827  18.562  0.00  0.00    +0.000 A 
ATOM      8  C   UNL     1       3.020   3.906  17.332  0.00  0.00    +0.000 A 
ATOM      9  C   UNL     1       4.137   4.703  17.161  0.00  0.00    +0.000 A 
ATOM     10  N   UNL     1       4.772   4.653  15.994  0.00  0.00    +0.000 NA
ATOM     11  C   UNL     1       5.930   5.346  15.858  0.00  0.00    +0.000 A 
ENDROOT
BRANCH   1  12
ATOM     12  N   UNL     1       7.586   6.946  16.783  0.00  0.00    +0.000 N 
ATOM     13  H   UNL     1       8.327   6.396  16.371  0.00  0.00    +0.000 HD
BRANCH  12  15
ATOM     14  C   UNL     1       8.139   9.059  17.900  0.00  0.00    +0.000 C 
ATOM     15  C   UNL     1       8.009   7.551  18.050  0.00  0.00    +0.000 C 
ENDBRANCH  12  15
ENDBRANCH   1  12
BRANCH   7  16
ATOM     16  C   UNL     1       1.272   2.926  18.710  0.00  0.00    +0.000 C 
ATOM     17  N   UNL     1       0.406   2.157  18.809  0.00  0.00    +0.000 NA
ENDBRANCH   7  16
BRANCH  11  18
ATOM     18  N   UNL     1       6.636   5.166  14.638  0.00  0.00    +0.000 N 
ATOM     19  H   UNL     1       7.627   5.307  14.774  0.00  0.00    +0.000 HD
BRANCH  18  20
ATOM     20  C   UNL     1       6.343   3.832  14.090  0.00  0.00    +0.000 C 
ATOM     21  C   UNL     1       6.395   3.815  12.577  0.00  0.00    +0.000 C 
ENDBRANCH  18  20
ENDBRANCH  11  18
TORSDOF 5
ENDMDL
MODEL 3
REMARK VINA RESULT:      -6.6      3.814      4.540
REMARK  Name = 
REMARK  7 active torsions:
REMARK  status: ('A' for Active; 'I' for Inactive)
REMARK    1  A    between atoms: C_1  and  C_2
REMARK    2  A    between atoms: C_2  and  N_3
REMARK    3  A    between atoms: N_3  and  C_4
REMARK    4  A    between atoms: C_10  and  C_11
REMARK    5  A    between atoms: C_16  and  N_17
REMARK    6  A    between atoms: N_17  and  C_18
REMARK    7  A    between atoms: C_18  and  C_19
REMARK                            x       y       z     vdW  Elec       q    Type
REMARK                         _______ _______ _______ _____ _____    ______ ____
ROOT
ATOM      1  C   UNL     1       5.057   4.697  17.602  0.00  0.00    +0.000 A 
ATOM      2  N   UNL     1       4.529   5.861  17.141  0.00  0.00    +0.000 NA
ATOM      3  C   UNL     1       3.652   6.515  17.920  0.00  0.00    +0.000 A 
ATOM      4  C   UNL     1       3.172   7.759  17.537  0.00  0.00    +0.000 A 
ATOM      5  C   UNL     1       2.323   8.494  18.375  0.00  0.00    +0.000 A 
ATOM      6 CL   UNL     1       1.841  10.065  17.856  0.00  0.00    +0.000 Cl
ATOM      7  C   UNL     1       1.920   7.958  19.602  0.00  0.00    +0.000 A 
ATOM      8  C   UNL     1       2.370   6.692  19.964  0.00  0.00    +0.000 A 
ATOM      9  C   UNL     1       3.241   5.985  19.155  0.00  0.00    +0.000 A 
ATOM     10  N   UNL     1       3.718   4.828  19.606  0.00  0.00    +0.000 NA
ATOM     11  C   UNL     1       4.657   4.185  18.869  0.00  0.00    +0.000 A 
ENDROOT
BRANCH   1  12
ATOM     12  N   UNL     1       6.001   4.022  16.790  0.00  0.00    +0.000 N 
ATOM     13  H   UNL     1       6.814   3.760  17.330  0.00  0.00    +0.000 HD
BRANCH  12  15
ATOM     14  C   UNL     1       6.223   3.942  14.348  0.00  0.00    +0.000 C 
ATOM     15  C   UNL     1       6.374   4.792  15.599  0.00  0.00    +0.000 C 
ENDBRANCH  12  15
ENDBRANCH   1  12
BRANCH   7  16
ATOM     16  C   UNL     1       1.085   8.684  20.510  0.00  0.00    +0.000 C 
ATOM     17  N   UNL     1       0.379   9.288  21.209  0.00  0.00    +0.000 NA
ENDBRANCH   7  16
BRANCH  11  18
ATOM     18  N   UNL     1       5.225   3.018  19.447  0.00  0.00    +0.000 N 
ATOM     19  H   UNL     1       5.775   3.253  20.261  0.00  0.00    +0.000 HD
BRANCH  18  20
ATOM     20  C   UNL     1       4.159   2.056  19.766  0.00  0.00    +0.000 C 
ATOM     21  C   UNL     1       3.551   1.447  18.519  0.00  0.00    +0.000 C 
ENDBRANCH  18  20
ENDBRANCH  11  18
TORSDOF 5
ENDMDL
MODEL 4
REMARK VINA RESULT:      -6.4      1.559      1.647
REMARK  Name = 
REMARK  7 active torsions:
REMARK  status: ('A' for Active; 'I' for Inactive)
REMARK    1  A    between atoms: C_1  and  C_2
REMARK    2  A    between atoms: C_2  and  N_3
REMARK    3  A    between atoms: N_3  and  C_4
REMARK    4  A    between atoms: C_10  and  C_11
REMARK    5  A    between atoms: C_16  and  N_17
REMARK    6  A    between atoms: N_17  and  C_18
REMARK    7  A    between atoms: C_18  and  C_19
REMARK                            x       y       z     vdW  Elec       q    Type
REMARK                         _______ _______ _______ _____ _____    ______ ____
ROOT
ATOM      1  C   UNL     1       6.668   4.883  15.999  0.00  0.00    +0.000 A 
ATOM      2  N   UNL     1       5.715   3.931  16.180  0.00  0.00    +0.000 NA
ATOM      3  C   UNL     1       4.818   4.107  17.164  0.00  0.00    +0.000 A 
ATOM      4  C   UNL     1       3.765   3.217  17.315  0.00  0.00    +0.000 A 
ATOM      5  C   UNL     1       2.772   3.431  18.281  0.00  0.00    +0.000 A 
ATOM      6 CL   UNL     1       1.457   2.320  18.344  0.00  0.00    +0.000 Cl
ATOM      7  C   UNL     1       2.856   4.537  19.133  0.00  0.00    +0.000 A 
ATOM      8  C   UNL     1       3.937   5.404  19.007  0.00  0.00    +0.000 A 
ATOM      9  C   UNL     1       4.894   5.215  18.026  0.00  0.00    +0.000 A 
ATOM     10  N   UNL     1       5.842   6.137  17.888  0.00  0.00    +0.000 NA
ATOM     11  C   UNL     1       6.716   6.017  16.858  0.00  0.00    +0.000 A 
ENDROOT
BRANCH   1  12
ATOM     12  N   UNL     1       7.598   4.706  14.944  0.00  0.00    +0.000 N 
ATOM     13  H   UNL     1       8.440   5.236  15.120  0.00  0.00    +0.000 HD
BRANCH  12  15
ATOM     14  C   UNL     1       6.503   3.765  12.961  0.00  0.00    +0.000 C 
ATOM     15  C   UNL     1       7.028   5.025  13.631  0.00  0.00    +0.000 C 
ENDBRANCH  12  15
ENDBRANCH   1  12
BRANCH   7  16
ATOM     16  C   UNL     1       1.850   4.820  20.111  0.00  0.00    +0.000 C 
ATOM     17  N   UNL     1       1.040   5.100  20.897  0.00  0.00    +0.000 NA
ENDBRANCH   7  16
BRANCH  11  18
ATOM     18  N   UNL     1       7.634   7.086  16.678  0.00  0.00    +0.000 N 
ATOM     19  H   UNL     1       7.254   7.782  16.052  0.00  0.00    +0.000 HD
BRANCH  18  20
ATOM     20  C   UNL     1       7.986   7.660  17.987  0.00  0.00    +0.000 C 
ATOM     21  C   UNL     1       8.166   9.162  17.918  0.00  0.00    +0.000 C 
ENDBRANCH  18  20
ENDBRANCH  11  18
TORSDOF 5
ENDMDL
MODEL 5
REMARK VINA RESULT:      -6.3      3.913      4.771
REMARK  Name = 
REMARK  7 active torsions:
REMARK  status: ('A' for Active; 'I' for Inactive)
REMARK    1  A    between atoms: C_1  and  C_2
REMARK    2  A    between atoms: C_2  and  N_3
REMARK    3  A    between atoms: N_3  and  C_4
REMARK    4  A    between atoms: C_10  and  C_11
REMARK    5  A    between atoms: C_16  and  N_17
REMARK    6  A    between atoms: N_17  and  C_18
REMARK    7  A    between atoms: C_18  and  C_19
REMARK                            x       y       z     vdW  Elec       q    Type
REMARK                         _______ _______ _______ _____ _____    ______ ____
ROOT
ATOM      1  C   UNL     1       4.728   5.011  17.656  0.00  0.00    +0.000 A 
ATOM      2  N   UNL     1       4.125   6.181  17.316  0.00  0.00    +0.000 NA
ATOM      3  C   UNL     1       3.276   6.739  18.194  0.00  0.00    +0.000 A 
ATOM      4  C   UNL     1       2.722   7.984  17.935  0.00  0.00    +0.000 A 
ATOM      5  C   UNL     1       1.903   8.620  18.877  0.00  0.00    +0.000 A 
ATOM      6 CL   UNL     1       1.326  10.201  18.507  0.00  0.00    +0.000 Cl
ATOM      7  C   UNL     1       1.603   7.981  20.085  0.00  0.00    +0.000 A 
ATOM      8  C   UNL     1       2.125   6.713  20.323  0.00  0.00    +0.000 A 
ATOM      9  C   UNL     1       2.969   6.105  19.411  0.00  0.00    +0.000 A 
ATOM     10  N   UNL     1       3.519   4.941  19.744  0.00  0.00    +0.000 NA
ATOM     11  C   UNL     1       4.433   4.394  18.904  0.00  0.00    +0.000 A 
ENDROOT
BRANCH   1  12
ATOM     12  N   UNL     1       5.642   4.438  16.737  0.00  0.00    +0.000 N 
ATOM     13  H   UNL     1       5.902   3.506  17.028  0.00  0.00    +0.000 HD
BRANCH  12  15
ATOM     14  C   UNL     1       7.599   5.454  17.812  0.00  0.00    +0.000 C 
ATOM     15  C   UNL     1       6.822   5.280  16.517  0.00  0.00    +0.000 C 
ENDBRANCH  12  15
ENDBRANCH   1  12
BRANCH   7  16
ATOM     16  C   UNL     1       0.802   8.602  21.095  0.00  0.00    +0.000 C 
ATOM     17  N   UNL     1       0.141   9.144  21.882  0.00  0.00    +0.000 NA
ENDBRANCH   7  16
BRANCH  11  18
ATOM     18  N   UNL     1       5.083   3.215  19.357  0.00  0.00    +0.000 N 
ATOM     19  H   UNL     1       5.673   3.415  20.152  0.00  0.00    +0.000 HD
BRANCH  18  20
ATOM     20  C   UNL     1       4.079   2.185  19.666  0.00  0.00    +0.000 C 
ATOM     21  C   UNL     1       3.540   1.523  18.414  0.00  0.00    +0.000 C 
ENDBRANCH  18  20
ENDBRANCH  11  18
TORSDOF 5
ENDMDL
MODEL 6
REMARK VINA RESULT:      -6.2      3.775      5.108
REMARK  Name = 
REMARK  7 active torsions:
REMARK  status: ('A' for Active; 'I' for Inactive)
REMARK    1  A    between atoms: C_1  and  C_2
REMARK    2  A    between atoms: C_2  and  N_3
REMARK    3  A    between atoms: N_3  and  C_4
REMARK    4  A    between atoms: C_10  and  C_11
REMARK    5  A    between atoms: C_16  and  N_17
REMARK    6  A    between atoms: N_17  and  C_18
REMARK    7  A    between atoms: C_18  and  C_19
REMARK                            x       y       z     vdW  Elec       q    Type
REMARK                         _______ _______ _______ _____ _____    ______ ____
ROOT
ATOM      1  C   UNL     1       4.660   4.073  18.919  0.00  0.00    +0.000 A 
ATOM      2  N   UNL     1       3.900   4.730  19.834  0.00  0.00    +0.000 NA
ATOM      3  C   UNL     1       3.343   5.899  19.479  0.00  0.00    +0.000 A 
ATOM      4  C   UNL     1       2.474   6.548  20.343  0.00  0.00    +0.000 A 
ATOM      5  C   UNL     1       1.817   7.725  19.957  0.00  0.00    +0.000 A 
ATOM      6 CL   UNL     1       0.691   8.419  21.062  0.00  0.00    +0.000 Cl
ATOM      7  C   UNL     1       2.064   8.279  18.697  0.00  0.00    +0.000 A 
ATOM      8  C   UNL     1       2.969   7.648  17.849  0.00  0.00    +0.000 A 
ATOM      9  C   UNL     1       3.585   6.465  18.215  0.00  0.00    +0.000 A 
ATOM     10  N   UNL     1       4.357   5.856  17.319  0.00  0.00    +0.000 NA
ATOM     11  C   UNL     1       4.873   4.641  17.630  0.00  0.00    +0.000 A 
ENDROOT
BRANCH   1  12
ATOM     12  N   UNL     1       5.225   2.828  19.288  0.00  0.00    +0.000 N 
ATOM     13  H   UNL     1       5.837   2.485  18.560  0.00  0.00    +0.000 HD
BRANCH  12  15
ATOM     14  C   UNL     1       3.353   1.488  18.441  0.00  0.00    +0.000 C 
ATOM     15  C   UNL     1       4.211   1.832  19.648  0.00  0.00    +0.000 C 
ENDBRANCH  12  15
ENDBRANCH   1  12
BRANCH   7  16
ATOM     16  C   UNL     1       1.392   9.457  18.241  0.00  0.00    +0.000 C 
ATOM     17  N   UNL     1       0.858  10.437  17.914  0.00  0.00    +0.000 NA
ENDBRANCH   7  16
BRANCH  11  18
ATOM     18  N   UNL     1       5.589   3.975  16.600  0.00  0.00    +0.000 N 
ATOM     19  H   UNL     1       5.235   3.038  16.466  0.00  0.00    +0.000 HD
BRANCH  18  20
ATOM     20  C   UNL     1       5.523   4.767  15.362  0.00  0.00    +0.000 C 
ATOM     21  C   UNL     1       6.117   4.026  14.182  0.00  0.00    +0.000 C 
ENDBRANCH  18  20
ENDBRANCH  11  18
TORSDOF 5
ENDMDL
MODEL 7
REMARK VINA RESULT:      -5.9      4.497      5.266
REMARK  Name = 
REMARK  7 active torsions:
REMARK  status: ('A' for Active; 'I' for Inactive)
REMARK    1  A    between atoms: C_1  and  C_2
REMARK    2  A    between atoms: C_2  and  N_3
REMARK    3  A    between atoms: N_3  and  C_4
REMARK    4  A    between atoms: C_10  and  C_11
REMARK    5  A    between atoms: C_16  and  N_17
REMARK    6  A    between atoms: N_17  and  C_18
REMARK    7  A    between atoms: C_18  and  C_19
REMARK                            x       y       z     vdW  Elec       q    Type
REMARK                         _______ _______ _______ _____ _____    ______ ____
ROOT
ATOM      1  C   UNL     1       3.871   5.799  17.807  0.00  0.00    +0.000 A 
ATOM      2  N   UNL     1       3.233   6.986  17.631  0.00  0.00    +0.000 NA
ATOM      3  C   UNL     1       2.483   7.462  18.637  0.00  0.00    +0.000 A 
ATOM      4  C   UNL     1       1.904   8.719  18.542  0.00  0.00    +0.000 A 
ATOM      5  C   UNL     1       1.189   9.269  19.614  0.00  0.00    +0.000 A 
ATOM      6 CL   UNL     1       0.573  10.868  19.439  0.00  0.00    +0.000 Cl
ATOM      7  C   UNL     1       1.022   8.530  20.791  0.00  0.00    +0.000 A 
ATOM      8  C   UNL     1       1.568   7.253  20.868  0.00  0.00    +0.000 A 
ATOM      9  C   UNL     1       2.309   6.729  19.824  0.00  0.00    +0.000 A 
ATOM     10  N   UNL     1       2.894   5.547  20.000  0.00  0.00    +0.000 NA
ATOM     11  C   UNL     1       3.712   5.079  19.025  0.00  0.00    +0.000 A 
ENDROOT
BRANCH   1  12
ATOM     12  N   UNL     1       4.682   5.312  16.753  0.00  0.00    +0.000 N 
ATOM     13  H   UNL     1       5.169   4.473  17.036  0.00  0.00    +0.000 HD
BRANCH  12  15
ATOM     14  C   UNL     1       6.846   6.405  17.125  0.00  0.00    +0.000 C 
ATOM     15  C   UNL     1       5.611   6.324  16.241  0.00  0.00    +0.000 C 
ENDBRANCH  12  15
ENDBRANCH   1  12
BRANCH   7  16
ATOM     16  C   UNL     1       0.333   9.060  21.928  0.00  0.00    +0.000 C 
ATOM     17  N   UNL     1      -0.189   9.522  22.858  0.00  0.00    +0.000 NA
ENDBRANCH   7  16
BRANCH  11  18
ATOM     18  N   UNL     1       4.409   3.875  19.308  0.00  0.00    +0.000 N 
ATOM     19  H   UNL     1       4.964   3.970  20.147  0.00  0.00    +0.000 HD
BRANCH  18  20
ATOM     20  C   UNL     1       3.451   2.762  19.410  0.00  0.00    +0.000 C 
ATOM     21  C   UNL     1       3.468   1.883  18.177  0.00  0.00    +0.000 C 
ENDBRANCH  18  20
ENDBRANCH  11  18
TORSDOF 5
ENDMDL
MODEL 8
REMARK VINA RESULT:      -5.8      4.460      5.309
REMARK  Name = 
REMARK  7 active torsions:
REMARK  status: ('A' for Active; 'I' for Inactive)
REMARK    1  A    between atoms: C_1  and  C_2
REMARK    2  A    between atoms: C_2  and  N_3
REMARK    3  A    between atoms: N_3  and  C_4
REMARK    4  A    between atoms: C_10  and  C_11
REMARK    5  A    between atoms: C_16  and  N_17
REMARK    6  A    between atoms: N_17  and  C_18
REMARK    7  A    between atoms: C_18  and  C_19
REMARK                            x       y       z     vdW  Elec       q    Type
REMARK                         _______ _______ _______ _____ _____    ______ ____
ROOT
ATOM      1  C   UNL     1       3.661   5.160  17.904  0.00  0.00    +0.000 A 
ATOM      2  N   UNL     1       3.173   6.369  17.521  0.00  0.00    +0.000 NA
ATOM      3  C   UNL     1       2.539   7.119  18.437  0.00  0.00    +0.000 A 
ATOM      4  C   UNL     1       2.121   8.403  18.119  0.00  0.00    +0.000 A 
ATOM      5  C   UNL     1       1.535   9.232  19.085  0.00  0.00    +0.000 A 
ATOM      6 CL   UNL     1       1.121  10.840  18.625  0.00  0.00    +0.000 Cl
ATOM      7  C   UNL     1       1.332   8.753  20.384  0.00  0.00    +0.000 A 
ATOM      8  C   UNL     1       1.714   7.450  20.688  0.00  0.00    +0.000 A 
ATOM      9  C   UNL     1       2.331   6.647  19.745  0.00  0.00    +0.000 A 
ATOM     10  N   UNL     1       2.768   5.451  20.128  0.00  0.00    +0.000 NA
ATOM     11  C   UNL     1       3.471   4.705  19.240  0.00  0.00    +0.000 A 
ENDROOT
BRANCH   1  12
ATOM     12  N   UNL     1       4.351   4.382  16.942  0.00  0.00    +0.000 N 
ATOM     13  H   UNL     1       4.732   3.548  17.366  0.00  0.00    +0.000 HD
BRANCH  12  15
ATOM     14  C   UNL     1       5.550   4.626  14.815  0.00  0.00    +0.000 C 
ATOM     15  C   UNL     1       5.385   5.145  16.236  0.00  0.00    +0.000 C 
ENDBRANCH  12  15
ENDBRANCH   1  12
BRANCH   7  16
ATOM     16  C   UNL     1       0.773   9.570  21.417  0.00  0.00    +0.000 C 
ATOM     17  N   UNL     1       0.360  10.227  22.282  0.00  0.00    +0.000 NA
ENDBRANCH   7  16
BRANCH  11  18
ATOM     18  N   UNL     1       4.022   3.491  19.729  0.00  0.00    +0.000 N 
ATOM     19  H   UNL     1       4.727   3.673  20.428  0.00  0.00    +0.000 HD
BRANCH  18  20
ATOM     20  C   UNL     1       2.944   2.635  20.250  0.00  0.00    +0.000 C 
ATOM     21  C   UNL     1       2.062   2.095  19.143  0.00  0.00    +0.000 C 
ENDBRANCH  18  20
ENDBRANCH  11  18
TORSDOF 5
ENDMDL
MODEL 9
REMARK VINA RESULT:      -5.8      4.655      5.601
REMARK  Name = 
REMARK  7 active torsions:
REMARK  status: ('A' for Active; 'I' for Inactive)
REMARK    1  A    between atoms: C_1  and  C_2
REMARK    2  A    between atoms: C_2  and  N_3
REMARK    3  A    between atoms: N_3  and  C_4
REMARK    4  A    between atoms: C_10  and  C_11
REMARK    5  A    between atoms: C_16  and  N_17
REMARK    6  A    between atoms: N_17  and  C_18
REMARK    7  A    between atoms: C_18  and  C_19
REMARK                            x       y       z     vdW  Elec       q    Type
REMARK                         _______ _______ _______ _____ _____    ______ ____
ROOT
ATOM      1  C   UNL     1       3.718   5.026  18.978  0.00  0.00    +0.000 A 
ATOM      2  N   UNL     1       2.987   5.616  19.959  0.00  0.00    +0.000 NA
ATOM      3  C   UNL     1       2.457   6.826  19.719  0.00  0.00    +0.000 A 
ATOM      4  C   UNL     1       1.616   7.417  20.650  0.00  0.00    +0.000 A 
ATOM      5  C   UNL     1       0.986   8.640  20.381  0.00  0.00    +0.000 A 
ATOM      6 CL   UNL     1      -0.107   9.261  21.559  0.00  0.00    +0.000 Cl
ATOM      7  C   UNL     1       1.233   9.299  19.172  0.00  0.00    +0.000 A 
ATOM      8  C   UNL     1       2.111   8.725  18.259  0.00  0.00    +0.000 A 
ATOM      9  C   UNL     1       2.699   7.497  18.507  0.00  0.00    +0.000 A 
ATOM     10  N   UNL     1       3.444   6.952  17.550  0.00  0.00    +0.000 NA
ATOM     11  C   UNL     1       3.931   5.701  17.743  0.00  0.00    +0.000 A 
ENDROOT
BRANCH   1  12
ATOM     12  N   UNL     1       4.254   3.738  19.226  0.00  0.00    +0.000 N 
ATOM     13  H   UNL     1       4.954   3.505  18.535  0.00  0.00    +0.000 HD
BRANCH  12  15
ATOM     14  C   UNL     1       2.986   2.072  17.947  0.00  0.00    +0.000 C 
ATOM     15  C   UNL     1       3.219   2.703  19.311  0.00  0.00    +0.000 C 
ENDBRANCH  12  15
ENDBRANCH   1  12
BRANCH   7  16
ATOM     16  C   UNL     1       0.587  10.531  18.833  0.00  0.00    +0.000 C 
ATOM     17  N   UNL     1       0.056  11.540  18.607  0.00  0.00    +0.000 NA
ENDBRANCH   7  16
BRANCH  11  18
ATOM     18  N   UNL     1       4.616   5.113  16.647  0.00  0.00    +0.000 N 
ATOM     19  H   UNL     1       4.085   5.218  15.794  0.00  0.00    +0.000 HD
BRANCH  18  20
ATOM     20  C   UNL     1       5.960   5.702  16.532  0.00  0.00    +0.000 C 
ATOM     21  C   UNL     1       7.051   4.680  16.774  0.00  0.00    +0.000 C 
ENDBRANCH  18  20
ENDBRANCH  11  18
TORSDOF 5
ENDMDL
