MODEL 1
REMARK VINA RESULT:      -7.5      0.000      0.000
REMARK  Name = 
REMARK  7 active torsions:
REMARK  status: ('A' for Active; 'I' for Inactive)
REMARK    1  A    between atoms: C_2  and  C_3
REMARK    2  A    between atoms: C_3  and  O_4
REMARK    3  A    between atoms: O_4  and  C_5
REMARK    4  A    between atoms: C_16  and  C_17
REMARK    5  A    between atoms: C_18  and  S_19
REMARK    6  A    between atoms: S_19  and  C_20
REMARK    7  A    between atoms: C_23  and  O_24
REMARK                            x       y       z     vdW  Elec       q    Type
REMARK                         _______ _______ _______ _____ _____    ______ ____
ROOT
ATOM      1  C   UNL     1      -2.668  12.244  19.903  0.00  0.00    +0.000 C 
ATOM      2  O   UNL     1      -3.551  12.046  19.083  0.00  0.00    +0.000 OA
ATOM      3  N   UNL     1      -1.542  11.433  19.956  0.00  0.00    +0.000 N 
ATOM      4  C   UNL     1      -1.365  10.587  18.786  0.00  0.00    +0.000 C 
ATOM      5  C   UNL     1       0.095  10.619  18.343  0.00  0.00    +0.000 C 
ATOM      6  C   UNL     1       0.861   9.944  19.447  0.00  0.00    +0.000 A 
ATOM      7  C   UNL     1       0.437  10.139  20.701  0.00  0.00    +0.000 A 
ATOM      8  C   UNL     1       0.688   9.056  21.687  0.00  0.00    +0.000 A 
ATOM      9  O   UNL     1       0.354   9.161  22.863  0.00  0.00    +0.000 OA
ATOM     10  O   UNL     1       1.214   7.837  21.173  0.00  0.00    +0.000 OA
ATOM     11  C   UNL     1       1.801   7.716  19.879  0.00  0.00    +0.000 A 
ATOM     12  C   UNL     1       2.436   6.538  19.419  0.00  0.00    +0.000 A 
ATOM     13  C   UNL     1       3.117   6.631  18.176  0.00  0.00    +0.000 A 
ATOM     14  C   UNL     1       3.179   7.811  17.439  0.00  0.00    +0.000 A 
ATOM     15  C   UNL     1       2.489   8.921  17.882  0.00  0.00    +0.000 A 
ATOM     16  C   UNL     1       1.756   8.857  19.078  0.00  0.00    +0.000 A 
ATOM     17  C   UNL     1      -0.482  11.341  20.997  0.00  0.00    +0.000 C 
ENDROOT
BRANCH  12  18
ATOM     18  C   UNL     1       2.432   5.194  20.045  0.00  0.00    +0.000 C 
ATOM     19  C   UNL     1       1.413   4.339  20.193  0.00  0.00    +0.000 C 
BRANCH  19  20
ATOM     20  S   UNL     1       1.736   2.736  20.805  0.00  0.00    +0.000 S 
ATOM     21  C   UNL     1       3.510   2.665  20.788  0.00  0.00    +0.000 C 
ATOM     22  O   UNL     1       1.316   2.692  22.192  0.00  0.00    +0.000 OA
ATOM     23  O   UNL     1       1.257   1.729  19.881  0.00  0.00    +0.000 OA
ENDBRANCH  19  20
ENDBRANCH  12  18
BRANCH  13  24
ATOM     24  O   UNL     1       3.735   5.529  17.636  0.00  0.00    +0.000 OA
ATOM     25  H   UNL     1       3.238   5.261  16.843  0.00  0.00    +0.000 HD
ENDBRANCH  13  24
BRANCH   1  26
ATOM     26  O   UNL     1      -2.690  13.310  20.753  0.00  0.00    +0.000 OA
BRANCH  26  27
ATOM     27  C   UNL     1      -3.962  13.426  21.446  0.00  0.00    +0.000 C 
BRANCH  27  29
ATOM     28  C   UNL     1      -3.108  12.489  23.670  0.00  0.00    +0.000 C 
ATOM     29  C   UNL     1      -4.051  12.626  22.727  0.00  0.00    +0.000 C 
ENDBRANCH  27  29
ENDBRANCH  26  27
ENDBRANCH   1  26
TORSDOF 6
ENDMDL
MODEL 2
REMARK VINA RESULT:      -7.2      2.866      4.674
REMARK  Name = 
REMARK  7 active torsions:
REMARK  status: ('A' for Active; 'I' for Inactive)
REMARK    1  A    between atoms: C_2  and  C_3
REMARK    2  A    between atoms: C_3  and  O_4
REMARK    3  A    between atoms: O_4  and  C_5
REMARK    4  A    between atoms: C_16  and  C_17
REMARK    5  A    between atoms: C_18  and  S_19
REMARK    6  A    between atoms: S_19  and  C_20
REMARK    7  A    between atoms: C_23  and  O_24
REMARK                            x       y       z     vdW  Elec       q    Type
REMARK                         _______ _______ _______ _____ _____    ______ ____
ROOT
ATOM      1  C   UNL     1      -0.045  11.728  21.321  0.00  0.00    +0.000 C 
ATOM      2  O   UNL     1       0.361  12.080  22.418  0.00  0.00    +0.000 OA
ATOM      3  N   UNL     1       0.412  10.558  20.729  0.00  0.00    +0.000 N 
ATOM      4  C   UNL     1       1.119   9.669  21.637  0.00  0.00    +0.000 C 
ATOM      5  C   UNL     1       0.652   8.233  21.422  0.00  0.00    +0.000 C 
ATOM      6  C   UNL     1       1.127   7.861  20.045  0.00  0.00    +0.000 A 
ATOM      7  C   UNL     1       1.117   8.818  19.110  0.00  0.00    +0.000 A 
ATOM      8  C   UNL     1       2.125   8.726  18.023  0.00  0.00    +0.000 A 
ATOM      9  O   UNL     1       2.172   9.547  17.111  0.00  0.00    +0.000 OA
ATOM     10  O   UNL     1       3.120   7.716  18.160  0.00  0.00    +0.000 OA
ATOM     11  C   UNL     1       3.011   6.622  19.069  0.00  0.00    +0.000 A 
ATOM     12  C   UNL     1       3.936   5.553  19.115  0.00  0.00    +0.000 A 
ATOM     13  C   UNL     1       3.598   4.460  19.956  0.00  0.00    +0.000 A 
ATOM     14  C   UNL     1       2.418   4.417  20.695  0.00  0.00    +0.000 A 
ATOM     15  C   UNL     1       1.573   5.507  20.682  0.00  0.00    +0.000 A 
ATOM     16  C   UNL     1       1.896   6.633  19.908  0.00  0.00    +0.000 A 
ATOM     17  C   UNL     1       0.243  10.068  19.333  0.00  0.00    +0.000 C 
ENDROOT
BRANCH  12  18
ATOM     18  C   UNL     1       5.251   5.454  18.438  0.00  0.00    +0.000 C 
ATOM     19  C   UNL     1       5.518   5.179  17.156  0.00  0.00    +0.000 C 
BRANCH  19  20
ATOM     20  S   UNL     1       7.163   5.313  16.586  0.00  0.00    +0.000 S 
ATOM     21  C   UNL     1       7.025   4.827  14.884  0.00  0.00    +0.000 C 
ATOM     22  O   UNL     1       7.532   6.715  16.605  0.00  0.00    +0.000 OA
ATOM     23  O   UNL     1       8.013   4.342  17.243  0.00  0.00    +0.000 OA
ENDBRANCH  19  20
ENDBRANCH  12  18
BRANCH  13  24
ATOM     24  O   UNL     1       4.452   3.392  20.088  0.00  0.00    +0.000 OA
ATOM     25  H   UNL     1       5.308   3.638  19.695  0.00  0.00    +0.000 HD
ENDBRANCH  13  24
BRANCH   1  26
ATOM     26  O   UNL     1      -1.022  12.406  20.655  0.00  0.00    +0.000 OA
BRANCH  26  27
ATOM     27  C   UNL     1      -0.584  13.732  20.251  0.00  0.00    +0.000 C 
BRANCH  27  29
ATOM     28  C   UNL     1       1.424  14.161  18.724  0.00  0.00    +0.000 C 
ATOM     29  C   UNL     1       0.159  13.771  18.935  0.00  0.00    +0.000 C 
ENDBRANCH  27  29
ENDBRANCH  26  27
ENDBRANCH   1  26
TORSDOF 6
ENDMDL
MODEL 3
REMARK VINA RESULT:      -7.2      2.693      4.306
REMARK  Name = 
REMARK  7 active torsions:
REMARK  status: ('A' for Active; 'I' for Inactive)
REMARK    1  A    between atoms: C_2  and  C_3
REMARK    2  A    between atoms: C_3  and  O_4
REMARK    3  A    between atoms: O_4  and  C_5
REMARK    4  A    between atoms: C_16  and  C_17
REMARK    5  A    between atoms: C_18  and  S_19
REMARK    6  A    between atoms: S_19  and  C_20
REMARK    7  A    between atoms: C_23  and  O_24
REMARK                            x       y       z     vdW  Elec       q    Type
REMARK                         _______ _______ _______ _____ _____    ______ ____
ROOT
ATOM      1  C   UNL     1      -0.002  11.797  21.328  0.00  0.00    +0.000 C 
ATOM      2  O   UNL     1       0.398  12.137  22.431  0.00  0.00    +0.000 OA
ATOM      3  N   UNL     1       0.447  10.626  20.730  0.00  0.00    +0.000 N 
ATOM      4  C   UNL     1       1.138   9.725  21.638  0.00  0.00    +0.000 C 
ATOM      5  C   UNL     1       0.658   8.295  21.409  0.00  0.00    +0.000 C 
ATOM      6  C   UNL     1       1.140   7.928  20.033  0.00  0.00    +0.000 A 
ATOM      7  C   UNL     1       1.146   8.891  19.105  0.00  0.00    +0.000 A 
ATOM      8  C   UNL     1       2.162   8.797  18.024  0.00  0.00    +0.000 A 
ATOM      9  O   UNL     1       2.224   9.623  17.119  0.00  0.00    +0.000 OA
ATOM     10  O   UNL     1       3.145   7.775  18.162  0.00  0.00    +0.000 OA
ATOM     11  C   UNL     1       3.018   6.676  19.062  0.00  0.00    +0.000 A 
ATOM     12  C   UNL     1       3.933   5.598  19.108  0.00  0.00    +0.000 A 
ATOM     13  C   UNL     1       3.577   4.502  19.938  0.00  0.00    +0.000 A 
ATOM     14  C   UNL     1       2.391   4.466  20.667  0.00  0.00    +0.000 A 
ATOM     15  C   UNL     1       1.557   5.564  20.656  0.00  0.00    +0.000 A 
ATOM     16  C   UNL     1       1.897   6.693  19.892  0.00  0.00    +0.000 A 
ATOM     17  C   UNL     1       0.283  10.148  19.330  0.00  0.00    +0.000 C 
ENDROOT
BRANCH  12  18
ATOM     18  C   UNL     1       5.252   5.490  18.440  0.00  0.00    +0.000 C 
ATOM     19  C   UNL     1       5.536   5.059  17.205  0.00  0.00    +0.000 C 
BRANCH  19  20
ATOM     20  S   UNL     1       7.169   5.218  16.609  0.00  0.00    +0.000 S 
ATOM     21  C   UNL     1       7.006   4.760  14.902  0.00  0.00    +0.000 C 
ATOM     22  O   UNL     1       7.527   6.623  16.646  0.00  0.00    +0.000 OA
ATOM     23  O   UNL     1       8.040   4.243  17.234  0.00  0.00    +0.000 OA
ENDBRANCH  19  20
ENDBRANCH  12  18
BRANCH  13  24
ATOM     24  O   UNL     1       4.419   3.424  20.069  0.00  0.00    +0.000 OA
ATOM     25  H   UNL     1       4.814   3.455  20.959  0.00  0.00    +0.000 HD
ENDBRANCH  13  24
BRANCH   1  26
ATOM     26  O   UNL     1      -0.968  12.490  20.660  0.00  0.00    +0.000 OA
BRANCH  26  27
ATOM     27  C   UNL     1      -2.299  12.179  21.152  0.00  0.00    +0.000 C 
BRANCH  27  29
ATOM     28  C   UNL     1      -3.262  12.466  23.506  0.00  0.00    +0.000 C 
ATOM     29  C   UNL     1      -2.706  12.951  22.387  0.00  0.00    +0.000 C 
ENDBRANCH  27  29
ENDBRANCH  26  27
ENDBRANCH   1  26
TORSDOF 6
ENDMDL
MODEL 4
REMARK VINA RESULT:      -7.1      1.158      1.224
REMARK  Name = 
REMARK  7 active torsions:
REMARK  status: ('A' for Active; 'I' for Inactive)
REMARK    1  A    between atoms: C_2  and  C_3
REMARK    2  A    between atoms: C_3  and  O_4
REMARK    3  A    between atoms: O_4  and  C_5
REMARK    4  A    between atoms: C_16  and  C_17
REMARK    5  A    between atoms: C_18  and  S_19
REMARK    6  A    between atoms: S_19  and  C_20
REMARK    7  A    between atoms: C_23  and  O_24
REMARK                            x       y       z     vdW  Elec       q    Type
REMARK                         _______ _______ _______ _____ _____    ______ ____
ROOT
ATOM      1  C   UNL     1      -2.848  12.731  20.967  0.00  0.00    +0.000 C 
ATOM      2  O   UNL     1      -3.848  12.519  20.299  0.00  0.00    +0.000 OA
ATOM      3  N   UNL     1      -1.714  11.940  20.834  0.00  0.00    +0.000 N 
ATOM      4  C   UNL     1      -1.714  11.098  19.648  0.00  0.00    +0.000 C 
ATOM      5  C   UNL     1      -0.346  11.155  18.976  0.00  0.00    +0.000 C 
ATOM      6  C   UNL     1       0.600  10.493  19.939  0.00  0.00    +0.000 A 
ATOM      7  C   UNL     1       0.381  10.680  21.245  0.00  0.00    +0.000 A 
ATOM      8  C   UNL     1       0.806   9.601  22.174  0.00  0.00    +0.000 A 
ATOM      9  O   UNL     1       0.665   9.699  23.390  0.00  0.00    +0.000 OA
ATOM     10  O   UNL     1       1.263   8.391  21.579  0.00  0.00    +0.000 OA
ATOM     11  C   UNL     1       1.635   8.280  20.206  0.00  0.00    +0.000 A 
ATOM     12  C   UNL     1       2.207   7.114  19.646  0.00  0.00    +0.000 A 
ATOM     13  C   UNL     1       2.677   7.219  18.310  0.00  0.00    +0.000 A 
ATOM     14  C   UNL     1       2.599   8.401  17.577  0.00  0.00    +0.000 A 
ATOM     15  C   UNL     1       1.971   9.498  18.128  0.00  0.00    +0.000 A 
ATOM     16  C   UNL     1       1.442   9.422  19.427  0.00  0.00    +0.000 A 
ATOM     17  C   UNL     1      -0.499  11.865  21.691  0.00  0.00    +0.000 C 
ENDROOT
BRANCH  12  18
ATOM     18  C   UNL     1       2.326   5.770  20.260  0.00  0.00    +0.000 C 
ATOM     19  C   UNL     1       1.483   4.734  20.187  0.00  0.00    +0.000 C 
BRANCH  19  20
ATOM     20  S   UNL     1       1.969   3.198  20.859  0.00  0.00    +0.000 S 
ATOM     21  C   UNL     1       3.550   2.925  20.100  0.00  0.00    +0.000 C 
ATOM     22  O   UNL     1       2.198   3.381  22.278  0.00  0.00    +0.000 OA
ATOM     23  O   UNL     1       1.088   2.140  20.408  0.00  0.00    +0.000 OA
ENDBRANCH  19  20
ENDBRANCH  12  18
BRANCH  13  24
ATOM     24  O   UNL     1       3.218   6.128  17.673  0.00  0.00    +0.000 OA
ATOM     25  H   UNL     1       4.117   6.364  17.382  0.00  0.00    +0.000 HD
ENDBRANCH  13  24
BRANCH   1  26
ATOM     26  O   UNL     1      -2.750  13.797  21.812  0.00  0.00    +0.000 OA
BRANCH  26  27
ATOM     27  C   UNL     1      -3.981  14.568  21.857  0.00  0.00    +0.000 C 
BRANCH  27  29
ATOM     28  C   UNL     1      -5.487  15.618  23.641  0.00  0.00    +0.000 C 
ATOM     29  C   UNL     1      -4.305  15.151  23.215  0.00  0.00    +0.000 C 
ENDBRANCH  27  29
ENDBRANCH  26  27
ENDBRANCH   1  26
TORSDOF 6
ENDMDL
MODEL 5
REMARK VINA RESULT:      -7.1      1.070      1.385
REMARK  Name = 
REMARK  7 active torsions:
REMARK  status: ('A' for Active; 'I' for Inactive)
REMARK    1  A    between atoms: C_2  and  C_3
REMARK    2  A    between atoms: C_3  and  O_4
REMARK    3  A    between atoms: O_4  and  C_5
REMARK    4  A    between atoms: C_16  and  C_17
REMARK    5  A    between atoms: C_18  and  S_19
REMARK    6  A    between atoms: S_19  and  C_20
REMARK    7  A    between atoms: C_23  and  O_24
REMARK                            x       y       z     vdW  Elec       q    Type
REMARK                         _______ _______ _______ _____ _____    ______ ____
ROOT
ATOM      1  C   UNL     1      -2.674  12.623  20.632  0.00  0.00    +0.000 C 
ATOM      2  O   UNL     1      -3.666  12.402  19.956  0.00  0.00    +0.000 OA
ATOM      3  N   UNL     1      -1.544  11.821  20.535  0.00  0.00    +0.000 N 
ATOM      4  C   UNL     1      -1.534  10.951  19.369  0.00  0.00    +0.000 C 
ATOM      5  C   UNL     1      -0.156  10.982  18.715  0.00  0.00    +0.000 C 
ATOM      6  C   UNL     1       0.771  10.337  19.707  0.00  0.00    +0.000 A 
ATOM      7  C   UNL     1       0.535  10.557  21.005  0.00  0.00    +0.000 A 
ATOM      8  C   UNL     1       0.939   9.498  21.966  0.00  0.00    +0.000 A 
ATOM      9  O   UNL     1       0.783   9.627  23.176  0.00  0.00    +0.000 OA
ATOM     10  O   UNL     1       1.396   8.270  21.406  0.00  0.00    +0.000 OA
ATOM     11  C   UNL     1       1.786   8.124  20.041  0.00  0.00    +0.000 A 
ATOM     12  C   UNL     1       2.357   6.941  19.517  0.00  0.00    +0.000 A 
ATOM     13  C   UNL     1       2.846   7.010  18.186  0.00  0.00    +0.000 A 
ATOM     14  C   UNL     1       2.787   8.174  17.424  0.00  0.00    +0.000 A 
ATOM     15  C   UNL     1       2.160   9.289  17.940  0.00  0.00    +0.000 A 
ATOM     16  C   UNL     1       1.612   9.248  19.232  0.00  0.00    +0.000 A 
ATOM     17  C   UNL     1      -0.341  11.759  21.409  0.00  0.00    +0.000 C 
ENDROOT
BRANCH  12  18
ATOM     18  C   UNL     1       2.458   5.611  20.166  0.00  0.00    +0.000 C 
ATOM     19  C   UNL     1       1.520   4.666  20.295  0.00  0.00    +0.000 C 
BRANCH  19  20
ATOM     20  S   UNL     1       1.972   3.109  20.944  0.00  0.00    +0.000 S 
ATOM     21  C   UNL     1       3.598   2.866  20.273  0.00  0.00    +0.000 C 
ATOM     22  O   UNL     1       2.115   3.245  22.380  0.00  0.00    +0.000 OA
ATOM     23  O   UNL     1       1.125   2.064  20.407  0.00  0.00    +0.000 OA
ENDBRANCH  19  20
ENDBRANCH  12  18
BRANCH  13  24
ATOM     24  O   UNL     1       3.388   5.900  17.584  0.00  0.00    +0.000 OA
ATOM     25  H   UNL     1       2.718   5.523  16.986  0.00  0.00    +0.000 HD
ENDBRANCH  13  24
BRANCH   1  26
ATOM     26  O   UNL     1      -2.580  13.709  21.453  0.00  0.00    +0.000 OA
BRANCH  26  27
ATOM     27  C   UNL     1      -3.703  14.615  21.285  0.00  0.00    +0.000 C 
BRANCH  27  29
ATOM     28  C   UNL     1      -2.273  16.544  20.400  0.00  0.00    +0.000 C 
ATOM     29  C   UNL     1      -3.315  16.064  21.093  0.00  0.00    +0.000 C 
ENDBRANCH  27  29
ENDBRANCH  26  27
ENDBRANCH   1  26
TORSDOF 6
ENDMDL
MODEL 6
REMARK VINA RESULT:      -7.0      2.640      4.327
REMARK  Name = 
REMARK  7 active torsions:
REMARK  status: ('A' for Active; 'I' for Inactive)
REMARK    1  A    between atoms: C_2  and  C_3
REMARK    2  A    between atoms: C_3  and  O_4
REMARK    3  A    between atoms: O_4  and  C_5
REMARK    4  A    between atoms: C_16  and  C_17
REMARK    5  A    between atoms: C_18  and  S_19
REMARK    6  A    between atoms: S_19  and  C_20
REMARK    7  A    between atoms: C_23  and  O_24
REMARK                            x       y       z     vdW  Elec       q    Type
REMARK                         _______ _______ _______ _____ _____    ______ ____
ROOT
ATOM      1  C   UNL     1      -0.308  11.537  21.591  0.00  0.00    +0.000 C 
ATOM      2  O   UNL     1       0.055  11.847  22.715  0.00  0.00    +0.000 OA
ATOM      3  N   UNL     1       0.193  10.406  20.960  0.00  0.00    +0.000 N 
ATOM      4  C   UNL     1       0.892   9.492  21.849  0.00  0.00    +0.000 C 
ATOM      5  C   UNL     1       0.465   8.057  21.554  0.00  0.00    +0.000 C 
ATOM      6  C   UNL     1       0.991   7.760  20.177  0.00  0.00    +0.000 A 
ATOM      7  C   UNL     1       0.987   8.758  19.287  0.00  0.00    +0.000 A 
ATOM      8  C   UNL     1       2.031   8.739  18.229  0.00  0.00    +0.000 A 
ATOM      9  O   UNL     1       2.087   9.601  17.358  0.00  0.00    +0.000 OA
ATOM     10  O   UNL     1       3.043   7.744  18.352  0.00  0.00    +0.000 OA
ATOM     11  C   UNL     1       2.931   6.608  19.206  0.00  0.00    +0.000 A 
ATOM     12  C   UNL     1       3.879   5.558  19.233  0.00  0.00    +0.000 A 
ATOM     13  C   UNL     1       3.540   4.420  20.012  0.00  0.00    +0.000 A 
ATOM     14  C   UNL     1       2.339   4.317  20.710  0.00  0.00    +0.000 A 
ATOM     15  C   UNL     1       1.470   5.388  20.720  0.00  0.00    +0.000 A 
ATOM     16  C   UNL     1       1.791   6.556  20.008  0.00  0.00    +0.000 A 
ATOM     17  C   UNL     1       0.079   9.978  19.539  0.00  0.00    +0.000 C 
ENDROOT
BRANCH  12  18
ATOM     18  C   UNL     1       5.216   5.518  18.594  0.00  0.00    +0.000 C 
ATOM     19  C   UNL     1       5.528   5.310  17.309  0.00  0.00    +0.000 C 
BRANCH  19  20
ATOM     20  S   UNL     1       7.187   5.505  16.799  0.00  0.00    +0.000 S 
ATOM     21  C   UNL     1       7.691   6.968  17.670  0.00  0.00    +0.000 C 
ATOM     22  O   UNL     1       7.955   4.398  17.334  0.00  0.00    +0.000 OA
ATOM     23  O   UNL     1       7.255   5.804  15.384  0.00  0.00    +0.000 OA
ENDBRANCH  19  20
ENDBRANCH  12  18
BRANCH  13  24
ATOM     24  O   UNL     1       4.414   3.365  20.122  0.00  0.00    +0.000 OA
ATOM     25  H   UNL     1       4.105   2.790  20.845  0.00  0.00    +0.000 HD
ENDBRANCH  13  24
BRANCH   1  26
ATOM     26  O   UNL     1      -1.280  12.225  20.925  0.00  0.00    +0.000 OA
BRANCH  26  27
ATOM     27  C   UNL     1      -2.225  12.848  21.837  0.00  0.00    +0.000 C 
BRANCH  27  29
ATOM     28  C   UNL     1      -4.123  12.595  20.139  0.00  0.00    +0.000 C 
ATOM     29  C   UNL     1      -3.573  13.156  21.225  0.00  0.00    +0.000 C 
ENDBRANCH  27  29
ENDBRANCH  26  27
ENDBRANCH   1  26
TORSDOF 6
ENDMDL
MODEL 7
REMARK VINA RESULT:      -7.0      2.731      4.491
REMARK  Name = 
REMARK  7 active torsions:
REMARK  status: ('A' for Active; 'I' for Inactive)
REMARK    1  A    between atoms: C_2  and  C_3
REMARK    2  A    between atoms: C_3  and  O_4
REMARK    3  A    between atoms: O_4  and  C_5
REMARK    4  A    between atoms: C_16  and  C_17
REMARK    5  A    between atoms: C_18  and  S_19
REMARK    6  A    between atoms: S_19  and  C_20
REMARK    7  A    between atoms: C_23  and  O_24
REMARK                            x       y       z     vdW  Elec       q    Type
REMARK                         _______ _______ _______ _____ _____    ______ ____
ROOT
ATOM      1  C   UNL     1      -0.331  11.602  21.580  0.00  0.00    +0.000 C 
ATOM      2  O   UNL     1      -0.002  11.898  22.719  0.00  0.00    +0.000 OA
ATOM      3  N   UNL     1       0.170  10.466  20.960  0.00  0.00    +0.000 N 
ATOM      4  C   UNL     1       0.820   9.533  21.866  0.00  0.00    +0.000 C 
ATOM      5  C   UNL     1       0.377   8.109  21.546  0.00  0.00    +0.000 C 
ATOM      6  C   UNL     1       0.945   7.810  20.186  0.00  0.00    +0.000 A 
ATOM      7  C   UNL     1       0.991   8.814  19.304  0.00  0.00    +0.000 A 
ATOM      8  C   UNL     1       2.070   8.781  18.283  0.00  0.00    +0.000 A 
ATOM      9  O   UNL     1       2.172   9.648  17.420  0.00  0.00    +0.000 OA
ATOM     10  O   UNL     1       3.059   7.768  18.433  0.00  0.00    +0.000 OA
ATOM     11  C   UNL     1       2.896   6.628  19.275  0.00  0.00    +0.000 A 
ATOM     12  C   UNL     1       3.823   5.560  19.328  0.00  0.00    +0.000 A 
ATOM     13  C   UNL     1       3.435   4.424  20.086  0.00  0.00    +0.000 A 
ATOM     14  C   UNL     1       2.209   4.340  20.741  0.00  0.00    +0.000 A 
ATOM     15  C   UNL     1       1.361   5.427  20.729  0.00  0.00    +0.000 A 
ATOM     16  C   UNL     1       1.728   6.592  20.037  0.00  0.00    +0.000 A 
ATOM     17  C   UNL     1       0.097  10.049  19.533  0.00  0.00    +0.000 C 
ENDROOT
BRANCH  12  18
ATOM     18  C   UNL     1       5.180   5.499  18.735  0.00  0.00    +0.000 C 
ATOM     19  C   UNL     1       5.565   4.972  17.567  0.00  0.00    +0.000 C 
BRANCH  19  20
ATOM     20  S   UNL     1       7.210   5.210  17.032  0.00  0.00    +0.000 S 
ATOM     21  C   UNL     1       7.516   6.905  17.461  0.00  0.00    +0.000 C 
ATOM     22  O   UNL     1       8.074   4.393  17.861  0.00  0.00    +0.000 OA
ATOM     23  O   UNL     1       7.300   5.108  15.590  0.00  0.00    +0.000 OA
ENDBRANCH  19  20
ENDBRANCH  12  18
BRANCH  13  24
ATOM     24  O   UNL     1       4.285   3.352  20.220  0.00  0.00    +0.000 OA
ATOM     25  H   UNL     1       4.029   2.860  21.020  0.00  0.00    +0.000 HD
ENDBRANCH  13  24
BRANCH   1  26
ATOM     26  O   UNL     1      -1.266  12.312  20.887  0.00  0.00    +0.000 OA
BRANCH  26  27
ATOM     27  C   UNL     1      -0.863  13.694  20.689  0.00  0.00    +0.000 C 
BRANCH  27  29
ATOM     28  C   UNL     1      -0.060  13.503  18.266  0.00  0.00    +0.000 C 
ATOM     29  C   UNL     1       0.091  13.908  19.535  0.00  0.00    +0.000 C 
ENDBRANCH  27  29
ENDBRANCH  26  27
ENDBRANCH   1  26
TORSDOF 6
ENDMDL
MODEL 8
REMARK VINA RESULT:      -6.7      1.008      1.394
REMARK  Name = 
REMARK  7 active torsions:
REMARK  status: ('A' for Active; 'I' for Inactive)
REMARK    1  A    between atoms: C_2  and  C_3
REMARK    2  A    between atoms: C_3  and  O_4
REMARK    3  A    between atoms: O_4  and  C_5
REMARK    4  A    between atoms: C_16  and  C_17
REMARK    5  A    between atoms: C_18  and  S_19
REMARK    6  A    between atoms: S_19  and  C_20
REMARK    7  A    between atoms: C_23  and  O_24
REMARK                            x       y       z     vdW  Elec       q    Type
REMARK                         _______ _______ _______ _____ _____    ______ ____
ROOT
ATOM      1  C   UNL     1      -3.227  12.142  19.475  0.00  0.00    +0.000 C 
ATOM      2  O   UNL     1      -4.036  11.851  18.608  0.00  0.00    +0.000 OA
ATOM      3  N   UNL     1      -2.050  11.422  19.631  0.00  0.00    +0.000 N 
ATOM      4  C   UNL     1      -1.733  10.554  18.508  0.00  0.00    +0.000 C 
ATOM      5  C   UNL     1      -0.254  10.681  18.158  0.00  0.00    +0.000 C 
ATOM      6  C   UNL     1       0.485  10.104  19.334  0.00  0.00    +0.000 A 
ATOM      7  C   UNL     1      -0.035  10.308  20.549  0.00  0.00    +0.000 A 
ATOM      8  C   UNL     1       0.229   9.281  21.590  0.00  0.00    +0.000 A 
ATOM      9  O   UNL     1      -0.189   9.399  22.738  0.00  0.00    +0.000 OA
ATOM     10  O   UNL     1       0.877   8.088  21.158  0.00  0.00    +0.000 OA
ATOM     11  C   UNL     1       1.556   7.969  19.910  0.00  0.00    +0.000 A 
ATOM     12  C   UNL     1       2.305   6.829  19.537  0.00  0.00    +0.000 A 
ATOM     13  C   UNL     1       3.059   6.932  18.338  0.00  0.00    +0.000 A 
ATOM     14  C   UNL     1       3.083   8.088  17.562  0.00  0.00    +0.000 A 
ATOM     15  C   UNL     1       2.285   9.156  17.916  0.00  0.00    +0.000 A 
ATOM     16  C   UNL     1       1.480   9.077  19.064  0.00  0.00    +0.000 A 
ATOM     17  C   UNL     1      -1.058  11.445  20.740  0.00  0.00    +0.000 C 
ENDROOT
BRANCH  12  18
ATOM     18  C   UNL     1       2.358   5.510  20.212  0.00  0.00    +0.000 C 
ATOM     19  C   UNL     1       1.598   4.429  20.006  0.00  0.00    +0.000 C 
BRANCH  19  20
ATOM     20  S   UNL     1       2.006   2.939  20.821  0.00  0.00    +0.000 S 
ATOM     21  C   UNL     1       1.621   1.710  19.599  0.00  0.00    +0.000 C 
ATOM     22  O   UNL     1       3.442   2.915  21.019  0.00  0.00    +0.000 OA
ATOM     23  O   UNL     1       1.126   2.714  21.948  0.00  0.00    +0.000 OA
ENDBRANCH  19  20
ENDBRANCH  12  18
BRANCH  13  24
ATOM     24  O   UNL     1       3.791   5.862  17.880  0.00  0.00    +0.000 OA
ATOM     25  H   UNL     1       3.490   5.653  16.978  0.00  0.00    +0.000 HD
ENDBRANCH  13  24
BRANCH   1  26
ATOM     26  O   UNL     1      -3.384  13.232  20.280  0.00  0.00    +0.000 OA
BRANCH  26  27
ATOM     27  C   UNL     1      -4.519  13.087  21.175  0.00  0.00    +0.000 C 
BRANCH  27  29
ATOM     28  C   UNL     1      -5.467  15.374  20.525  0.00  0.00    +0.000 C 
ATOM     29  C   UNL     1      -5.606  14.121  20.981  0.00  0.00    +0.000 C 
ENDBRANCH  27  29
ENDBRANCH  26  27
ENDBRANCH   1  26
TORSDOF 6
ENDMDL
MODEL 9
REMARK VINA RESULT:      -6.6      1.473      1.929
REMARK  Name = 
REMARK  7 active torsions:
REMARK  status: ('A' for Active; 'I' for Inactive)
REMARK    1  A    between atoms: C_2  and  C_3
REMARK    2  A    between atoms: C_3  and  O_4
REMARK    3  A    between atoms: O_4  and  C_5
REMARK    4  A    between atoms: C_16  and  C_17
REMARK    5  A    between atoms: C_18  and  S_19
REMARK    6  A    between atoms: S_19  and  C_20
REMARK    7  A    between atoms: C_23  and  O_24
REMARK                            x       y       z     vdW  Elec       q    Type
REMARK                         _______ _______ _______ _____ _____    ______ ____
ROOT
ATOM      1  C   UNL     1      -2.321  12.724  20.530  0.00  0.00    +0.000 C 
ATOM      2  O   UNL     1      -3.286  12.632  19.787  0.00  0.00    +0.000 OA
ATOM      3  N   UNL     1      -1.267  11.822  20.456  0.00  0.00    +0.000 N 
ATOM      4  C   UNL     1      -1.266  11.011  19.248  0.00  0.00    +0.000 C 
ATOM      5  C   UNL     1       0.146  10.940  18.676  0.00  0.00    +0.000 C 
ATOM      6  C   UNL     1       0.946  10.162  19.685  0.00  0.00    +0.000 A 
ATOM      7  C   UNL     1       0.651  10.342  20.977  0.00  0.00    +0.000 A 
ATOM      8  C   UNL     1       0.894   9.205  21.902  0.00  0.00    +0.000 A 
ATOM      9  O   UNL     1       0.675   9.291  23.107  0.00  0.00    +0.000 OA
ATOM     10  O   UNL     1       1.268   7.967  21.305  0.00  0.00    +0.000 OA
ATOM     11  C   UNL     1       1.727   7.848  19.959  0.00  0.00    +0.000 A 
ATOM     12  C   UNL     1       2.216   6.641  19.407  0.00  0.00    +0.000 A 
ATOM     13  C   UNL     1       2.791   6.727  18.112  0.00  0.00    +0.000 A 
ATOM     14  C   UNL     1       2.889   7.926  17.410  0.00  0.00    +0.000 A 
ATOM     15  C   UNL     1       2.338   9.070  17.947  0.00  0.00    +0.000 A 
ATOM     16  C   UNL     1       1.709   9.020  19.202  0.00  0.00    +0.000 A 
ATOM     17  C   UNL     1      -0.133  11.603  21.393  0.00  0.00    +0.000 C 
ENDROOT
BRANCH  12  18
ATOM     18  C   UNL     1       2.152   5.279  19.989  0.00  0.00    +0.000 C 
ATOM     19  C   UNL     1       3.155   4.451  20.301  0.00  0.00    +0.000 C 
BRANCH  19  20
ATOM     20  S   UNL     1       2.795   2.970  21.153  0.00  0.00    +0.000 S 
ATOM     21  C   UNL     1       1.724   2.121  20.021  0.00  0.00    +0.000 C 
ATOM     22  O   UNL     1       4.018   2.198  21.250  0.00  0.00    +0.000 OA
ATOM     23  O   UNL     1       2.026   3.242  22.350  0.00  0.00    +0.000 OA
ENDBRANCH  19  20
ENDBRANCH  12  18
BRANCH  13  24
ATOM     24  O   UNL     1       3.264   5.599  17.483  0.00  0.00    +0.000 OA
ATOM     25  H   UNL     1       2.757   4.835  17.812  0.00  0.00    +0.000 HD
ENDBRANCH  13  24
BRANCH   1  26
ATOM     26  O   UNL     1      -2.178  13.755  21.411  0.00  0.00    +0.000 OA
BRANCH  26  27
ATOM     27  C   UNL     1      -1.875  15.007  20.738  0.00  0.00    +0.000 C 
BRANCH  27  29
ATOM     28  C   UNL     1       0.076  15.921  19.357  0.00  0.00    +0.000 C 
ATOM     29  C   UNL     1      -0.731  14.926  19.752  0.00  0.00    +0.000 C 
ENDBRANCH  27  29
ENDBRANCH  26  27
ENDBRANCH   1  26
TORSDOF 6
ENDMDL
