MODEL 1
REMARK VINA RESULT:      -7.2      0.000      0.000
REMARK  Name = 
REMARK  3 active torsions:
REMARK  status: ('A' for Active; 'I' for Inactive)
REMARK    1  A    between atoms: C_1  and  N_2
REMARK    2  A    between atoms: C_3  and  C_4
REMARK    3  A    between atoms: C_5  and  C_6
REMARK                            x       y       z     vdW  Elec       q    Type
REMARK                         _______ _______ _______ _____ _____    ______ ____
ROOT
ATOM      1  C   UNL     1       7.815  12.534  17.145  0.00  0.00    +0.000 C 
ATOM      2  N   UNL     1       8.896  12.270  18.120  0.00  0.00    +0.000 N 
ATOM      3  C   UNL     1       9.094  11.005  18.661  0.00  0.00    +0.000 A 
ATOM      4  C   UNL     1      10.094  10.822  19.638  0.00  0.00    +0.000 A 
ATOM      5  C   UNL     1      10.878  11.880  20.059  0.00  0.00    +0.000 A 
ATOM      6  C   UNL     1      10.691  13.140  19.515  0.00  0.00    +0.000 A 
ATOM      7  C   UNL     1      11.491  14.211  19.948  0.00  0.00    +0.000 A 
ATOM      8  C   UNL     1      11.312  15.484  19.413  0.00  0.00    +0.000 A 
ATOM      9  C   UNL     1      10.339  15.700  18.442  0.00  0.00    +0.000 A 
ATOM     10  C   UNL     1       9.535  14.646  18.000  0.00  0.00    +0.000 A 
ATOM     11  C   UNL     1       9.688  13.336  18.528  0.00  0.00    +0.000 A 
ENDROOT
BRANCH   3  12
ATOM     12  C   UNL     1       8.310   9.797  18.213  0.00  0.00    +0.000 C 
ATOM     13  C   UNL     1       8.647   8.529  18.520  0.00  0.00    +0.000 C 
BRANCH  13  14
ATOM     14  C   UNL     1       7.875   7.371  18.036  0.00  0.00    +0.000 A 
ATOM     15  C   UNL     1       7.722   6.184  18.724  0.00  0.00    +0.000 A 
ATOM     16  C   UNL     1       6.957   5.375  17.916  0.00  0.00    +0.000 A 
ATOM     17  C   UNL     1       6.692   6.117  16.784  0.00  0.00    +0.000 A 
ATOM     18 BR   UNL     1       5.681   5.522  15.282  0.00  0.00    +0.000 Br
ATOM     19  O   UNL     1       7.248   7.306  16.882  0.00  0.00    +0.000 OA
ENDBRANCH  13  14
ENDBRANCH   3  12
TORSDOF 2
ENDMDL
MODEL 2
REMARK VINA RESULT:      -7.2      1.304      1.988
REMARK  Name = 
REMARK  3 active torsions:
REMARK  status: ('A' for Active; 'I' for Inactive)
REMARK    1  A    between atoms: C_1  and  N_2
REMARK    2  A    between atoms: C_3  and  C_4
REMARK    3  A    between atoms: C_5  and  C_6
REMARK                            x       y       z     vdW  Elec       q    Type
REMARK                         _______ _______ _______ _____ _____    ______ ____
ROOT
ATOM      1  C   UNL     1       9.004  10.828  21.407  0.00  0.00    +0.000 C 
ATOM      2  N   UNL     1       9.425  11.582  20.206  0.00  0.00    +0.000 N 
ATOM      3  C   UNL     1       9.530  10.971  18.963  0.00  0.00    +0.000 A 
ATOM      4  C   UNL     1      10.001  11.718  17.864  0.00  0.00    +0.000 A 
ATOM      5  C   UNL     1      10.354  13.047  18.009  0.00  0.00    +0.000 A 
ATOM      6  C   UNL     1      10.241  13.664  19.244  0.00  0.00    +0.000 A 
ATOM      7  C   UNL     1      10.603  15.014  19.383  0.00  0.00    +0.000 A 
ATOM      8  C   UNL     1      10.498  15.646  20.620  0.00  0.00    +0.000 A 
ATOM      9  C   UNL     1      10.030  14.941  21.724  0.00  0.00    +0.000 A 
ATOM     10  C   UNL     1       9.666  13.597  21.602  0.00  0.00    +0.000 A 
ATOM     11  C   UNL     1       9.765  12.921  20.357  0.00  0.00    +0.000 A 
ENDROOT
BRANCH   3  12
ATOM     12  C   UNL     1       9.116   9.541  18.722  0.00  0.00    +0.000 C 
ATOM     13  C   UNL     1       8.115   9.179  17.894  0.00  0.00    +0.000 C 
BRANCH  13  14
ATOM     14  C   UNL     1       7.716   7.773  17.710  0.00  0.00    +0.000 A 
ATOM     15  C   UNL     1       7.949   6.763  18.622  0.00  0.00    +0.000 A 
ATOM     16  C   UNL     1       7.441   5.618  18.054  0.00  0.00    +0.000 A 
ATOM     17  C   UNL     1       6.931   5.999  16.830  0.00  0.00    +0.000 A 
ATOM     18 BR   UNL     1       6.105   4.837  15.566  0.00  0.00    +0.000 Br
ATOM     19  O   UNL     1       7.104   7.290  16.651  0.00  0.00    +0.000 OA
ENDBRANCH  13  14
ENDBRANCH   3  12
TORSDOF 2
ENDMDL
MODEL 3
REMARK VINA RESULT:      -7.1      7.077      8.211
REMARK  Name = 
REMARK  3 active torsions:
REMARK  status: ('A' for Active; 'I' for Inactive)
REMARK    1  A    between atoms: C_1  and  N_2
REMARK    2  A    between atoms: C_3  and  C_4
REMARK    3  A    between atoms: C_5  and  C_6
REMARK                            x       y       z     vdW  Elec       q    Type
REMARK                         _______ _______ _______ _____ _____    ______ ____
ROOT
ATOM      1  C   UNL     1       2.562   6.095  20.364  0.00  0.00    +0.000 C 
ATOM      2  N   UNL     1       2.213   7.304  19.588  0.00  0.00    +0.000 N 
ATOM      3  C   UNL     1       2.738   7.533  18.321  0.00  0.00    +0.000 A 
ATOM      4  C   UNL     1       2.427   8.735  17.652  0.00  0.00    +0.000 A 
ATOM      5  C   UNL     1       1.607   9.681  18.237  0.00  0.00    +0.000 A 
ATOM      6  C   UNL     1       1.072   9.453  19.494  0.00  0.00    +0.000 A 
ATOM      7  C   UNL     1       0.239  10.420  20.082  0.00  0.00    +0.000 A 
ATOM      8  C   UNL     1      -0.303  10.206  21.347  0.00  0.00    +0.000 A 
ATOM      9  C   UNL     1      -0.023   9.029  22.033  0.00  0.00    +0.000 A 
ATOM     10  C   UNL     1       0.804   8.057  21.462  0.00  0.00    +0.000 A 
ATOM     11  C   UNL     1       1.376   8.245  20.176  0.00  0.00    +0.000 A 
ENDROOT
BRANCH   3  12
ATOM     12  C   UNL     1       3.599   6.524  17.604  0.00  0.00    +0.000 C 
ATOM     13  C   UNL     1       4.648   6.853  16.824  0.00  0.00    +0.000 C 
BRANCH  13  14
ATOM     14  C   UNL     1       5.447   5.840  16.111  0.00  0.00    +0.000 A 
ATOM     15  C   UNL     1       6.548   5.193  16.637  0.00  0.00    +0.000 A 
ATOM     16  C   UNL     1       7.002   4.356  15.644  0.00  0.00    +0.000 A 
ATOM     17  C   UNL     1       6.152   4.545  14.575  0.00  0.00    +0.000 A 
ATOM     18 BR   UNL     1       6.285   3.667  12.888  0.00  0.00    +0.000 Br
ATOM     19  O   UNL     1       5.231   5.432  14.880  0.00  0.00    +0.000 OA
ENDBRANCH  13  14
ENDBRANCH   3  12
TORSDOF 2
ENDMDL
MODEL 4
REMARK VINA RESULT:      -7.0      8.250     10.432
REMARK  Name = 
REMARK  3 active torsions:
REMARK  status: ('A' for Active; 'I' for Inactive)
REMARK    1  A    between atoms: C_1  and  N_2
REMARK    2  A    between atoms: C_3  and  C_4
REMARK    3  A    between atoms: C_5  and  C_6
REMARK                            x       y       z     vdW  Elec       q    Type
REMARK                         _______ _______ _______ _____ _____    ______ ____
ROOT
ATOM      1  C   UNL     1       1.633   4.923  20.533  0.00  0.00    +0.000 C 
ATOM      2  N   UNL     1       2.347   5.750  19.536  0.00  0.00    +0.000 N 
ATOM      3  C   UNL     1       2.199   7.131  19.495  0.00  0.00    +0.000 A 
ATOM      4  C   UNL     1       2.848   7.865  18.481  0.00  0.00    +0.000 A 
ATOM      5  C   UNL     1       3.629   7.229  17.534  0.00  0.00    +0.000 A 
ATOM      6  C   UNL     1       3.789   5.854  17.577  0.00  0.00    +0.000 A 
ATOM      7  C   UNL     1       4.584   5.215  16.610  0.00  0.00    +0.000 A 
ATOM      8  C   UNL     1       4.750   3.832  16.639  0.00  0.00    +0.000 A 
ATOM      9  C   UNL     1       4.130   3.078  17.629  0.00  0.00    +0.000 A 
ATOM     10  C   UNL     1       3.336   3.698  18.598  0.00  0.00    +0.000 A 
ATOM     11  C   UNL     1       3.141   5.105  18.595  0.00  0.00    +0.000 A 
ENDROOT
BRANCH   3  12
ATOM     12  C   UNL     1       1.403   7.893  20.524  0.00  0.00    +0.000 C 
ATOM     13  C   UNL     1       1.016   9.176  20.373  0.00  0.00    +0.000 C 
BRANCH  13  14
ATOM     14  C   UNL     1       0.268   9.900  21.415  0.00  0.00    +0.000 A 
ATOM     15  C   UNL     1      -0.313   9.310  22.520  0.00  0.00    +0.000 A 
ATOM     16  C   UNL     1      -0.922  10.329  23.215  0.00  0.00    +0.000 A 
ATOM     17  C   UNL     1      -0.677  11.477  22.491  0.00  0.00    +0.000 A 
ATOM     18 BR   UNL     1      -1.287  13.224  22.948  0.00  0.00    +0.000 Br
ATOM     19  O   UNL     1       0.038  11.195  21.424  0.00  0.00    +0.000 OA
ENDBRANCH  13  14
ENDBRANCH   3  12
TORSDOF 2
ENDMDL
MODEL 5
REMARK VINA RESULT:      -6.8      7.153      8.228
REMARK  Name = 
REMARK  3 active torsions:
REMARK  status: ('A' for Active; 'I' for Inactive)
REMARK    1  A    between atoms: C_1  and  N_2
REMARK    2  A    between atoms: C_3  and  C_4
REMARK    3  A    between atoms: C_5  and  C_6
REMARK                            x       y       z     vdW  Elec       q    Type
REMARK                         _______ _______ _______ _____ _____    ______ ____
ROOT
ATOM      1  C   UNL     1       1.904   6.749  20.570  0.00  0.00    +0.000 C 
ATOM      2  N   UNL     1       1.650   8.023  19.864  0.00  0.00    +0.000 N 
ATOM      3  C   UNL     1       2.100   8.237  18.566  0.00  0.00    +0.000 A 
ATOM      4  C   UNL     1       1.891   9.495  17.963  0.00  0.00    +0.000 A 
ATOM      5  C   UNL     1       1.245  10.510  18.643  0.00  0.00    +0.000 A 
ATOM      6  C   UNL     1       0.785  10.298  19.932  0.00  0.00    +0.000 A 
ATOM      7  C   UNL     1       0.130  11.335  20.617  0.00  0.00    +0.000 A 
ATOM      8  C   UNL     1      -0.333  11.136  21.916  0.00  0.00    +0.000 A 
ATOM      9  C   UNL     1      -0.151   9.906  22.539  0.00  0.00    +0.000 A 
ATOM     10  C   UNL     1       0.498   8.865  21.872  0.00  0.00    +0.000 A 
ATOM     11  C   UNL     1       0.988   9.034  20.549  0.00  0.00    +0.000 A 
ENDROOT
BRANCH   3  12
ATOM     12  C   UNL     1       2.767   7.160  17.749  0.00  0.00    +0.000 C 
ATOM     13  C   UNL     1       4.099   7.087  17.549  0.00  0.00    +0.000 C 
BRANCH  13  14
ATOM     14  C   UNL     1       4.713   6.039  16.716  0.00  0.00    +0.000 A 
ATOM     15  C   UNL     1       4.516   4.683  16.885  0.00  0.00    +0.000 A 
ATOM     16  C   UNL     1       5.281   4.068  15.922  0.00  0.00    +0.000 A 
ATOM     17  C   UNL     1       5.900   5.085  15.227  0.00  0.00    +0.000 A 
ATOM     18 BR   UNL     1       7.110   4.854  13.772  0.00  0.00    +0.000 Br
ATOM     19  O   UNL     1       5.541   6.252  15.717  0.00  0.00    +0.000 OA
ENDBRANCH  13  14
ENDBRANCH   3  12
TORSDOF 2
ENDMDL
MODEL 6
REMARK VINA RESULT:      -6.8      8.221     10.791
REMARK  Name = 
REMARK  3 active torsions:
REMARK  status: ('A' for Active; 'I' for Inactive)
REMARK    1  A    between atoms: C_1  and  N_2
REMARK    2  A    between atoms: C_3  and  C_4
REMARK    3  A    between atoms: C_5  and  C_6
REMARK                            x       y       z     vdW  Elec       q    Type
REMARK                         _______ _______ _______ _____ _____    ______ ____
ROOT
ATOM      1  C   UNL     1       3.259   7.252  18.081  0.00  0.00    +0.000 C 
ATOM      2  N   UNL     1       2.727   6.171  18.939  0.00  0.00    +0.000 N 
ATOM      3  C   UNL     1       1.986   6.448  20.082  0.00  0.00    +0.000 A 
ATOM      4  C   UNL     1       1.561   5.383  20.903  0.00  0.00    +0.000 A 
ATOM      5  C   UNL     1       1.869   4.074  20.584  0.00  0.00    +0.000 A 
ATOM      6  C   UNL     1       2.598   3.792  19.441  0.00  0.00    +0.000 A 
ATOM      7  C   UNL     1       2.908   2.459  19.124  0.00  0.00    +0.000 A 
ATOM      8  C   UNL     1       3.645   2.161  17.980  0.00  0.00    +0.000 A 
ATOM      9  C   UNL     1       4.074   3.186  17.143  0.00  0.00    +0.000 A 
ATOM     10  C   UNL     1       3.774   4.517  17.444  0.00  0.00    +0.000 A 
ATOM     11  C   UNL     1       3.029   4.857  18.605  0.00  0.00    +0.000 A 
ENDROOT
BRANCH   3  12
ATOM     12  C   UNL     1       1.572   7.847  20.463  0.00  0.00    +0.000 C 
ATOM     13  C   UNL     1       0.627   8.125  21.383  0.00  0.00    +0.000 C 
BRANCH  13  14
ATOM     14  C   UNL     1       0.224   9.505  21.706  0.00  0.00    +0.000 A 
ATOM     15  C   UNL     1      -0.528   9.869  22.805  0.00  0.00    +0.000 A 
ATOM     16  C   UNL     1      -0.692  11.231  22.715  0.00  0.00    +0.000 A 
ATOM     17  C   UNL     1      -0.031  11.615  21.567  0.00  0.00    +0.000 A 
ATOM     18 BR   UNL     1       0.082  13.396  20.898  0.00  0.00    +0.000 Br
ATOM     19  O   UNL     1       0.510  10.567  20.985  0.00  0.00    +0.000 OA
ENDBRANCH  13  14
ENDBRANCH   3  12
TORSDOF 2
ENDMDL
MODEL 7
REMARK VINA RESULT:      -6.7      7.748      8.927
REMARK  Name = 
REMARK  3 active torsions:
REMARK  status: ('A' for Active; 'I' for Inactive)
REMARK    1  A    between atoms: C_1  and  N_2
REMARK    2  A    between atoms: C_3  and  C_4
REMARK    3  A    between atoms: C_5  and  C_6
REMARK                            x       y       z     vdW  Elec       q    Type
REMARK                         _______ _______ _______ _____ _____    ______ ____
ROOT
ATOM      1  C   UNL     1       0.293  10.009  18.363  0.00  0.00    +0.000 C 
ATOM      2  N   UNL     1       0.419   9.726  19.810  0.00  0.00    +0.000 N 
ATOM      3  C   UNL     1       1.218   8.691  20.282  0.00  0.00    +0.000 A 
ATOM      4  C   UNL     1       1.250   8.420  21.665  0.00  0.00    +0.000 A 
ATOM      5  C   UNL     1       0.501   9.170  22.552  0.00  0.00    +0.000 A 
ATOM      6  C   UNL     1      -0.289  10.209  22.088  0.00  0.00    +0.000 A 
ATOM      7  C   UNL     1      -1.047  10.966  22.997  0.00  0.00    +0.000 A 
ATOM      8  C   UNL     1      -1.849  12.011  22.543  0.00  0.00    +0.000 A 
ATOM      9  C   UNL     1      -1.899  12.311  21.186  0.00  0.00    +0.000 A 
ATOM     10  C   UNL     1      -1.151  11.568  20.270  0.00  0.00    +0.000 A 
ATOM     11  C   UNL     1      -0.326  10.492  20.697  0.00  0.00    +0.000 A 
ENDROOT
BRANCH   3  12
ATOM     12  C   UNL     1       2.098   7.866  19.376  0.00  0.00    +0.000 C 
ATOM     13  C   UNL     1       2.442   6.587  19.628  0.00  0.00    +0.000 C 
BRANCH  13  14
ATOM     14  C   UNL     1       3.331   5.822  18.737  0.00  0.00    +0.000 A 
ATOM     15  C   UNL     1       2.903   4.925  17.778  0.00  0.00    +0.000 A 
ATOM     16  C   UNL     1       4.044   4.424  17.195  0.00  0.00    +0.000 A 
ATOM     17  C   UNL     1       5.097   5.044  17.834  0.00  0.00    +0.000 A 
ATOM     18 BR   UNL     1       6.944   4.743  17.470  0.00  0.00    +0.000 Br
ATOM     19  O   UNL     1       4.645   5.876  18.747  0.00  0.00    +0.000 OA
ENDBRANCH  13  14
ENDBRANCH   3  12
TORSDOF 2
ENDMDL
MODEL 8
REMARK VINA RESULT:      -6.7      8.080     10.148
REMARK  Name = 
REMARK  3 active torsions:
REMARK  status: ('A' for Active; 'I' for Inactive)
REMARK    1  A    between atoms: C_1  and  N_2
REMARK    2  A    between atoms: C_3  and  C_4
REMARK    3  A    between atoms: C_5  and  C_6
REMARK                            x       y       z     vdW  Elec       q    Type
REMARK                         _______ _______ _______ _____ _____    ______ ____
ROOT
ATOM      1  C   UNL     1       2.732   8.391  17.934  0.00  0.00    +0.000 C 
ATOM      2  N   UNL     1       2.719   7.123  18.695  0.00  0.00    +0.000 N 
ATOM      3  C   UNL     1       2.015   6.996  19.887  0.00  0.00    +0.000 A 
ATOM      4  C   UNL     1       2.092   5.787  20.608  0.00  0.00    +0.000 A 
ATOM      5  C   UNL     1       2.852   4.730  20.143  0.00  0.00    +0.000 A 
ATOM      6  C   UNL     1       3.546   4.847  18.951  0.00  0.00    +0.000 A 
ATOM      7  C   UNL     1       4.317   3.769  18.485  0.00  0.00    +0.000 A 
ATOM      8  C   UNL     1       5.024   3.874  17.290  0.00  0.00    +0.000 A 
ATOM      9  C   UNL     1       4.965   5.050  16.549  0.00  0.00    +0.000 A 
ATOM     10  C   UNL     1       4.203   6.132  16.997  0.00  0.00    +0.000 A 
ATOM     11  C   UNL     1       3.474   6.060  18.215  0.00  0.00    +0.000 A 
ENDROOT
BRANCH   3  12
ATOM     12  C   UNL     1       1.128   8.090  20.426  0.00  0.00    +0.000 C 
ATOM     13  C   UNL     1       1.373   8.757  21.572  0.00  0.00    +0.000 C 
BRANCH  13  14
ATOM     14  C   UNL     1       0.465   9.797  22.086  0.00  0.00    +0.000 A 
ATOM     15  C   UNL     1      -0.604   9.563  22.928  0.00  0.00    +0.000 A 
ATOM     16  C   UNL     1      -1.190  10.788  23.143  0.00  0.00    +0.000 A 
ATOM     17  C   UNL     1      -0.446  11.694  22.417  0.00  0.00    +0.000 A 
ATOM     18 BR   UNL     1      -0.785  13.566  22.304  0.00  0.00    +0.000 Br
ATOM     19  O   UNL     1       0.538  11.078  21.799  0.00  0.00    +0.000 OA
ENDBRANCH  13  14
ENDBRANCH   3  12
TORSDOF 2
ENDMDL
MODEL 9
REMARK VINA RESULT:      -6.7      7.688      9.259
REMARK  Name = 
REMARK  3 active torsions:
REMARK  status: ('A' for Active; 'I' for Inactive)
REMARK    1  A    between atoms: C_1  and  N_2
REMARK    2  A    between atoms: C_3  and  C_4
REMARK    3  A    between atoms: C_5  and  C_6
REMARK                            x       y       z     vdW  Elec       q    Type
REMARK                         _______ _______ _______ _____ _____    ______ ____
ROOT
ATOM      1  C   UNL     1       3.474   2.729  17.691  0.00  0.00    +0.000 C 
ATOM      2  N   UNL     1       3.524   4.206  17.761  0.00  0.00    +0.000 N 
ATOM      3  C   UNL     1       4.266   4.952  16.855  0.00  0.00    +0.000 A 
ATOM      4  C   UNL     1       4.335   6.352  17.007  0.00  0.00    +0.000 A 
ATOM      5  C   UNL     1       3.673   6.987  18.041  0.00  0.00    +0.000 A 
ATOM      6  C   UNL     1       2.923   6.249  18.941  0.00  0.00    +0.000 A 
ATOM      7  C   UNL     1       2.254   6.901  19.990  0.00  0.00    +0.000 A 
ATOM      8  C   UNL     1       1.499   6.171  20.905  0.00  0.00    +0.000 A 
ATOM      9  C   UNL     1       1.403   4.789  20.780  0.00  0.00    +0.000 A 
ATOM     10  C   UNL     1       2.063   4.124  19.743  0.00  0.00    +0.000 A 
ATOM     11  C   UNL     1       2.845   4.838  18.795  0.00  0.00    +0.000 A 
ENDROOT
BRANCH   3  12
ATOM     12  C   UNL     1       4.972   4.331  15.676  0.00  0.00    +0.000 C 
ATOM     13  C   UNL     1       5.623   5.041  14.732  0.00  0.00    +0.000 C 
BRANCH  13  14
ATOM     14  C   UNL     1       6.273   4.401  13.575  0.00  0.00    +0.000 A 
ATOM     15  C   UNL     1       7.290   4.967  12.832  0.00  0.00    +0.000 A 
ATOM     16  C   UNL     1       7.587   4.056  11.845  0.00  0.00    +0.000 A 
ATOM     17  C   UNL     1       6.732   2.992  12.045  0.00  0.00    +0.000 A 
ATOM     18 BR   UNL     1       6.657   1.417  10.974  0.00  0.00    +0.000 Br
ATOM     19  O   UNL     1       5.961   3.221  13.086  0.00  0.00    +0.000 OA
ENDBRANCH  13  14
ENDBRANCH   3  12
TORSDOF 2
ENDMDL
