MODEL 1
REMARK VINA RESULT:      -7.9      0.000      0.000
REMARK  Name = 
REMARK  5 active torsions:
REMARK  status: ('A' for Active; 'I' for Inactive)
REMARK    1  A    between atoms: C_1  and  O_2
REMARK    2  A    between atoms: O_2  and  C_3
REMARK    3  A    between atoms: C_3  and  C_11
REMARK    4  A    between atoms: C_4  and  C_5
REMARK    5  A    between atoms: N_13  and  C_14
REMARK                            x       y       z     vdW  Elec       q    Type
REMARK                         _______ _______ _______ _____ _____    ______ ____
ROOT
ATOM      1  C   UNL     1       5.849   4.493  18.322  0.00  0.00    +0.000 C 
ATOM      2  O   UNL     1       6.388   4.688  19.409  0.00  0.00    +0.000 OA
ATOM      3  N   UNL     1       4.597   3.943  18.147  0.00  0.00    +0.000 N 
ATOM      4  H   UNL     1       4.346   3.685  17.204  0.00  0.00    +0.000 HD
ENDROOT
BRANCH   3   5
ATOM      5  C   UNL     1       3.661   3.632  19.156  0.00  0.00    +0.000 A 
ATOM      6  C   UNL     1       3.916   2.738  20.203  0.00  0.00    +0.000 A 
ATOM      7  C   UNL     1       2.926   2.433  21.140  0.00  0.00    +0.000 A 
ATOM      8  C   UNL     1       1.683   3.039  21.041  0.00  0.00    +0.000 A 
ATOM      9  F   UNL     1       0.728   2.734  21.929  0.00  0.00    +0.000 F 
ATOM     10  C   UNL     1       1.416   3.957  20.034  0.00  0.00    +0.000 A 
ATOM     11  C   UNL     1       2.406   4.256  19.092  0.00  0.00    +0.000 A 
ENDBRANCH   3   5
BRANCH   1  12
ATOM     12  C   UNL     1       6.576   4.838  17.032  0.00  0.00    +0.000 C 
ATOM     13  C   UNL     1       6.138   4.163  15.943  0.00  0.00    +0.000 C 
BRANCH  13  14
ATOM     14  C   UNL     1       6.556   4.245  14.533  0.00  0.00    +0.000 A 
ATOM     15  C   UNL     1       5.872   3.453  13.593  0.00  0.00    +0.000 A 
ATOM     16  C   UNL     1       6.161   3.541  12.228  0.00  0.00    +0.000 A 
ATOM     17  C   UNL     1       7.137   4.425  11.782  0.00  0.00    +0.000 A 
ATOM     18  C   UNL     1       7.819   5.224  12.704  0.00  0.00    +0.000 A 
ATOM     19  C   UNL     1       7.526   5.135  14.068  0.00  0.00    +0.000 A 
ENDBRANCH  13  14
BRANCH  12  21
ATOM     20  C   UNL     1       7.155   7.143  17.305  0.00  0.00    +0.000 C 
ATOM     21  O   UNL     1       7.550   5.817  16.955  0.00  0.00    +0.000 OA
ENDBRANCH  12  21
ENDBRANCH   1  12
TORSDOF 4
ENDMDL
MODEL 2
REMARK VINA RESULT:      -7.9      0.626      1.406
REMARK  Name = 
REMARK  5 active torsions:
REMARK  status: ('A' for Active; 'I' for Inactive)
REMARK    1  A    between atoms: C_1  and  O_2
REMARK    2  A    between atoms: O_2  and  C_3
REMARK    3  A    between atoms: C_3  and  C_11
REMARK    4  A    between atoms: C_4  and  C_5
REMARK    5  A    between atoms: N_13  and  C_14
REMARK                            x       y       z     vdW  Elec       q    Type
REMARK                         _______ _______ _______ _____ _____    ______ ____
ROOT
ATOM      1  C   UNL     1       5.740   4.469  18.257  0.00  0.00    +0.000 C 
ATOM      2  O   UNL     1       6.296   4.601  19.344  0.00  0.00    +0.000 OA
ATOM      3  N   UNL     1       4.450   4.014  18.078  0.00  0.00    +0.000 N 
ATOM      4  H   UNL     1       4.176   3.796  17.131  0.00  0.00    +0.000 HD
ENDROOT
BRANCH   3   5
ATOM      5  C   UNL     1       3.499   3.750  19.086  0.00  0.00    +0.000 A 
ATOM      6  C   UNL     1       3.097   4.692  20.041  0.00  0.00    +0.000 A 
ATOM      7  C   UNL     1       2.190   4.349  21.046  0.00  0.00    +0.000 A 
ATOM      8  C   UNL     1       1.667   3.066  21.084  0.00  0.00    +0.000 A 
ATOM      9  F   UNL     1       0.810   2.732  22.058  0.00  0.00    +0.000 F 
ATOM     10  C   UNL     1       2.021   2.123  20.128  0.00  0.00    +0.000 A 
ATOM     11  C   UNL     1       2.935   2.466  19.127  0.00  0.00    +0.000 A 
ENDBRANCH   3   5
BRANCH   1  12
ATOM     12  C   UNL     1       6.483   4.789  16.970  0.00  0.00    +0.000 C 
ATOM     13  C   UNL     1       5.958   4.216  15.861  0.00  0.00    +0.000 C 
BRANCH  13  14
ATOM     14  C   UNL     1       6.363   4.315  14.449  0.00  0.00    +0.000 A 
ATOM     15  C   UNL     1       7.408   5.198  14.119  0.00  0.00    +0.000 A 
ATOM     16  C   UNL     1       7.898   5.281  12.812  0.00  0.00    +0.000 A 
ATOM     17  C   UNL     1       7.352   4.481  11.815  0.00  0.00    +0.000 A 
ATOM     18  C   UNL     1       6.319   3.593  12.130  0.00  0.00    +0.000 A 
ATOM     19  C   UNL     1       5.833   3.510  13.437  0.00  0.00    +0.000 A 
ENDBRANCH  13  14
BRANCH  12  21
ATOM     20  C   UNL     1       7.313   7.007  17.306  0.00  0.00    +0.000 C 
ATOM     21  O   UNL     1       7.559   5.656  16.918  0.00  0.00    +0.000 OA
ENDBRANCH  12  21
ENDBRANCH   1  12
TORSDOF 4
ENDMDL
MODEL 3
REMARK VINA RESULT:      -7.9      0.872      1.371
REMARK  Name = 
REMARK  5 active torsions:
REMARK  status: ('A' for Active; 'I' for Inactive)
REMARK    1  A    between atoms: C_1  and  O_2
REMARK    2  A    between atoms: O_2  and  C_3
REMARK    3  A    between atoms: C_3  and  C_11
REMARK    4  A    between atoms: C_4  and  C_5
REMARK    5  A    between atoms: N_13  and  C_14
REMARK                            x       y       z     vdW  Elec       q    Type
REMARK                         _______ _______ _______ _____ _____    ______ ____
ROOT
ATOM      1  C   UNL     1       4.727   5.336  17.987  0.00  0.00    +0.000 C 
ATOM      2  O   UNL     1       4.708   6.189  18.871  0.00  0.00    +0.000 OA
ATOM      3  N   UNL     1       4.075   4.122  18.045  0.00  0.00    +0.000 N 
ATOM      4  H   UNL     1       4.309   3.451  17.328  0.00  0.00    +0.000 HD
ENDROOT
BRANCH   3   5
ATOM      5  C   UNL     1       3.173   3.692  19.042  0.00  0.00    +0.000 A 
ATOM      6  C   UNL     1       1.798   3.953  19.010  0.00  0.00    +0.000 A 
ATOM      7  C   UNL     1       0.969   3.545  20.057  0.00  0.00    +0.000 A 
ATOM      8  C   UNL     1       1.513   2.857  21.129  0.00  0.00    +0.000 A 
ATOM      9  F   UNL     1       0.720   2.480  22.142  0.00  0.00    +0.000 F 
ATOM     10  C   UNL     1       2.867   2.553  21.169  0.00  0.00    +0.000 A 
ATOM     11  C   UNL     1       3.698   2.969  20.123  0.00  0.00    +0.000 A 
ENDBRANCH   3   5
BRANCH   1  12
ATOM     12  C   UNL     1       5.533   5.563  16.718  0.00  0.00    +0.000 C 
ATOM     13  C   UNL     1       5.502   4.531  15.842  0.00  0.00    +0.000 C 
BRANCH  13  14
ATOM     14  C   UNL     1       6.114   4.387  14.510  0.00  0.00    +0.000 A 
ATOM     15  C   UNL     1       5.451   3.589  13.560  0.00  0.00    +0.000 A 
ATOM     16  C   UNL     1       5.932   3.474  12.252  0.00  0.00    +0.000 A 
ATOM     17  C   UNL     1       7.082   4.158  11.873  0.00  0.00    +0.000 A 
ATOM     18  C   UNL     1       7.746   4.961  12.805  0.00  0.00    +0.000 A 
ATOM     19  C   UNL     1       7.262   5.076  14.110  0.00  0.00    +0.000 A 
ENDBRANCH  13  14
BRANCH  12  21
ATOM     20  C   UNL     1       7.330   7.055  17.232  0.00  0.00    +0.000 C 
ATOM     21  O   UNL     1       6.182   6.752  16.441  0.00  0.00    +0.000 OA
ENDBRANCH  12  21
ENDBRANCH   1  12
TORSDOF 4
ENDMDL
MODEL 4
REMARK VINA RESULT:      -7.8      1.002      1.804
REMARK  Name = 
REMARK  5 active torsions:
REMARK  status: ('A' for Active; 'I' for Inactive)
REMARK    1  A    between atoms: C_1  and  O_2
REMARK    2  A    between atoms: O_2  and  C_3
REMARK    3  A    between atoms: C_3  and  C_11
REMARK    4  A    between atoms: C_4  and  C_5
REMARK    5  A    between atoms: N_13  and  C_14
REMARK                            x       y       z     vdW  Elec       q    Type
REMARK                         _______ _______ _______ _____ _____    ______ ____
ROOT
ATOM      1  C   UNL     1       4.934   4.524  17.937  0.00  0.00    +0.000 C 
ATOM      2  O   UNL     1       4.651   5.608  18.440  0.00  0.00    +0.000 OA
ATOM      3  N   UNL     1       4.438   3.305  18.350  0.00  0.00    +0.000 N 
ATOM      4  H   UNL     1       4.879   2.484  17.961  0.00  0.00    +0.000 HD
ENDROOT
BRANCH   3   5
ATOM      5  C   UNL     1       3.432   3.084  19.314  0.00  0.00    +0.000 A 
ATOM      6  C   UNL     1       2.079   3.377  19.106  0.00  0.00    +0.000 A 
ATOM      7  C   UNL     1       1.140   3.184  20.122  0.00  0.00    +0.000 A 
ATOM      8  C   UNL     1       1.553   2.677  21.344  0.00  0.00    +0.000 A 
ATOM      9  F   UNL     1       0.656   2.508  22.325  0.00  0.00    +0.000 F 
ATOM     10  C   UNL     1       2.883   2.344  21.565  0.00  0.00    +0.000 A 
ATOM     11  C   UNL     1       3.823   2.545  20.549  0.00  0.00    +0.000 A 
ENDBRANCH   3   5
BRANCH   1  12
ATOM     12  C   UNL     1       5.922   4.448  16.784  0.00  0.00    +0.000 C 
ATOM     13  C   UNL     1       5.350   4.362  15.560  0.00  0.00    +0.000 C 
BRANCH  13  14
ATOM     14  C   UNL     1       5.958   4.309  14.219  0.00  0.00    +0.000 A 
ATOM     15  C   UNL     1       7.084   5.115  13.971  0.00  0.00    +0.000 A 
ATOM     16  C   UNL     1       7.761   5.054  12.749  0.00  0.00    +0.000 A 
ATOM     17  C   UNL     1       7.323   4.183  11.757  0.00  0.00    +0.000 A 
ATOM     18  C   UNL     1       6.210   3.371  11.993  0.00  0.00    +0.000 A 
ATOM     19  C   UNL     1       5.537   3.433  13.216  0.00  0.00    +0.000 A 
ENDBRANCH  13  14
BRANCH  12  21
ATOM     20  C   UNL     1       7.752   4.803  18.282  0.00  0.00    +0.000 C 
ATOM     21  O   UNL     1       7.290   4.538  16.958  0.00  0.00    +0.000 OA
ENDBRANCH  12  21
ENDBRANCH   1  12
TORSDOF 4
ENDMDL
MODEL 5
REMARK VINA RESULT:      -7.5      1.021      1.475
REMARK  Name = 
REMARK  5 active torsions:
REMARK  status: ('A' for Active; 'I' for Inactive)
REMARK    1  A    between atoms: C_1  and  O_2
REMARK    2  A    between atoms: O_2  and  C_3
REMARK    3  A    between atoms: C_3  and  C_11
REMARK    4  A    between atoms: C_4  and  C_5
REMARK    5  A    between atoms: N_13  and  C_14
REMARK                            x       y       z     vdW  Elec       q    Type
REMARK                         _______ _______ _______ _____ _____    ______ ____
ROOT
ATOM      1  C   UNL     1       4.558   5.442  17.953  0.00  0.00    +0.000 C 
ATOM      2  O   UNL     1       4.377   6.395  18.707  0.00  0.00    +0.000 OA
ATOM      3  N   UNL     1       4.143   4.150  18.196  0.00  0.00    +0.000 N 
ATOM      4  H   UNL     1       4.500   3.438  17.576  0.00  0.00    +0.000 HD
ENDROOT
BRANCH   3   5
ATOM      5  C   UNL     1       3.333   3.708  19.264  0.00  0.00    +0.000 A 
ATOM      6  C   UNL     1       3.793   2.881  20.296  0.00  0.00    +0.000 A 
ATOM      7  C   UNL     1       2.924   2.435  21.295  0.00  0.00    +0.000 A 
ATOM      8  C   UNL     1       1.597   2.833  21.273  0.00  0.00    +0.000 A 
ATOM      9  F   UNL     1       0.760   2.392  22.221  0.00  0.00    +0.000 F 
ATOM     10  C   UNL     1       1.124   3.682  20.281  0.00  0.00    +0.000 A 
ATOM     11  C   UNL     1       1.993   4.122  19.277  0.00  0.00    +0.000 A 
ENDBRANCH   3   5
BRANCH   1  12
ATOM     12  C   UNL     1       5.313   5.630  16.647  0.00  0.00    +0.000 C 
ATOM     13  C   UNL     1       5.256   4.570  15.808  0.00  0.00    +0.000 C 
BRANCH  13  14
ATOM     14  C   UNL     1       5.818   4.384  14.459  0.00  0.00    +0.000 A 
ATOM     15  C   UNL     1       7.094   4.915  14.194  0.00  0.00    +0.000 A 
ATOM     16  C   UNL     1       7.721   4.705  12.962  0.00  0.00    +0.000 A 
ATOM     17  C   UNL     1       7.083   3.960  11.977  0.00  0.00    +0.000 A 
ATOM     18  C   UNL     1       5.818   3.420  12.229  0.00  0.00    +0.000 A 
ATOM     19  C   UNL     1       5.195   3.630  13.462  0.00  0.00    +0.000 A 
ENDBRANCH  13  14
BRANCH  12  21
ATOM     20  C   UNL     1       7.166   7.106  16.976  0.00  0.00    +0.000 C 
ATOM     21  O   UNL     1       5.942   6.813  16.305  0.00  0.00    +0.000 OA
ENDBRANCH  12  21
ENDBRANCH   1  12
TORSDOF 4
ENDMDL
MODEL 6
REMARK VINA RESULT:      -7.4      3.209      7.522
REMARK  Name = 
REMARK  5 active torsions:
REMARK  status: ('A' for Active; 'I' for Inactive)
REMARK    1  A    between atoms: C_1  and  O_2
REMARK    2  A    between atoms: O_2  and  C_3
REMARK    3  A    between atoms: C_3  and  C_11
REMARK    4  A    between atoms: C_4  and  C_5
REMARK    5  A    between atoms: N_13  and  C_14
REMARK                            x       y       z     vdW  Elec       q    Type
REMARK                         _______ _______ _______ _____ _____    ______ ____
ROOT
ATOM      1  C   UNL     1       5.025   5.442  16.666  0.00  0.00    +0.000 C 
ATOM      2  O   UNL     1       5.064   6.603  16.266  0.00  0.00    +0.000 OA
ATOM      3  N   UNL     1       5.401   4.339  15.930  0.00  0.00    +0.000 N 
ATOM      4  H   UNL     1       5.162   3.437  16.316  0.00  0.00    +0.000 HD
ENDROOT
BRANCH   3   5
ATOM      5  C   UNL     1       6.017   4.337  14.660  0.00  0.00    +0.000 A 
ATOM      6  C   UNL     1       7.186   5.047  14.364  0.00  0.00    +0.000 A 
ATOM      7  C   UNL     1       7.715   5.047  13.071  0.00  0.00    +0.000 A 
ATOM      8  C   UNL     1       7.083   4.318  12.076  0.00  0.00    +0.000 A 
ATOM      9  F   UNL     1       7.579   4.331  10.832  0.00  0.00    +0.000 F 
ATOM     10  C   UNL     1       5.942   3.576  12.352  0.00  0.00    +0.000 A 
ATOM     11  C   UNL     1       5.410   3.583  13.646  0.00  0.00    +0.000 A 
ENDBRANCH   3   5
BRANCH   1  12
ATOM     12  C   UNL     1       4.507   5.128  18.060  0.00  0.00    +0.000 C 
ATOM     13  C   UNL     1       3.462   4.267  18.090  0.00  0.00    +0.000 C 
BRANCH  13  14
ATOM     14  C   UNL     1       2.720   3.700  19.229  0.00  0.00    +0.000 A 
ATOM     15  C   UNL     1       3.440   2.962  20.186  0.00  0.00    +0.000 A 
ATOM     16  C   UNL     1       2.815   2.464  21.334  0.00  0.00    +0.000 A 
ATOM     17  C   UNL     1       1.461   2.699  21.543  0.00  0.00    +0.000 A 
ATOM     18  C   UNL     1       0.735   3.439  20.604  0.00  0.00    +0.000 A 
ATOM     19  C   UNL     1       1.363   3.936  19.459  0.00  0.00    +0.000 A 
ENDBRANCH  13  14
BRANCH  12  21
ATOM     20  C   UNL     1       6.509   5.438  19.330  0.00  0.00    +0.000 C 
ATOM     21  O   UNL     1       5.098   5.615  19.211  0.00  0.00    +0.000 OA
ENDBRANCH  12  21
ENDBRANCH   1  12
TORSDOF 4
ENDMDL
MODEL 7
REMARK VINA RESULT:      -7.3      3.217      7.523
REMARK  Name = 
REMARK  5 active torsions:
REMARK  status: ('A' for Active; 'I' for Inactive)
REMARK    1  A    between atoms: C_1  and  O_2
REMARK    2  A    between atoms: O_2  and  C_3
REMARK    3  A    between atoms: C_3  and  C_11
REMARK    4  A    between atoms: C_4  and  C_5
REMARK    5  A    between atoms: N_13  and  C_14
REMARK                            x       y       z     vdW  Elec       q    Type
REMARK                         _______ _______ _______ _____ _____    ______ ____
ROOT
ATOM      1  C   UNL     1       4.947   5.428  16.595  0.00  0.00    +0.000 C 
ATOM      2  O   UNL     1       4.907   6.568  16.140  0.00  0.00    +0.000 OA
ATOM      3  N   UNL     1       5.332   4.308  15.890  0.00  0.00    +0.000 N 
ATOM      4  H   UNL     1       5.159   3.416  16.331  0.00  0.00    +0.000 HD
ENDROOT
BRANCH   3   5
ATOM      5  C   UNL     1       5.871   4.272  14.586  0.00  0.00    +0.000 A 
ATOM      6  C   UNL     1       5.281   3.581  13.521  0.00  0.00    +0.000 A 
ATOM      7  C   UNL     1       5.895   3.541  12.267  0.00  0.00    +0.000 A 
ATOM      8  C   UNL     1       7.093   4.211  12.072  0.00  0.00    +0.000 A 
ATOM      9  F   UNL     1       7.691   4.159  10.875  0.00  0.00    +0.000 F 
ATOM     10  C   UNL     1       7.681   4.934  13.102  0.00  0.00    +0.000 A 
ATOM     11  C   UNL     1       7.068   4.967  14.359  0.00  0.00    +0.000 A 
ENDBRANCH   3   5
BRANCH   1  12
ATOM     12  C   UNL     1       4.527   5.159  18.031  0.00  0.00    +0.000 C 
ATOM     13  C   UNL     1       3.475   4.318  18.161  0.00  0.00    +0.000 C 
BRANCH  13  14
ATOM     14  C   UNL     1       2.810   3.793  19.366  0.00  0.00    +0.000 A 
ATOM     15  C   UNL     1       1.423   3.993  19.497  0.00  0.00    +0.000 A 
ATOM     16  C   UNL     1       0.714   3.452  20.574  0.00  0.00    +0.000 A 
ATOM     17  C   UNL     1       1.381   2.701  21.535  0.00  0.00    +0.000 A 
ATOM     18  C   UNL     1       2.757   2.488  21.413  0.00  0.00    +0.000 A 
ATOM     19  C   UNL     1       3.462   3.028  20.335  0.00  0.00    +0.000 A 
ENDBRANCH  13  14
BRANCH  12  21
ATOM     20  C   UNL     1       6.620   5.459  19.149  0.00  0.00    +0.000 C 
ATOM     21  O   UNL     1       5.209   5.667  19.122  0.00  0.00    +0.000 OA
ENDBRANCH  12  21
ENDBRANCH   1  12
TORSDOF 4
ENDMDL
MODEL 8
REMARK VINA RESULT:      -7.3      3.219      7.495
REMARK  Name = 
REMARK  5 active torsions:
REMARK  status: ('A' for Active; 'I' for Inactive)
REMARK    1  A    between atoms: C_1  and  O_2
REMARK    2  A    between atoms: O_2  and  C_3
REMARK    3  A    between atoms: C_3  and  C_11
REMARK    4  A    between atoms: C_4  and  C_5
REMARK    5  A    between atoms: N_13  and  C_14
REMARK                            x       y       z     vdW  Elec       q    Type
REMARK                         _______ _______ _______ _____ _____    ______ ____
ROOT
ATOM      1  C   UNL     1       5.072   5.505  16.589  0.00  0.00    +0.000 C 
ATOM      2  O   UNL     1       5.041   6.643  16.129  0.00  0.00    +0.000 OA
ATOM      3  N   UNL     1       5.494   4.385  15.904  0.00  0.00    +0.000 N 
ATOM      4  H   UNL     1       5.311   3.493  16.341  0.00  0.00    +0.000 HD
ENDROOT
BRANCH   3   5
ATOM      5  C   UNL     1       6.085   4.349  14.623  0.00  0.00    +0.000 A 
ATOM      6  C   UNL     1       7.236   5.067  14.279  0.00  0.00    +0.000 A 
ATOM      7  C   UNL     1       7.740   5.030  12.977  0.00  0.00    +0.000 A 
ATOM      8  C   UNL     1       7.102   4.256  12.020  0.00  0.00    +0.000 A 
ATOM      9  F   UNL     1       7.574   4.233  10.767  0.00  0.00    +0.000 F 
ATOM     10  C   UNL     1       5.979   3.505  12.344  0.00  0.00    +0.000 A 
ATOM     11  C   UNL     1       5.472   3.549  13.647  0.00  0.00    +0.000 A 
ENDBRANCH   3   5
BRANCH   1  12
ATOM     12  C   UNL     1       4.597   5.238  18.008  0.00  0.00    +0.000 C 
ATOM     13  C   UNL     1       3.561   4.371  18.101  0.00  0.00    +0.000 C 
BRANCH  13  14
ATOM     14  C   UNL     1       2.858   3.841  19.281  0.00  0.00    +0.000 A 
ATOM     15  C   UNL     1       1.484   4.112  19.410  0.00  0.00    +0.000 A 
ATOM     16  C   UNL     1       0.737   3.571  20.462  0.00  0.00    +0.000 A 
ATOM     17  C   UNL     1       1.353   2.750  21.399  0.00  0.00    +0.000 A 
ATOM     18  C   UNL     1       2.717   2.466  21.278  0.00  0.00    +0.000 A 
ATOM     19  C   UNL     1       3.460   3.006  20.225  0.00  0.00    +0.000 A 
ENDBRANCH  13  14
BRANCH  12  21
ATOM     20  C   UNL     1       6.591   5.429  19.316  0.00  0.00    +0.000 C 
ATOM     21  O   UNL     1       5.219   5.771  19.123  0.00  0.00    +0.000 OA
ENDBRANCH  12  21
ENDBRANCH   1  12
TORSDOF 4
ENDMDL
MODEL 9
REMARK VINA RESULT:      -7.3      3.246      7.553
REMARK  Name = 
REMARK  5 active torsions:
REMARK  status: ('A' for Active; 'I' for Inactive)
REMARK    1  A    between atoms: C_1  and  O_2
REMARK    2  A    between atoms: O_2  and  C_3
REMARK    3  A    between atoms: C_3  and  C_11
REMARK    4  A    between atoms: C_4  and  C_5
REMARK    5  A    between atoms: N_13  and  C_14
REMARK                            x       y       z     vdW  Elec       q    Type
REMARK                         _______ _______ _______ _____ _____    ______ ____
ROOT
ATOM      1  C   UNL     1       4.884   5.425  16.515  0.00  0.00    +0.000 C 
ATOM      2  O   UNL     1       4.953   6.577  16.096  0.00  0.00    +0.000 OA
ATOM      3  N   UNL     1       5.205   4.297  15.789  0.00  0.00    +0.000 N 
ATOM      4  H   UNL     1       4.945   3.410  16.195  0.00  0.00    +0.000 HD
ENDROOT
BRANCH   3   5
ATOM      5  C   UNL     1       5.790   4.256  14.505  0.00  0.00    +0.000 A 
ATOM      6  C   UNL     1       5.243   3.552  13.426  0.00  0.00    +0.000 A 
ATOM      7  C   UNL     1       5.901   3.506  12.195  0.00  0.00    +0.000 A 
ATOM      8  C   UNL     1       7.100   4.185  12.037  0.00  0.00    +0.000 A 
ATOM      9  F   UNL     1       7.740   4.128  10.861  0.00  0.00    +0.000 F 
ATOM     10  C   UNL     1       7.645   4.921  13.080  0.00  0.00    +0.000 A 
ATOM     11  C   UNL     1       6.989   4.959  14.315  0.00  0.00    +0.000 A 
ENDBRANCH   3   5
BRANCH   1  12
ATOM     12  C   UNL     1       4.388   5.150  17.926  0.00  0.00    +0.000 C 
ATOM     13  C   UNL     1       3.394   4.234  18.004  0.00  0.00    +0.000 C 
BRANCH  13  14
ATOM     14  C   UNL     1       2.689   3.682  19.173  0.00  0.00    +0.000 A 
ATOM     15  C   UNL     1       3.446   2.990  20.136  0.00  0.00    +0.000 A 
ATOM     16  C   UNL     1       2.856   2.511  21.310  0.00  0.00    +0.000 A 
ATOM     17  C   UNL     1       1.500   2.718  21.539  0.00  0.00    +0.000 A 
ATOM     18  C   UNL     1       0.738   3.412  20.594  0.00  0.00    +0.000 A 
ATOM     19  C   UNL     1       1.331   3.891  19.423  0.00  0.00    +0.000 A 
ENDBRANCH  13  14
BRANCH  12  21
ATOM     20  C   UNL     1       6.320   5.401  19.314  0.00  0.00    +0.000 C 
ATOM     21  O   UNL     1       4.956   5.725  19.048  0.00  0.00    +0.000 OA
ENDBRANCH  12  21
ENDBRANCH   1  12
TORSDOF 4
ENDMDL
