MODEL 1
REMARK VINA RESULT:      -8.5      0.000      0.000
REMARK  Name = 
REMARK  9 active torsions:
REMARK  status: ('A' for Active; 'I' for Inactive)
REMARK    1  A    between atoms: C_1  and  C_2
REMARK    2  A    between atoms: C_2  and  C_3
REMARK    3  A    between atoms: N_5  and  C_6
REMARK    4  A    between atoms: C_8  and  C_9
REMARK    5  A    between atoms: C_9  and  N_10
REMARK    6  A    between atoms: N_10  and  C_11
REMARK    7  A    between atoms: C_12  and  C_13
REMARK    8  A    between atoms: C_15  and  C_16
REMARK    9  A    between atoms: C_28  and  O_29
REMARK                            x       y       z     vdW  Elec       q    Type
REMARK                         _______ _______ _______ _____ _____    ______ ____
ROOT
ATOM      1  C   UNL     1       3.686   7.665  17.488  0.00  0.00    +0.000 C 
ENDROOT
BRANCH   1   4
ATOM      2  C   UNL     1       6.047   5.170  15.833  0.00  0.00    +0.000 A 
ATOM      3  C   UNL     1       4.995   6.063  16.063  0.00  0.00    +0.000 A 
ATOM      4  C   UNL     1       4.885   6.777  17.263  0.00  0.00    +0.000 A 
ATOM      5  C   UNL     1       5.864   6.600  18.249  0.00  0.00    +0.000 A 
ATOM      6  C   UNL     1       6.907   5.694  18.042  0.00  0.00    +0.000 A 
ATOM      7 CL   UNL     1       8.081   5.461  19.286  0.00  0.00    +0.000 Cl
ATOM      8  C   UNL     1       6.993   4.973  16.844  0.00  0.00    +0.000 A 
BRANCH   2  11
ATOM      9  C   UNL     1       7.096   4.720  13.627  0.00  0.00    +0.000 C 
ATOM     10  O   UNL     1       7.962   5.589  13.670  0.00  0.00    +0.000 OA
ATOM     11  N   UNL     1       6.179   4.446  14.625  0.00  0.00    +0.000 N 
ATOM     12  H   UNL     1       5.633   3.592  14.579  0.00  0.00    +0.000 HD
BRANCH   9  14
ATOM     13  C   UNL     1       5.528   3.302  12.303  0.00  0.00    +0.000 C 
ATOM     14  C   UNL     1       6.955   3.825  12.411  0.00  0.00    +0.000 C 
ENDBRANCH   9  14
ENDBRANCH   2  11
BRANCH   8  15
ATOM     15  O   UNL     1       8.007   4.067  16.631  0.00  0.00    +0.000 OA
ATOM     16  H   UNL     1       8.794   4.585  16.376  0.00  0.00    +0.000 HD
ENDBRANCH   8  15
ENDBRANCH   1   4
BRANCH   1  17
ATOM     17  N   UNL     1       2.469   6.901  17.741  0.00  0.00    +0.000 N 
ATOM     18  H   UNL     1       2.092   6.454  16.890  0.00  0.00    +0.000 HD
BRANCH  17  19
ATOM     19  C   UNL     1       2.335   6.170  18.901  0.00  0.00    +0.000 A 
ATOM     20  C   UNL     1       2.516   4.820  19.183  0.00  0.00    +0.000 A 
ATOM     21  C   UNL     1       2.228   4.658  20.553  0.00  0.00    +0.000 A 
ATOM     22  C   UNL     1       2.199   3.414  21.364  0.00  0.00    +0.000 C 
ATOM     23  N   UNL     1       1.929   5.816  21.138  0.00  0.00    +0.000 NA
ATOM     24  N   UNL     1       1.936   6.741  20.129  0.00  0.00    +0.000 N 
ATOM     25  C   UNL     1       1.485   8.078  20.397  0.00  0.00    +0.000 A 
ATOM     26  C   UNL     1       1.111   8.396  21.708  0.00  0.00    +0.000 A 
ATOM     27  C   UNL     1       0.588   9.656  21.980  0.00  0.00    +0.000 A 
ATOM     28  C   UNL     1       0.455  10.568  20.943  0.00  0.00    +0.000 A 
ATOM     29  C   UNL     1       0.861  10.184  19.673  0.00  0.00    +0.000 A 
ATOM     30  N   UNL     1       1.375   8.967  19.372  0.00  0.00    +0.000 NA
BRANCH  20  31
ATOM     31  C   UNL     1       2.895   3.775  18.296  0.00  0.00    +0.000 C 
ATOM     32  N   UNL     1       3.195   2.907  17.590  0.00  0.00    +0.000 NA
ENDBRANCH  20  31
ENDBRANCH  17  19
ENDBRANCH   1  17
TORSDOF 7
ENDMDL
MODEL 2
REMARK VINA RESULT:      -8.3      0.862      3.734
REMARK  Name = 
REMARK  9 active torsions:
REMARK  status: ('A' for Active; 'I' for Inactive)
REMARK    1  A    between atoms: C_1  and  C_2
REMARK    2  A    between atoms: C_2  and  C_3
REMARK    3  A    between atoms: N_5  and  C_6
REMARK    4  A    between atoms: C_8  and  C_9
REMARK    5  A    between atoms: C_9  and  N_10
REMARK    6  A    between atoms: N_10  and  C_11
REMARK    7  A    between atoms: C_12  and  C_13
REMARK    8  A    between atoms: C_15  and  C_16
REMARK    9  A    between atoms: C_28  and  O_29
REMARK                            x       y       z     vdW  Elec       q    Type
REMARK                         _______ _______ _______ _____ _____    ______ ____
ROOT
ATOM      1  C   UNL     1       3.746   7.763  17.301  0.00  0.00    +0.000 C 
ENDROOT
BRANCH   1   4
ATOM      2  C   UNL     1       6.065   5.126  15.816  0.00  0.00    +0.000 A 
ATOM      3  C   UNL     1       5.032   6.054  15.984  0.00  0.00    +0.000 A 
ATOM      4  C   UNL     1       4.926   6.836  17.141  0.00  0.00    +0.000 A 
ATOM      5  C   UNL     1       5.889   6.692  18.148  0.00  0.00    +0.000 A 
ATOM      6  C   UNL     1       6.913   5.751  18.003  0.00  0.00    +0.000 A 
ATOM      7 CL   UNL     1       8.067   5.561  19.273  0.00  0.00    +0.000 Cl
ATOM      8  C   UNL     1       6.994   4.963  16.848  0.00  0.00    +0.000 A 
BRANCH   2  11
ATOM      9  C   UNL     1       6.984   4.640  13.560  0.00  0.00    +0.000 C 
ATOM     10  O   UNL     1       7.730   5.611  13.468  0.00  0.00    +0.000 OA
ATOM     11  N   UNL     1       6.192   4.333  14.652  0.00  0.00    +0.000 N 
ATOM     12  H   UNL     1       5.760   3.417  14.711  0.00  0.00    +0.000 HD
BRANCH   9  14
ATOM     13  C   UNL     1       5.401   3.285  12.189  0.00  0.00    +0.000 C 
ATOM     14  C   UNL     1       6.863   3.644  12.423  0.00  0.00    +0.000 C 
ENDBRANCH   9  14
ENDBRANCH   2  11
BRANCH   8  15
ATOM     15  O   UNL     1       7.989   4.023  16.698  0.00  0.00    +0.000 OA
ATOM     16  H   UNL     1       7.571   3.237  16.300  0.00  0.00    +0.000 HD
ENDBRANCH   8  15
ENDBRANCH   1   4
BRANCH   1  17
ATOM     17  N   UNL     1       2.564   7.074  17.807  0.00  0.00    +0.000 N 
ATOM     18  H   UNL     1       2.541   6.075  17.548  0.00  0.00    +0.000 HD
BRANCH  17  19
ATOM     19  C   UNL     1       2.065   7.372  19.056  0.00  0.00    +0.000 A 
ATOM     20  C   UNL     1       1.601   8.554  19.621  0.00  0.00    +0.000 A 
ATOM     21  C   UNL     1       1.218   8.241  20.941  0.00  0.00    +0.000 A 
ATOM     22  C   UNL     1       0.715   9.142  22.009  0.00  0.00    +0.000 C 
ATOM     23  N   UNL     1       1.371   6.946  21.208  0.00  0.00    +0.000 NA
ATOM     24  N   UNL     1       1.941   6.412  20.085  0.00  0.00    +0.000 N 
ATOM     25  C   UNL     1       2.396   5.049  20.106  0.00  0.00    +0.000 A 
ATOM     26  C   UNL     1       2.179   4.301  21.269  0.00  0.00    +0.000 A 
ATOM     27  C   UNL     1       2.684   3.008  21.350  0.00  0.00    +0.000 A 
ATOM     28  C   UNL     1       3.388   2.491  20.273  0.00  0.00    +0.000 A 
ATOM     29  C   UNL     1       3.549   3.288  19.149  0.00  0.00    +0.000 A 
ATOM     30  N   UNL     1       3.070   4.551  19.034  0.00  0.00    +0.000 NA
BRANCH  20  31
ATOM     31  C   UNL     1       1.527   9.846  19.030  0.00  0.00    +0.000 C 
ATOM     32  N   UNL     1       1.474  10.909  18.572  0.00  0.00    +0.000 NA
ENDBRANCH  20  31
ENDBRANCH  17  19
ENDBRANCH   1  17
TORSDOF 7
ENDMDL
MODEL 3
REMARK VINA RESULT:      -7.8      3.235      6.184
REMARK  Name = 
REMARK  9 active torsions:
REMARK  status: ('A' for Active; 'I' for Inactive)
REMARK    1  A    between atoms: C_1  and  C_2
REMARK    2  A    between atoms: C_2  and  C_3
REMARK    3  A    between atoms: N_5  and  C_6
REMARK    4  A    between atoms: C_8  and  C_9
REMARK    5  A    between atoms: C_9  and  N_10
REMARK    6  A    between atoms: N_10  and  C_11
REMARK    7  A    between atoms: C_12  and  C_13
REMARK    8  A    between atoms: C_15  and  C_16
REMARK    9  A    between atoms: C_28  and  O_29
REMARK                            x       y       z     vdW  Elec       q    Type
REMARK                         _______ _______ _______ _____ _____    ______ ____
ROOT
ATOM      1  C   UNL     1       1.720   9.366  18.218  0.00  0.00    +0.000 C 
ENDROOT
BRANCH   1   4
ATOM      2  C   UNL     1       2.771   5.763  18.895  0.00  0.00    +0.000 A 
ATOM      3  C   UNL     1       2.057   6.966  18.881  0.00  0.00    +0.000 A 
ATOM      4  C   UNL     1       2.487   8.069  18.132  0.00  0.00    +0.000 A 
ATOM      5  C   UNL     1       3.655   7.955  17.367  0.00  0.00    +0.000 A 
ATOM      6  C   UNL     1       4.391   6.767  17.391  0.00  0.00    +0.000 A 
ATOM      7 CL   UNL     1       5.849   6.660  16.472  0.00  0.00    +0.000 Cl
ATOM      8  C   UNL     1       3.958   5.680  18.160  0.00  0.00    +0.000 A 
BRANCH   2  11
ATOM      9  C   UNL     1       1.529   3.629  19.165  0.00  0.00    +0.000 C 
ATOM     10  O   UNL     1       1.101   3.536  18.018  0.00  0.00    +0.000 OA
ATOM     11  N   UNL     1       2.349   4.637  19.639  0.00  0.00    +0.000 N 
ATOM     12  H   UNL     1       2.804   4.527  20.540  0.00  0.00    +0.000 HD
BRANCH   9  14
ATOM     13  C   UNL     1       1.799   2.960  21.552  0.00  0.00    +0.000 C 
ATOM     14  C   UNL     1       1.179   2.589  20.211  0.00  0.00    +0.000 C 
ENDBRANCH   9  14
ENDBRANCH   2  11
BRANCH   8  15
ATOM     15  O   UNL     1       4.680   4.508  18.204  0.00  0.00    +0.000 OA
ATOM     16  H   UNL     1       4.134   3.863  18.691  0.00  0.00    +0.000 HD
ENDBRANCH   8  15
ENDBRANCH   1   4
BRANCH   1  17
ATOM     17  N   UNL     1       0.330   9.163  18.612  0.00  0.00    +0.000 N 
ATOM     18  H   UNL     1       0.098   8.169  18.765  0.00  0.00    +0.000 HD
BRANCH  17  19
ATOM     19  C   UNL     1      -0.289  10.052  19.463  0.00  0.00    +0.000 A 
ATOM     20  C   UNL     1      -0.049  10.402  20.787  0.00  0.00    +0.000 A 
ATOM     21  C   UNL     1      -1.017  11.371  21.123  0.00  0.00    +0.000 A 
ATOM     22  C   UNL     1      -1.261  12.038  22.428  0.00  0.00    +0.000 C 
ATOM     23  N   UNL     1      -1.799  11.671  20.089  0.00  0.00    +0.000 NA
ATOM     24  N   UNL     1      -1.403  10.832  19.083  0.00  0.00    +0.000 N 
ATOM     25  C   UNL     1      -2.166  10.782  17.867  0.00  0.00    +0.000 A 
ATOM     26  C   UNL     1      -3.259  11.648  17.739  0.00  0.00    +0.000 A 
ATOM     27  C   UNL     1      -4.067  11.562  16.611  0.00  0.00    +0.000 A 
ATOM     28  C   UNL     1      -3.766  10.621  15.637  0.00  0.00    +0.000 A 
ATOM     29  C   UNL     1      -2.658   9.808  15.828  0.00  0.00    +0.000 A 
ATOM     30  N   UNL     1      -1.848   9.864  16.913  0.00  0.00    +0.000 NA
BRANCH  20  31
ATOM     31  C   UNL     1       0.946   9.897  21.668  0.00  0.00    +0.000 C 
ATOM     32  N   UNL     1       1.773   9.485  22.367  0.00  0.00    +0.000 NA
ENDBRANCH  20  31
ENDBRANCH  17  19
ENDBRANCH   1  17
TORSDOF 7
ENDMDL
MODEL 4
REMARK VINA RESULT:      -7.7      3.211      5.378
REMARK  Name = 
REMARK  9 active torsions:
REMARK  status: ('A' for Active; 'I' for Inactive)
REMARK    1  A    between atoms: C_1  and  C_2
REMARK    2  A    between atoms: C_2  and  C_3
REMARK    3  A    between atoms: N_5  and  C_6
REMARK    4  A    between atoms: C_8  and  C_9
REMARK    5  A    between atoms: C_9  and  N_10
REMARK    6  A    between atoms: N_10  and  C_11
REMARK    7  A    between atoms: C_12  and  C_13
REMARK    8  A    between atoms: C_15  and  C_16
REMARK    9  A    between atoms: C_28  and  O_29
REMARK                            x       y       z     vdW  Elec       q    Type
REMARK                         _______ _______ _______ _____ _____    ______ ____
ROOT
ATOM      1  C   UNL     1       1.790   9.253  18.449  0.00  0.00    +0.000 C 
ENDROOT
BRANCH   1   4
ATOM      2  C   UNL     1       3.859   6.131  17.733  0.00  0.00    +0.000 A 
ATOM      3  C   UNL     1       3.304   7.412  17.655  0.00  0.00    +0.000 A 
ATOM      4  C   UNL     1       2.420   7.893  18.628  0.00  0.00    +0.000 A 
ATOM      5  C   UNL     1       2.095   7.071  19.715  0.00  0.00    +0.000 A 
ATOM      6  C   UNL     1       2.623   5.779  19.793  0.00  0.00    +0.000 A 
ATOM      7 CL   UNL     1       2.180   4.767  21.120  0.00  0.00    +0.000 Cl
ATOM      8  C   UNL     1       3.492   5.307  18.802  0.00  0.00    +0.000 A 
BRANCH   2  11
ATOM      9  C   UNL     1       6.107   5.939  16.694  0.00  0.00    +0.000 C 
ATOM     10  O   UNL     1       6.724   6.638  17.492  0.00  0.00    +0.000 OA
ATOM     11  N   UNL     1       4.760   5.631  16.764  0.00  0.00    +0.000 N 
ATOM     12  H   UNL     1       4.385   4.896  16.173  0.00  0.00    +0.000 HD
BRANCH   9  14
ATOM     13  C   UNL     1       6.100   4.038  15.079  0.00  0.00    +0.000 C 
ATOM     14  C   UNL     1       6.809   5.318  15.502  0.00  0.00    +0.000 C 
ENDBRANCH   9  14
ENDBRANCH   2  11
BRANCH   8  15
ATOM     15  O   UNL     1       4.010   4.032  18.860  0.00  0.00    +0.000 OA
ATOM     16  H   UNL     1       4.860   4.055  18.381  0.00  0.00    +0.000 HD
ENDBRANCH   8  15
ENDBRANCH   1   4
BRANCH   1  17
ATOM     17  N   UNL     1       0.341   9.219  18.616  0.00  0.00    +0.000 N 
ATOM     18  H   UNL     1      -0.041   8.260  18.606  0.00  0.00    +0.000 HD
BRANCH  17  19
ATOM     19  C   UNL     1      -0.281  10.094  19.479  0.00  0.00    +0.000 A 
ATOM     20  C   UNL     1      -0.030  10.440  20.802  0.00  0.00    +0.000 A 
ATOM     21  C   UNL     1      -1.007  11.393  21.156  0.00  0.00    +0.000 A 
ATOM     22  C   UNL     1      -1.245  12.050  22.467  0.00  0.00    +0.000 C 
ATOM     23  N   UNL     1      -1.807  11.688  20.133  0.00  0.00    +0.000 NA
ATOM     24  N   UNL     1      -1.411  10.860  19.118  0.00  0.00    +0.000 N 
ATOM     25  C   UNL     1      -2.188  10.806  17.911  0.00  0.00    +0.000 A 
ATOM     26  C   UNL     1      -3.294  11.656  17.802  0.00  0.00    +0.000 A 
ATOM     27  C   UNL     1      -4.115  11.564  16.682  0.00  0.00    +0.000 A 
ATOM     28  C   UNL     1      -3.813  10.633  15.700  0.00  0.00    +0.000 A 
ATOM     29  C   UNL     1      -2.691   9.836  15.872  0.00  0.00    +0.000 A 
ATOM     30  N   UNL     1      -1.868   9.898  16.948  0.00  0.00    +0.000 NA
BRANCH  20  31
ATOM     31  C   UNL     1       0.984   9.946  21.669  0.00  0.00    +0.000 C 
ATOM     32  N   UNL     1       1.791   9.528  22.386  0.00  0.00    +0.000 NA
ENDBRANCH  20  31
ENDBRANCH  17  19
ENDBRANCH   1  17
TORSDOF 7
ENDMDL
MODEL 5
REMARK VINA RESULT:      -7.7      4.248      7.647
REMARK  Name = 
REMARK  9 active torsions:
REMARK  status: ('A' for Active; 'I' for Inactive)
REMARK    1  A    between atoms: C_1  and  C_2
REMARK    2  A    between atoms: C_2  and  C_3
REMARK    3  A    between atoms: N_5  and  C_6
REMARK    4  A    between atoms: C_8  and  C_9
REMARK    5  A    between atoms: C_9  and  N_10
REMARK    6  A    between atoms: N_10  and  C_11
REMARK    7  A    between atoms: C_12  and  C_13
REMARK    8  A    between atoms: C_15  and  C_16
REMARK    9  A    between atoms: C_28  and  O_29
REMARK                            x       y       z     vdW  Elec       q    Type
REMARK                         _______ _______ _______ _____ _____    ______ ____
ROOT
ATOM      1  C   UNL     1       3.026   7.737  17.873  0.00  0.00    +0.000 C 
ENDROOT
BRANCH   1   4
ATOM      2  C   UNL     1       0.059  10.035  18.551  0.00  0.00    +0.000 A 
ATOM      3  C   UNL     1       1.045   9.282  17.904  0.00  0.00    +0.000 A 
ATOM      4  C   UNL     1       1.932   8.464  18.616  0.00  0.00    +0.000 A 
ATOM      5  C   UNL     1       1.816   8.390  20.010  0.00  0.00    +0.000 A 
ATOM      6  C   UNL     1       0.851   9.156  20.671  0.00  0.00    +0.000 A 
ATOM      7 CL   UNL     1       0.751   9.081  22.393  0.00  0.00    +0.000 Cl
ATOM      8  C   UNL     1      -0.016   9.983  19.946  0.00  0.00    +0.000 A 
BRANCH   2  11
ATOM      9  C   UNL     1      -2.109  10.477  17.422  0.00  0.00    +0.000 C 
ATOM     10  O   UNL     1      -2.639   9.392  17.641  0.00  0.00    +0.000 OA
ATOM     11  N   UNL     1      -0.850  10.860  17.849  0.00  0.00    +0.000 N 
ATOM     12  H   UNL     1      -0.578  11.835  17.785  0.00  0.00    +0.000 HD
BRANCH   9  14
ATOM     13  C   UNL     1      -3.682  10.908  15.535  0.00  0.00    +0.000 C 
ATOM     14  C   UNL     1      -2.830  11.547  16.625  0.00  0.00    +0.000 C 
ENDBRANCH   9  14
ENDBRANCH   2  11
BRANCH   8  15
ATOM     15  O   UNL     1      -0.962  10.753  20.585  0.00  0.00    +0.000 OA
ATOM     16  H   UNL     1      -0.943  10.494  21.525  0.00  0.00    +0.000 HD
ENDBRANCH   8  15
ENDBRANCH   1   4
BRANCH   1  17
ATOM     17  N   UNL     1       3.732   6.783  18.721  0.00  0.00    +0.000 N 
ATOM     18  H   UNL     1       3.147   6.424  19.493  0.00  0.00    +0.000 HD
BRANCH  17  19
ATOM     19  C   UNL     1       4.604   5.872  18.168  0.00  0.00    +0.000 A 
ATOM     20  C   UNL     1       5.848   6.016  17.564  0.00  0.00    +0.000 A 
ATOM     21  C   UNL     1       6.261   4.720  17.190  0.00  0.00    +0.000 A 
ATOM     22  C   UNL     1       7.480   4.301  16.453  0.00  0.00    +0.000 C 
ATOM     23  N   UNL     1       5.381   3.792  17.561  0.00  0.00    +0.000 NA
ATOM     24  N   UNL     1       4.337   4.486  18.110  0.00  0.00    +0.000 N 
ATOM     25  C   UNL     1       3.134   3.785  18.463  0.00  0.00    +0.000 A 
ATOM     26  C   UNL     1       3.105   2.397  18.284  0.00  0.00    +0.000 A 
ATOM     27  C   UNL     1       1.927   1.703  18.535  0.00  0.00    +0.000 A 
ATOM     28  C   UNL     1       0.809   2.406  18.961  0.00  0.00    +0.000 A 
ATOM     29  C   UNL     1       0.919   3.778  19.129  0.00  0.00    +0.000 A 
ATOM     30  N   UNL     1       2.051   4.487  18.896  0.00  0.00    +0.000 NA
BRANCH  20  31
ATOM     31  C   UNL     1       6.586   7.209  17.332  0.00  0.00    +0.000 C 
ATOM     32  N   UNL     1       7.198   8.179  17.167  0.00  0.00    +0.000 NA
ENDBRANCH  20  31
ENDBRANCH  17  19
ENDBRANCH   1  17
TORSDOF 7
ENDMDL
MODEL 6
REMARK VINA RESULT:      -7.6      4.361      7.478
REMARK  Name = 
REMARK  9 active torsions:
REMARK  status: ('A' for Active; 'I' for Inactive)
REMARK    1  A    between atoms: C_1  and  C_2
REMARK    2  A    between atoms: C_2  and  C_3
REMARK    3  A    between atoms: N_5  and  C_6
REMARK    4  A    between atoms: C_8  and  C_9
REMARK    5  A    between atoms: C_9  and  N_10
REMARK    6  A    between atoms: N_10  and  C_11
REMARK    7  A    between atoms: C_12  and  C_13
REMARK    8  A    between atoms: C_15  and  C_16
REMARK    9  A    between atoms: C_28  and  O_29
REMARK                            x       y       z     vdW  Elec       q    Type
REMARK                         _______ _______ _______ _____ _____    ______ ____
ROOT
ATOM      1  C   UNL     1       2.922   7.935  18.391  0.00  0.00    +0.000 C 
ENDROOT
BRANCH   1   4
ATOM      2  C   UNL     1      -0.245  10.054  18.231  0.00  0.00    +0.000 A 
ATOM      3  C   UNL     1       0.876   9.298  17.872  0.00  0.00    +0.000 A 
ATOM      4  C   UNL     1       1.680   8.671  18.832  0.00  0.00    +0.000 A 
ATOM      5  C   UNL     1       1.341   8.794  20.186  0.00  0.00    +0.000 A 
ATOM      6  C   UNL     1       0.238   9.566  20.560  0.00  0.00    +0.000 A 
ATOM      7 CL   UNL     1      -0.140   9.738  22.236  0.00  0.00    +0.000 Cl
ATOM      8  C   UNL     1      -0.545  10.203  19.589  0.00  0.00    +0.000 A 
BRANCH   2  11
ATOM      9  C   UNL     1      -2.358  10.297  16.949  0.00  0.00    +0.000 C 
ATOM     10  O   UNL     1      -2.984   9.384  17.480  0.00  0.00    +0.000 OA
ATOM     11  N   UNL     1      -1.072  10.688  17.276  0.00  0.00    +0.000 N 
ATOM     12  H   UNL     1      -0.713  11.568  16.918  0.00  0.00    +0.000 HD
BRANCH   9  14
ATOM     13  C   UNL     1      -3.321  10.222  14.650  0.00  0.00    +0.000 C 
ATOM     14  C   UNL     1      -2.976  11.117  15.833  0.00  0.00    +0.000 C 
ENDBRANCH   9  14
ENDBRANCH   2  11
BRANCH   8  15
ATOM     15  O   UNL     1      -1.626  10.977  19.944  0.00  0.00    +0.000 OA
ATOM     16  H   UNL     1      -2.005  11.324  19.114  0.00  0.00    +0.000 HD
ENDBRANCH   8  15
ENDBRANCH   1   4
BRANCH   1  17
ATOM     17  N   UNL     1       2.641   6.558  18.001  0.00  0.00    +0.000 N 
ATOM     18  H   UNL     1       1.850   6.481  17.342  0.00  0.00    +0.000 HD
BRANCH  17  19
ATOM     19  C   UNL     1       3.672   5.669  17.793  0.00  0.00    +0.000 A 
ATOM     20  C   UNL     1       4.680   5.612  16.837  0.00  0.00    +0.000 A 
ATOM     21  C   UNL     1       5.444   4.465  17.132  0.00  0.00    +0.000 A 
ATOM     22  C   UNL     1       6.600   3.893  16.395  0.00  0.00    +0.000 C 
ATOM     23  N   UNL     1       5.005   3.843  18.224  0.00  0.00    +0.000 NA
ATOM     24  N   UNL     1       3.888   4.535  18.607  0.00  0.00    +0.000 N 
ATOM     25  C   UNL     1       3.069   4.018  19.668  0.00  0.00    +0.000 A 
ATOM     26  C   UNL     1       3.487   2.848  20.311  0.00  0.00    +0.000 A 
ATOM     27  C   UNL     1       2.672   2.277  21.283  0.00  0.00    +0.000 A 
ATOM     28  C   UNL     1       1.465   2.886  21.591  0.00  0.00    +0.000 A 
ATOM     29  C   UNL     1       1.126   4.052  20.921  0.00  0.00    +0.000 A 
ATOM     30  N   UNL     1       1.895   4.637  19.971  0.00  0.00    +0.000 NA
BRANCH  20  31
ATOM     31  C   UNL     1       4.919   6.499  15.751  0.00  0.00    +0.000 C 
ATOM     32  N   UNL     1       5.139   7.219  14.871  0.00  0.00    +0.000 NA
ENDBRANCH  20  31
ENDBRANCH  17  19
ENDBRANCH   1  17
TORSDOF 7
ENDMDL
MODEL 7
REMARK VINA RESULT:      -7.4      2.661      7.553
REMARK  Name = 
REMARK  9 active torsions:
REMARK  status: ('A' for Active; 'I' for Inactive)
REMARK    1  A    between atoms: C_1  and  C_2
REMARK    2  A    between atoms: C_2  and  C_3
REMARK    3  A    between atoms: N_5  and  C_6
REMARK    4  A    between atoms: C_8  and  C_9
REMARK    5  A    between atoms: C_9  and  N_10
REMARK    6  A    between atoms: N_10  and  C_11
REMARK    7  A    between atoms: C_12  and  C_13
REMARK    8  A    between atoms: C_15  and  C_16
REMARK    9  A    between atoms: C_28  and  O_29
REMARK                            x       y       z     vdW  Elec       q    Type
REMARK                         _______ _______ _______ _____ _____    ______ ____
ROOT
ATOM      1  C   UNL     1       4.196   3.264  16.398  0.00  0.00    +0.000 C 
ENDROOT
BRANCH   1   4
ATOM      2  C   UNL     1       2.367   5.726  18.664  0.00  0.00    +0.000 A 
ATOM      3  C   UNL     1       2.993   5.139  17.559  0.00  0.00    +0.000 A 
ATOM      4  C   UNL     1       3.457   3.818  17.591  0.00  0.00    +0.000 A 
ATOM      5  C   UNL     1       3.275   3.063  18.757  0.00  0.00    +0.000 A 
ATOM      6  C   UNL     1       2.673   3.645  19.877  0.00  0.00    +0.000 A 
ATOM      7 CL   UNL     1       2.493   2.710  21.317  0.00  0.00    +0.000 Cl
ATOM      8  C   UNL     1       2.231   4.973  19.835  0.00  0.00    +0.000 A 
BRANCH   2  11
ATOM      9  C   UNL     1       2.524   8.128  18.052  0.00  0.00    +0.000 C 
ATOM     10  O   UNL     1       3.564   8.070  17.403  0.00  0.00    +0.000 OA
ATOM     11  N   UNL     1       1.885   7.055  18.648  0.00  0.00    +0.000 N 
ATOM     12  H   UNL     1       0.939   7.170  18.996  0.00  0.00    +0.000 HD
BRANCH   9  14
ATOM     13  C   UNL     1       0.979   9.405  19.535  0.00  0.00    +0.000 C 
ATOM     14  C   UNL     1       1.812   9.450  18.261  0.00  0.00    +0.000 C 
ENDBRANCH   9  14
ENDBRANCH   2  11
BRANCH   8  15
ATOM     15  O   UNL     1       1.648   5.562  20.934  0.00  0.00    +0.000 OA
ATOM     16  H   UNL     1       0.960   4.946  21.248  0.00  0.00    +0.000 HD
ENDBRANCH   8  15
ENDBRANCH   1   4
BRANCH   1  17
ATOM     17  N   UNL     1       5.642   3.259  16.594  0.00  0.00    +0.000 N 
ATOM     18  H   UNL     1       6.111   2.484  16.099  0.00  0.00    +0.000 HD
BRANCH  17  19
ATOM     19  C   UNL     1       6.343   4.444  16.637  0.00  0.00    +0.000 A 
ATOM     20  C   UNL     1       6.604   5.340  17.667  0.00  0.00    +0.000 A 
ATOM     21  C   UNL     1       7.377   6.377  17.105  0.00  0.00    +0.000 A 
ATOM     22  C   UNL     1       7.877   7.623  17.741  0.00  0.00    +0.000 C 
ATOM     23  N   UNL     1       7.645   6.157  15.820  0.00  0.00    +0.000 NA
ATOM     24  N   UNL     1       6.972   5.008  15.505  0.00  0.00    +0.000 N 
ATOM     25  C   UNL     1       6.915   4.579  14.135  0.00  0.00    +0.000 A 
ATOM     26  C   UNL     1       7.609   5.331  13.181  0.00  0.00    +0.000 A 
ATOM     27  C   UNL     1       7.502   4.991  11.837  0.00  0.00    +0.000 A 
ATOM     28  C   UNL     1       6.711   3.910  11.477  0.00  0.00    +0.000 A 
ATOM     29  C   UNL     1       6.066   3.204  12.481  0.00  0.00    +0.000 A 
ATOM     30  N   UNL     1       6.148   3.505  13.800  0.00  0.00    +0.000 NA
BRANCH  20  31
ATOM     31  C   UNL     1       6.182   5.275  19.024  0.00  0.00    +0.000 C 
ATOM     32  N   UNL     1       5.844   5.197  20.129  0.00  0.00    +0.000 NA
ENDBRANCH  20  31
ENDBRANCH  17  19
ENDBRANCH   1  17
TORSDOF 7
ENDMDL
MODEL 8
REMARK VINA RESULT:      -7.4      4.023      7.627
REMARK  Name = 
REMARK  9 active torsions:
REMARK  status: ('A' for Active; 'I' for Inactive)
REMARK    1  A    between atoms: C_1  and  C_2
REMARK    2  A    between atoms: C_2  and  C_3
REMARK    3  A    between atoms: N_5  and  C_6
REMARK    4  A    between atoms: C_8  and  C_9
REMARK    5  A    between atoms: C_9  and  N_10
REMARK    6  A    between atoms: N_10  and  C_11
REMARK    7  A    between atoms: C_12  and  C_13
REMARK    8  A    between atoms: C_15  and  C_16
REMARK    9  A    between atoms: C_28  and  O_29
REMARK                            x       y       z     vdW  Elec       q    Type
REMARK                         _______ _______ _______ _____ _____    ______ ____
ROOT
ATOM      1  C   UNL     1       3.200   7.566  17.670  0.00  0.00    +0.000 C 
ENDROOT
BRANCH   1   4
ATOM      2  C   UNL     1       0.278   9.901  18.412  0.00  0.00    +0.000 A 
ATOM      3  C   UNL     1       1.243   9.139  17.745  0.00  0.00    +0.000 A 
ATOM      4  C   UNL     1       2.129   8.303  18.436  0.00  0.00    +0.000 A 
ATOM      5  C   UNL     1       2.034   8.220  19.831  0.00  0.00    +0.000 A 
ATOM      6  C   UNL     1       1.091   8.995  20.513  0.00  0.00    +0.000 A 
ATOM      7 CL   UNL     1       1.016   8.908  22.236  0.00  0.00    +0.000 Cl
ATOM      8  C   UNL     1       0.225   9.840  19.808  0.00  0.00    +0.000 A 
BRANCH   2  11
ATOM      9  C   UNL     1      -1.928  10.411  17.393  0.00  0.00    +0.000 C 
ATOM     10  O   UNL     1      -2.497   9.363  17.686  0.00  0.00    +0.000 OA
ATOM     11  N   UNL     1      -0.629  10.745  17.731  0.00  0.00    +0.000 N 
ATOM     12  H   UNL     1      -0.314  11.702  17.612  0.00  0.00    +0.000 HD
BRANCH   9  14
ATOM     13  C   UNL     1      -3.216  10.897  15.313  0.00  0.00    +0.000 C 
ATOM     14  C   UNL     1      -2.643  11.485  16.596  0.00  0.00    +0.000 C 
ENDBRANCH   9  14
ENDBRANCH   2  11
BRANCH   8  15
ATOM     15  O   UNL     1      -0.700  10.618  20.468  0.00  0.00    +0.000 OA
ATOM     16  H   UNL     1      -0.601  11.524  20.119  0.00  0.00    +0.000 HD
ENDBRANCH   8  15
ENDBRANCH   1   4
BRANCH   1  17
ATOM     17  N   UNL     1       3.766   6.460  18.435  0.00  0.00    +0.000 N 
ATOM     18  H   UNL     1       3.936   6.702  19.424  0.00  0.00    +0.000 HD
BRANCH  17  19
ATOM     19  C   UNL     1       3.345   5.168  18.206  0.00  0.00    +0.000 A 
ATOM     20  C   UNL     1       2.407   4.363  18.843  0.00  0.00    +0.000 A 
ATOM     21  C   UNL     1       2.411   3.130  18.159  0.00  0.00    +0.000 A 
ATOM     22  C   UNL     1       1.650   1.890  18.457  0.00  0.00    +0.000 C 
ATOM     23  N   UNL     1       3.249   3.139  17.124  0.00  0.00    +0.000 NA
ATOM     24  N   UNL     1       3.868   4.359  17.174  0.00  0.00    +0.000 N 
ATOM     25  C   UNL     1       4.965   4.628  16.287  0.00  0.00    +0.000 A 
ATOM     26  C   UNL     1       5.317   3.642  15.358  0.00  0.00    +0.000 A 
ATOM     27  C   UNL     1       6.428   3.839  14.544  0.00  0.00    +0.000 A 
ATOM     28  C   UNL     1       7.158   5.011  14.673  0.00  0.00    +0.000 A 
ATOM     29  C   UNL     1       6.739   5.948  15.606  0.00  0.00    +0.000 A 
ATOM     30  N   UNL     1       5.661   5.791  16.414  0.00  0.00    +0.000 NA
BRANCH  20  31
ATOM     31  C   UNL     1       1.597   4.672  19.971  0.00  0.00    +0.000 C 
ATOM     32  N   UNL     1       0.956   4.940  20.898  0.00  0.00    +0.000 NA
ENDBRANCH  20  31
ENDBRANCH  17  19
ENDBRANCH   1  17
TORSDOF 7
ENDMDL
MODEL 9
REMARK VINA RESULT:      -7.4      4.197      8.462
REMARK  Name = 
REMARK  9 active torsions:
REMARK  status: ('A' for Active; 'I' for Inactive)
REMARK    1  A    between atoms: C_1  and  C_2
REMARK    2  A    between atoms: C_2  and  C_3
REMARK    3  A    between atoms: N_5  and  C_6
REMARK    4  A    between atoms: C_8  and  C_9
REMARK    5  A    between atoms: C_9  and  N_10
REMARK    6  A    between atoms: N_10  and  C_11
REMARK    7  A    between atoms: C_12  and  C_13
REMARK    8  A    between atoms: C_15  and  C_16
REMARK    9  A    between atoms: C_28  and  O_29
REMARK                            x       y       z     vdW  Elec       q    Type
REMARK                         _______ _______ _______ _____ _____    ______ ____
ROOT
ATOM      1  C   UNL     1       1.700   8.738  17.698  0.00  0.00    +0.000 C 
ENDROOT
BRANCH   1   4
ATOM      2  C   UNL     1       0.238  11.511  19.870  0.00  0.00    +0.000 A 
ATOM      3  C   UNL     1       0.490  10.266  19.283  0.00  0.00    +0.000 A 
ATOM      4  C   UNL     1       1.526  10.084  18.358  0.00  0.00    +0.000 A 
ATOM      5  C   UNL     1       2.337  11.177  18.025  0.00  0.00    +0.000 A 
ATOM      6  C   UNL     1       2.082  12.431  18.585  0.00  0.00    +0.000 A 
ATOM      7 CL   UNL     1       3.069  13.773  18.132  0.00  0.00    +0.000 Cl
ATOM      8  C   UNL     1       1.030  12.601  19.495  0.00  0.00    +0.000 A 
BRANCH   2  11
ATOM      9  C   UNL     1      -0.720  11.414  22.159  0.00  0.00    +0.000 C 
ATOM     10  O   UNL     1       0.274  10.990  22.741  0.00  0.00    +0.000 OA
ATOM     11  N   UNL     1      -0.798  11.713  20.811  0.00  0.00    +0.000 N 
ATOM     12  H   UNL     1      -1.595  12.235  20.461  0.00  0.00    +0.000 HD
BRANCH   9  14
ATOM     13  C   UNL     1      -2.203  13.155  23.155  0.00  0.00    +0.000 C 
ATOM     14  C   UNL     1      -2.013  11.663  22.911  0.00  0.00    +0.000 C 
ENDBRANCH   9  14
ENDBRANCH   2  11
BRANCH   8  15
ATOM     15  O   UNL     1       0.758  13.834  20.044  0.00  0.00    +0.000 OA
ATOM     16  H   UNL     1       0.545  14.429  19.301  0.00  0.00    +0.000 HD
ENDBRANCH   8  15
ENDBRANCH   1   4
BRANCH   1  17
ATOM     17  N   UNL     1       2.889   8.038  18.172  0.00  0.00    +0.000 N 
ATOM     18  H   UNL     1       3.601   8.677  18.562  0.00  0.00    +0.000 HD
BRANCH  17  19
ATOM     19  C   UNL     1       2.774   6.822  18.807  0.00  0.00    +0.000 A 
ATOM     20  C   UNL     1       2.166   6.442  19.998  0.00  0.00    +0.000 A 
ATOM     21  C   UNL     1       2.379   5.054  20.129  0.00  0.00    +0.000 A 
ATOM     22  C   UNL     1       2.000   4.149  21.243  0.00  0.00    +0.000 C 
ATOM     23  N   UNL     1       3.034   4.552  19.084  0.00  0.00    +0.000 NA
ATOM     24  N   UNL     1       3.331   5.630  18.295  0.00  0.00    +0.000 N 
ATOM     25  C   UNL     1       4.190   5.453  17.156  0.00  0.00    +0.000 A 
ATOM     26  C   UNL     1       4.640   4.159  16.867  0.00  0.00    +0.000 A 
ATOM     27  C   UNL     1       5.541   3.970  15.824  0.00  0.00    +0.000 A 
ATOM     28  C   UNL     1       5.967   5.070  15.094  0.00  0.00    +0.000 A 
ATOM     29  C   UNL     1       5.464   6.318  15.431  0.00  0.00    +0.000 A 
ATOM     30  N   UNL     1       4.585   6.540  16.439  0.00  0.00    +0.000 NA
BRANCH  20  31
ATOM     31  C   UNL     1       1.473   7.256  20.936  0.00  0.00    +0.000 C 
ATOM     32  N   UNL     1       0.915   7.903  21.718  0.00  0.00    +0.000 NA
ENDBRANCH  20  31
ENDBRANCH  17  19
ENDBRANCH   1  17
TORSDOF 7
ENDMDL
