MODEL 1
REMARK VINA RESULT:      -6.7      0.000      0.000
REMARK  Name = 
REMARK  2 active torsions:
REMARK  status: ('A' for Active; 'I' for Inactive)
REMARK    1  A    between atoms: CA_11  and  C_12
REMARK    2  A    between atoms: C_12  and  O_13
REMARK                            x       y       z     vdW  Elec       q    Type
REMARK                         _______ _______ _______ _____ _____    ______ ____
ROOT
ATOM      1  N   UNL     1       0.917   2.134  18.533  0.00  0.00    +0.000 N 
ATOM      2  C   UNL     1       2.180   2.662  18.715  0.00  0.00    +0.000 A 
ATOM      3  N   UNL     1       3.039   1.951  19.451  0.00  0.00    +0.000 NA
ATOM      4  C   UNL     1       4.259   2.481  19.626  0.00  0.00    +0.000 A 
ATOM      5  N   UNL     1       5.180   1.695  20.336  0.00  0.00    +0.000 N 
ATOM      6  C   UNL     1       4.643   3.707  19.096  0.00  0.00    +0.000 A 
ATOM      7  C   UNL     1       3.646   4.377  18.389  0.00  0.00    +0.000 A 
ATOM      8  N   UNL     1       2.422   3.865  18.186  0.00  0.00    +0.000 NA
ATOM      9  N   UNL     1       3.860   5.676  17.937  0.00  0.00    +0.000 N 
ATOM     10  C   UNL     1       5.240   6.100  17.768  0.00  0.00    +0.000 C 
ATOM     11  CA  UNL     1       6.212   5.355  18.683  0.00  0.00    +0.000 C 
ATOM     12  N   UNL     1       5.944   4.238  19.298  0.00  0.00    +0.000 NA
ATOM     13  H   UNL     1       0.699   1.498  19.286  0.00  0.00    +0.000 HD
ATOM     14  H   UNL     1       0.260   2.878  18.345  0.00  0.00    +0.000 HD
ATOM     15  H   UNL     1       4.687   0.926  20.776  0.00  0.00    +0.000 HD
ATOM     16  H   UNL     1       5.729   2.271  20.967  0.00  0.00    +0.000 HD
ATOM     17  H   UNL     1       3.166   5.957  17.253  0.00  0.00    +0.000 HD
ENDROOT
BRANCH  11  18
ATOM     18  C   UNL     1       7.604   5.948  18.827  0.00  0.00    +0.000 C 
BRANCH  18  19
ATOM     19  O   UNL     1       8.235   5.471  19.999  0.00  0.00    +0.000 OA
ATOM     20  H   UNL     1       7.783   5.891  20.754  0.00  0.00    +0.000 HD
ENDBRANCH  18  19
ENDBRANCH  11  18
TORSDOF 2
ENDMDL
MODEL 2
REMARK VINA RESULT:      -6.7      2.562      5.019
REMARK  Name = 
REMARK  2 active torsions:
REMARK  status: ('A' for Active; 'I' for Inactive)
REMARK    1  A    between atoms: CA_11  and  C_12
REMARK    2  A    between atoms: C_12  and  O_13
REMARK                            x       y       z     vdW  Elec       q    Type
REMARK                         _______ _______ _______ _____ _____    ______ ____
ROOT
ATOM      1  N   UNL     1       8.074   8.831  17.239  0.00  0.00    +0.000 N 
ATOM      2  C   UNL     1       7.529   7.661  17.730  0.00  0.00    +0.000 A 
ATOM      3  N   UNL     1       8.198   7.036  18.703  0.00  0.00    +0.000 NA
ATOM      4  C   UNL     1       7.659   5.897  19.164  0.00  0.00    +0.000 A 
ATOM      5  N   UNL     1       8.326   5.286  20.237  0.00  0.00    +0.000 N 
ATOM      6  C   UNL     1       6.475   5.358  18.673  0.00  0.00    +0.000 A 
ATOM      7  C   UNL     1       5.896   6.073  17.627  0.00  0.00    +0.000 A 
ATOM      8  N   UNL     1       6.405   7.223  17.156  0.00  0.00    +0.000 NA
ATOM      9  N   UNL     1       4.791   5.559  16.954  0.00  0.00    +0.000 N 
ATOM     10  C   UNL     1       3.985   4.576  17.658  0.00  0.00    +0.000 C 
ATOM     11  CA  UNL     1       4.776   3.791  18.704  0.00  0.00    +0.000 C 
ATOM     12  N   UNL     1       5.931   4.152  19.186  0.00  0.00    +0.000 NA
ATOM     13  H   UNL     1       9.071   8.839  17.400  0.00  0.00    +0.000 HD
ATOM     14  H   UNL     1       7.753   8.987  16.293  0.00  0.00    +0.000 HD
ATOM     15  H   UNL     1       9.236   5.720  20.350  0.00  0.00    +0.000 HD
ATOM     16  H   UNL     1       8.343   4.278  20.118  0.00  0.00    +0.000 HD
ATOM     17  H   UNL     1       4.334   6.264  16.386  0.00  0.00    +0.000 HD
ENDROOT
BRANCH  11  18
ATOM     18  C   UNL     1       4.124   2.530  19.247  0.00  0.00    +0.000 C 
BRANCH  18  19
ATOM     19  O   UNL     1       5.049   1.769  19.998  0.00  0.00    +0.000 OA
ATOM     20  H   UNL     1       5.712   1.430  19.370  0.00  0.00    +0.000 HD
ENDBRANCH  18  19
ENDBRANCH  11  18
TORSDOF 2
ENDMDL
MODEL 3
REMARK VINA RESULT:      -6.7      1.151      1.151
REMARK  Name = 
REMARK  2 active torsions:
REMARK  status: ('A' for Active; 'I' for Inactive)
REMARK    1  A    between atoms: CA_11  and  C_12
REMARK    2  A    between atoms: C_12  and  O_13
REMARK                            x       y       z     vdW  Elec       q    Type
REMARK                         _______ _______ _______ _____ _____    ______ ____
ROOT
ATOM      1  N   UNL     1       0.537   3.172  20.111  0.00  0.00    +0.000 N 
ATOM      2  C   UNL     1       1.861   3.390  19.782  0.00  0.00    +0.000 A 
ATOM      3  N   UNL     1       2.751   2.487  20.206  0.00  0.00    +0.000 NA
ATOM      4  C   UNL     1       4.034   2.716  19.885  0.00  0.00    +0.000 A 
ATOM      5  N   UNL     1       4.954   1.727  20.267  0.00  0.00    +0.000 N 
ATOM      6  C   UNL     1       4.455   3.826  19.162  0.00  0.00    +0.000 A 
ATOM      7  C   UNL     1       3.443   4.720  18.819  0.00  0.00    +0.000 A 
ATOM      8  N   UNL     1       2.150   4.510  19.114  0.00  0.00    +0.000 NA
ATOM      9  N   UNL     1       3.756   5.939  18.225  0.00  0.00    +0.000 N 
ATOM     10  C   UNL     1       5.032   6.032  17.536  0.00  0.00    +0.000 C 
ATOM     11  CA  UNL     1       6.082   5.068  18.087  0.00  0.00    +0.000 C 
ATOM     12  N   UNL     1       5.820   4.036  18.838  0.00  0.00    +0.000 NA
ATOM     13  H   UNL     1       0.479   2.595  20.936  0.00  0.00    +0.000 HD
ATOM     14  H   UNL     1       0.040   4.052  20.120  0.00  0.00    +0.000 HD
ATOM     15  H   UNL     1       4.502   1.088  20.912  0.00  0.00    +0.000 HD
ATOM     16  H   UNL     1       5.809   2.150  20.612  0.00  0.00    +0.000 HD
ATOM     17  H   UNL     1       2.938   6.383  17.822  0.00  0.00    +0.000 HD
ENDROOT
BRANCH  11  18
ATOM     18  C   UNL     1       7.522   5.318  17.671  0.00  0.00    +0.000 C 
BRANCH  18  19
ATOM     19  O   UNL     1       8.255   4.109  17.643  0.00  0.00    +0.000 OA
ATOM     20  H   UNL     1       7.676   3.419  18.016  0.00  0.00    +0.000 HD
ENDBRANCH  18  19
ENDBRANCH  11  18
TORSDOF 2
ENDMDL
MODEL 4
REMARK VINA RESULT:      -6.3      2.579      4.996
REMARK  Name = 
REMARK  2 active torsions:
REMARK  status: ('A' for Active; 'I' for Inactive)
REMARK    1  A    between atoms: CA_11  and  C_12
REMARK    2  A    between atoms: C_12  and  O_13
REMARK                            x       y       z     vdW  Elec       q    Type
REMARK                         _______ _______ _______ _____ _____    ______ ____
ROOT
ATOM      1  N   UNL     1       7.335   6.102  16.304  0.00  0.00    +0.000 N 
ATOM      2  C   UNL     1       6.242   5.804  17.094  0.00  0.00    +0.000 A 
ATOM      3  N   UNL     1       5.264   6.713  17.151  0.00  0.00    +0.000 NA
ATOM      4  C   UNL     1       4.212   6.412  17.928  0.00  0.00    +0.000 A 
ATOM      5  N   UNL     1       3.155   7.336  17.925  0.00  0.00    +0.000 N 
ATOM      6  C   UNL     1       4.113   5.234  18.658  0.00  0.00    +0.000 A 
ATOM      7  C   UNL     1       5.215   4.388  18.556  0.00  0.00    +0.000 A 
ATOM      8  N   UNL     1       6.274   4.656  17.776  0.00  0.00    +0.000 NA
ATOM      9  N   UNL     1       5.301   3.249  19.352  0.00  0.00    +0.000 N 
ATOM     10  C   UNL     1       4.057   2.713  19.879  0.00  0.00    +0.000 C 
ATOM     11  CA  UNL     1       2.967   3.774  20.038  0.00  0.00    +0.000 C 
ATOM     12  N   UNL     1       2.984   4.946  19.468  0.00  0.00    +0.000 NA
ATOM     13  H   UNL     1       7.422   7.103  16.202  0.00  0.00    +0.000 HD
ATOM     14  H   UNL     1       8.144   5.595  16.637  0.00  0.00    +0.000 HD
ATOM     15  H   UNL     1       3.466   8.191  17.476  0.00  0.00    +0.000 HD
ATOM     16  H   UNL     1       2.782   7.454  18.861  0.00  0.00    +0.000 HD
ATOM     17  H   UNL     1       6.018   2.612  19.023  0.00  0.00    +0.000 HD
ENDROOT
BRANCH  11  18
ATOM     18  C   UNL     1       1.763   3.393  20.882  0.00  0.00    +0.000 C 
BRANCH  18  19
ATOM     19  O   UNL     1       2.170   2.830  22.114  0.00  0.00    +0.000 OA
ATOM     20  H   UNL     1       1.411   2.900  22.721  0.00  0.00    +0.000 HD
ENDBRANCH  18  19
ENDBRANCH  11  18
TORSDOF 2
ENDMDL
MODEL 5
REMARK VINA RESULT:      -6.2      2.742      4.540
REMARK  Name = 
REMARK  2 active torsions:
REMARK  status: ('A' for Active; 'I' for Inactive)
REMARK    1  A    between atoms: CA_11  and  C_12
REMARK    2  A    between atoms: C_12  and  O_13
REMARK                            x       y       z     vdW  Elec       q    Type
REMARK                         _______ _______ _______ _____ _____    ______ ____
ROOT
ATOM      1  N   UNL     1       7.511   5.202  14.661  0.00  0.00    +0.000 N 
ATOM      2  C   UNL     1       6.820   4.999  15.839  0.00  0.00    +0.000 A 
ATOM      3  N   UNL     1       7.485   5.205  16.980  0.00  0.00    +0.000 NA
ATOM      4  C   UNL     1       6.803   4.997  18.117  0.00  0.00    +0.000 A 
ATOM      5  N   UNL     1       7.483   5.288  19.309  0.00  0.00    +0.000 N 
ATOM      6  C   UNL     1       5.478   4.578  18.147  0.00  0.00    +0.000 A 
ATOM      7  C   UNL     1       4.908   4.348  16.897  0.00  0.00    +0.000 A 
ATOM      8  N   UNL     1       5.561   4.562  15.743  0.00  0.00    +0.000 NA
ATOM      9  N   UNL     1       3.638   3.786  16.798  0.00  0.00    +0.000 N 
ATOM     10  C   UNL     1       2.763   3.920  17.950  0.00  0.00    +0.000 C 
ATOM     11  CA  UNL     1       3.524   4.057  19.269  0.00  0.00    +0.000 C 
ATOM     12  N   UNL     1       4.785   4.369  19.368  0.00  0.00    +0.000 NA
ATOM     13  H   UNL     1       8.502   5.094  14.820  0.00  0.00    +0.000 HD
ATOM     14  H   UNL     1       7.094   4.651  13.923  0.00  0.00    +0.000 HD
ATOM     15  H   UNL     1       8.467   5.421  19.104  0.00  0.00    +0.000 HD
ATOM     16  H   UNL     1       7.283   4.586  20.014  0.00  0.00    +0.000 HD
ATOM     17  H   UNL     1       3.253   3.887  15.865  0.00  0.00    +0.000 HD
ENDROOT
BRANCH  11  18
ATOM     18  C   UNL     1       2.720   3.864  20.544  0.00  0.00    +0.000 C 
BRANCH  18  19
ATOM     19  O   UNL     1       2.497   5.103  21.189  0.00  0.00    +0.000 OA
ATOM     20  H   UNL     1       2.257   4.901  22.111  0.00  0.00    +0.000 HD
ENDBRANCH  18  19
ENDBRANCH  11  18
TORSDOF 2
ENDMDL
MODEL 6
REMARK VINA RESULT:      -6.2      3.057      5.157
REMARK  Name = 
REMARK  2 active torsions:
REMARK  status: ('A' for Active; 'I' for Inactive)
REMARK    1  A    between atoms: CA_11  and  C_12
REMARK    2  A    between atoms: C_12  and  O_13
REMARK                            x       y       z     vdW  Elec       q    Type
REMARK                         _______ _______ _______ _____ _____    ______ ____
ROOT
ATOM      1  N   UNL     1       7.856   7.880  17.221  0.00  0.00    +0.000 N 
ATOM      2  C   UNL     1       7.068   6.747  17.177  0.00  0.00    +0.000 A 
ATOM      3  N   UNL     1       7.134   6.000  16.071  0.00  0.00    +0.000 NA
ATOM      4  C   UNL     1       6.358   4.905  16.040  0.00  0.00    +0.000 A 
ATOM      5  N   UNL     1       6.488   4.085  14.908  0.00  0.00    +0.000 N 
ATOM      6  C   UNL     1       5.508   4.542  17.078  0.00  0.00    +0.000 A 
ATOM      7  C   UNL     1       5.490   5.424  18.156  0.00  0.00    +0.000 A 
ATOM      8  N   UNL     1       6.266   6.518  18.220  0.00  0.00    +0.000 NA
ATOM      9  N   UNL     1       4.574   5.249  19.189  0.00  0.00    +0.000 N 
ATOM     10  C   UNL     1       4.026   3.915  19.370  0.00  0.00    +0.000 C 
ATOM     11  CA  UNL     1       4.010   3.094  18.081  0.00  0.00    +0.000 C 
ATOM     12  N   UNL     1       4.702   3.376  17.014  0.00  0.00    +0.000 NA
ATOM     13  H   UNL     1       8.063   8.191  16.283  0.00  0.00    +0.000 HD
ATOM     14  H   UNL     1       7.450   8.552  17.857  0.00  0.00    +0.000 HD
ATOM     15  H   UNL     1       7.018   4.582  14.200  0.00  0.00    +0.000 HD
ATOM     16  H   UNL     1       5.580   3.747  14.607  0.00  0.00    +0.000 HD
ATOM     17  H   UNL     1       4.814   5.804  20.004  0.00  0.00    +0.000 HD
ENDROOT
BRANCH  11  18
ATOM     18  C   UNL     1       3.162   1.833  18.086  0.00  0.00    +0.000 C 
BRANCH  18  19
ATOM     19  O   UNL     1       3.958   0.693  18.340  0.00  0.00    +0.000 OA
ATOM     20  H   UNL     1       3.385  -0.085  18.213  0.00  0.00    +0.000 HD
ENDBRANCH  18  19
ENDBRANCH  11  18
TORSDOF 2
ENDMDL
MODEL 7
REMARK VINA RESULT:      -6.2      2.423      2.841
REMARK  Name = 
REMARK  2 active torsions:
REMARK  status: ('A' for Active; 'I' for Inactive)
REMARK    1  A    between atoms: CA_11  and  C_12
REMARK    2  A    between atoms: C_12  and  O_13
REMARK                            x       y       z     vdW  Elec       q    Type
REMARK                         _______ _______ _______ _____ _____    ______ ____
ROOT
ATOM      1  N   UNL     1       1.955   5.826  20.819  0.00  0.00    +0.000 N 
ATOM      2  C   UNL     1       2.887   5.418  19.886  0.00  0.00    +0.000 A 
ATOM      3  N   UNL     1       3.451   4.220  20.069  0.00  0.00    +0.000 NA
ATOM      4  C   UNL     1       4.359   3.840  19.158  0.00  0.00    +0.000 A 
ATOM      5  N   UNL     1       4.891   2.551  19.313  0.00  0.00    +0.000 N 
ATOM      6  C   UNL     1       4.731   4.628  18.074  0.00  0.00    +0.000 A 
ATOM      7  C   UNL     1       4.112   5.875  18.018  0.00  0.00    +0.000 A 
ATOM      8  N   UNL     1       3.188   6.275  18.906  0.00  0.00    +0.000 NA
ATOM      9  N   UNL     1       4.507   6.811  17.066  0.00  0.00    +0.000 N 
ATOM     10  C   UNL     1       5.170   6.306  15.875  0.00  0.00    +0.000 C 
ATOM     11  CA  UNL     1       5.899   4.983  16.110  0.00  0.00    +0.000 C 
ATOM     12  N   UNL     1       5.695   4.194  17.127  0.00  0.00    +0.000 NA
ATOM     13  H   UNL     1       2.117   5.353  21.696  0.00  0.00    +0.000 HD
ATOM     14  H   UNL     1       1.909   6.836  20.835  0.00  0.00    +0.000 HD
ATOM     15  H   UNL     1       4.634   2.196  20.228  0.00  0.00    +0.000 HD
ATOM     16  H   UNL     1       5.887   2.550  19.118  0.00  0.00    +0.000 HD
ATOM     17  H   UNL     1       3.838   7.567  16.981  0.00  0.00    +0.000 HD
ENDROOT
BRANCH  11  18
ATOM     18  C   UNL     1       6.888   4.550  15.041  0.00  0.00    +0.000 C 
BRANCH  18  19
ATOM     19  O   UNL     1       7.779   5.602  14.725  0.00  0.00    +0.000 OA
ATOM     20  H   UNL     1       7.239   6.334  14.377  0.00  0.00    +0.000 HD
ENDBRANCH  18  19
ENDBRANCH  11  18
TORSDOF 2
ENDMDL
MODEL 8
REMARK VINA RESULT:      -6.1      2.064      2.160
REMARK  Name = 
REMARK  2 active torsions:
REMARK  status: ('A' for Active; 'I' for Inactive)
REMARK    1  A    between atoms: CA_11  and  C_12
REMARK    2  A    between atoms: C_12  and  O_13
REMARK                            x       y       z     vdW  Elec       q    Type
REMARK                         _______ _______ _______ _____ _____    ______ ____
ROOT
ATOM      1  N   UNL     1       0.579   3.786  20.242  0.00  0.00    +0.000 N 
ATOM      2  C   UNL     1       1.691   3.707  19.426  0.00  0.00    +0.000 A 
ATOM      3  N   UNL     1       2.211   2.493  19.220  0.00  0.00    +0.000 NA
ATOM      4  C   UNL     1       3.295   2.433  18.431  0.00  0.00    +0.000 A 
ATOM      5  N   UNL     1       3.792   1.150  18.156  0.00  0.00    +0.000 N 
ATOM      6  C   UNL     1       3.882   3.553  17.851  0.00  0.00    +0.000 A 
ATOM      7  C   UNL     1       3.280   4.765  18.180  0.00  0.00    +0.000 A 
ATOM      8  N   UNL     1       2.186   4.854  18.954  0.00  0.00    +0.000 NA
ATOM      9  N   UNL     1       3.860   5.967  17.783  0.00  0.00    +0.000 N 
ATOM     10  C   UNL     1       4.764   5.922  16.645  0.00  0.00    +0.000 C 
ATOM     11  CA  UNL     1       5.436   4.560  16.467  0.00  0.00    +0.000 C 
ATOM     12  N   UNL     1       5.027   3.453  17.020  0.00  0.00    +0.000 NA
ATOM     13  H   UNL     1       0.555   2.994  20.868  0.00  0.00    +0.000 HD
ATOM     14  H   UNL     1       0.523   4.708  20.653  0.00  0.00    +0.000 HD
ATOM     15  H   UNL     1       3.349   0.484  18.781  0.00  0.00    +0.000 HD
ATOM     16  H   UNL     1       4.807   1.148  18.177  0.00  0.00    +0.000 HD
ATOM     17  H   UNL     1       3.219   6.746  17.879  0.00  0.00    +0.000 HD
ENDROOT
BRANCH  11  18
ATOM     18  C   UNL     1       6.632   4.508  15.532  0.00  0.00    +0.000 C 
BRANCH  18  19
ATOM     19  O   UNL     1       7.843   4.584  16.259  0.00  0.00    +0.000 OA
ATOM     20  H   UNL     1       8.160   5.502  16.184  0.00  0.00    +0.000 HD
ENDBRANCH  18  19
ENDBRANCH  11  18
TORSDOF 2
ENDMDL
MODEL 9
REMARK VINA RESULT:      -6.1      1.857      2.241
REMARK  Name = 
REMARK  2 active torsions:
REMARK  status: ('A' for Active; 'I' for Inactive)
REMARK    1  A    between atoms: CA_11  and  C_12
REMARK    2  A    between atoms: C_12  and  O_13
REMARK                            x       y       z     vdW  Elec       q    Type
REMARK                         _______ _______ _______ _____ _____    ______ ____
ROOT
ATOM      1  N   UNL     1       1.536   1.495  18.785  0.00  0.00    +0.000 N 
ATOM      2  C   UNL     1       2.430   2.546  18.732  0.00  0.00    +0.000 A 
ATOM      3  N   UNL     1       2.227   3.564  19.574  0.00  0.00    +0.000 NA
ATOM      4  C   UNL     1       3.100   4.580  19.506  0.00  0.00    +0.000 A 
ATOM      5  N   UNL     1       2.926   5.610  20.443  0.00  0.00    +0.000 N 
ATOM      6  C   UNL     1       4.165   4.615  18.612  0.00  0.00    +0.000 A 
ATOM      7  C   UNL     1       4.244   3.521  17.753  0.00  0.00    +0.000 A 
ATOM      8  N   UNL     1       3.393   2.484  17.808  0.00  0.00    +0.000 NA
ATOM      9  N   UNL     1       5.175   3.509  16.718  0.00  0.00    +0.000 N 
ATOM     10  C   UNL     1       6.338   4.368  16.863  0.00  0.00    +0.000 C 
ATOM     11  CA  UNL     1       6.077   5.587  17.747  0.00  0.00    +0.000 C 
ATOM     12  N   UNL     1       5.072   5.706  18.568  0.00  0.00    +0.000 NA
ATOM     13  H   UNL     1       0.654   1.813  19.160  0.00  0.00    +0.000 HD
ATOM     14  H   UNL     1       1.518   1.017  17.894  0.00  0.00    +0.000 HD
ATOM     15  H   UNL     1       2.024   5.498  20.893  0.00  0.00    +0.000 HD
ATOM     16  H   UNL     1       3.080   6.516  20.010  0.00  0.00    +0.000 HD
ATOM     17  H   UNL     1       5.286   2.582  16.322  0.00  0.00    +0.000 HD
ENDROOT
BRANCH  11  18
ATOM     18  C   UNL     1       7.104   6.704  17.690  0.00  0.00    +0.000 C 
BRANCH  18  19
ATOM     19  O   UNL     1       7.732   6.745  16.423  0.00  0.00    +0.000 OA
ATOM     20  H   UNL     1       8.113   7.636  16.325  0.00  0.00    +0.000 HD
ENDBRANCH  18  19
ENDBRANCH  11  18
TORSDOF 2
ENDMDL
