MODEL 1
REMARK VINA RESULT:      -6.9      0.000      0.000
REMARK  Name = 
REMARK  6 active torsions:
REMARK  status: ('A' for Active; 'I' for Inactive)
REMARK    1  A    between atoms: C_1  and  N_2
REMARK    2  A    between atoms: C_3  and  C_5
REMARK    3  A    between atoms: C_5  and  C_6
REMARK    4  A    between atoms: C_6  and  C_7
REMARK    5  A    between atoms: C_9  and  C_10
REMARK    6  A    between atoms: C_13  and  C_14
REMARK                            x       y       z     vdW  Elec       q    Type
REMARK                         _______ _______ _______ _____ _____    ______ ____
ROOT
ATOM      1  C   UNL     1       4.497   4.499  16.865  0.00  0.00    +0.000 A 
ATOM      2  N   UNL     1       4.326   5.739  17.249  0.00  0.00    +0.000 NA
ATOM      3  C   UNL     1       3.085   5.699  17.847  0.00  0.00    +0.000 A 
ATOM      4  N   UNL     1       2.499   4.490  17.802  0.00  0.00    +0.000 NA
ATOM      5  O   UNL     1       3.442   3.689  17.160  0.00  0.00    +0.000 OA
ENDROOT
BRANCH   3   6
ATOM      6  C   UNL     1       2.507   6.872  18.488  0.00  0.00    +0.000 A 
ATOM      7  C   UNL     1       2.217   6.844  19.860  0.00  0.00    +0.000 A 
ATOM      8  C   UNL     1       1.629   7.943  20.489  0.00  0.00    +0.000 A 
ATOM      9  C   UNL     1       1.316   9.090  19.755  0.00  0.00    +0.000 A 
ATOM     10  C   UNL     1       0.661  10.266  20.414  0.00  0.00    +0.000 C 
ATOM     11  C   UNL     1       1.609   9.127  18.386  0.00  0.00    +0.000 A 
ATOM     12  C   UNL     1       2.203   8.028  17.757  0.00  0.00    +0.000 A 
ENDBRANCH   3   6
BRANCH   1  13
ATOM     13  C   UNL     1       5.662   3.880  16.199  0.00  0.00    +0.000 C 
BRANCH  13  14
ATOM     14  C   UNL     1       6.677   4.926  15.755  0.00  0.00    +0.000 C 
BRANCH  14  17
ATOM     15  C   UNL     1       6.486   3.452  12.289  0.00  0.00    +0.000 C 
ATOM     16  N   UNL     1       6.297   3.748  13.686  0.00  0.00    +0.000 N 
ATOM     17  C   UNL     1       7.004   4.762  14.289  0.00  0.00    +0.000 C 
ATOM     18  O   UNL     1       7.821   5.461  13.698  0.00  0.00    +0.000 OA
ATOM     19  H   UNL     1       5.619   3.216  14.216  0.00  0.00    +0.000 HD
ENDBRANCH  14  17
ENDBRANCH  13  14
ENDBRANCH   1  13
TORSDOF 4
ENDMDL
MODEL 2
REMARK VINA RESULT:      -6.9      3.182      4.046
REMARK  Name = 
REMARK  6 active torsions:
REMARK  status: ('A' for Active; 'I' for Inactive)
REMARK    1  A    between atoms: C_1  and  N_2
REMARK    2  A    between atoms: C_3  and  C_5
REMARK    3  A    between atoms: C_5  and  C_6
REMARK    4  A    between atoms: C_6  and  C_7
REMARK    5  A    between atoms: C_9  and  C_10
REMARK    6  A    between atoms: C_13  and  C_14
REMARK                            x       y       z     vdW  Elec       q    Type
REMARK                         _______ _______ _______ _____ _____    ______ ____
ROOT
ATOM      1  C   UNL     1       6.314   4.408  15.762  0.00  0.00    +0.000 A 
ATOM      2  N   UNL     1       5.168   4.043  16.280  0.00  0.00    +0.000 NA
ATOM      3  C   UNL     1       5.426   4.076  17.633  0.00  0.00    +0.000 A 
ATOM      4  N   UNL     1       6.691   4.414  17.936  0.00  0.00    +0.000 NA
ATOM      5  O   UNL     1       7.279   4.647  16.694  0.00  0.00    +0.000 OA
ENDROOT
BRANCH   3   6
ATOM      6  C   UNL     1       4.390   3.796  18.616  0.00  0.00    +0.000 A 
ATOM      7  C   UNL     1       3.806   2.522  18.669  0.00  0.00    +0.000 A 
ATOM      8  C   UNL     1       2.785   2.240  19.578  0.00  0.00    +0.000 A 
ATOM      9  C   UNL     1       2.327   3.231  20.451  0.00  0.00    +0.000 A 
ATOM     10  C   UNL     1       1.214   2.947  21.415  0.00  0.00    +0.000 C 
ATOM     11  C   UNL     1       2.910   4.503  20.409  0.00  0.00    +0.000 A 
ATOM     12  C   UNL     1       3.935   4.783  19.500  0.00  0.00    +0.000 A 
ENDBRANCH   3   6
BRANCH   1  13
ATOM     13  C   UNL     1       6.675   4.615  14.344  0.00  0.00    +0.000 C 
BRANCH  13  14
ATOM     14  C   UNL     1       5.688   3.929  13.408  0.00  0.00    +0.000 C 
BRANCH  14  17
ATOM     15  C   UNL     1       6.527   1.240  10.900  0.00  0.00    +0.000 C 
ATOM     16  N   UNL     1       5.947   2.012  11.970  0.00  0.00    +0.000 N 
ATOM     17  C   UNL     1       6.414   3.274  12.256  0.00  0.00    +0.000 C 
ATOM     18  O   UNL     1       7.329   3.811  11.641  0.00  0.00    +0.000 OA
ATOM     19  H   UNL     1       5.175   1.624  12.496  0.00  0.00    +0.000 HD
ENDBRANCH  14  17
ENDBRANCH  13  14
ENDBRANCH   1  13
TORSDOF 4
ENDMDL
MODEL 3
REMARK VINA RESULT:      -6.8      2.758      4.103
REMARK  Name = 
REMARK  6 active torsions:
REMARK  status: ('A' for Active; 'I' for Inactive)
REMARK    1  A    between atoms: C_1  and  N_2
REMARK    2  A    between atoms: C_3  and  C_5
REMARK    3  A    between atoms: C_5  and  C_6
REMARK    4  A    between atoms: C_6  and  C_7
REMARK    5  A    between atoms: C_9  and  C_10
REMARK    6  A    between atoms: C_13  and  C_14
REMARK                            x       y       z     vdW  Elec       q    Type
REMARK                         _______ _______ _______ _____ _____    ______ ____
ROOT
ATOM      1  C   UNL     1       6.572   4.582  14.080  0.00  0.00    +0.000 A 
ATOM      2  N   UNL     1       5.519   4.215  14.765  0.00  0.00    +0.000 NA
ATOM      3  C   UNL     1       5.602   5.005  15.891  0.00  0.00    +0.000 A 
ATOM      4  N   UNL     1       6.684   5.803  15.915  0.00  0.00    +0.000 NA
ATOM      5  O   UNL     1       7.323   5.531  14.706  0.00  0.00    +0.000 OA
ENDROOT
BRANCH   3   6
ATOM      6  C   UNL     1       4.578   4.976  16.925  0.00  0.00    +0.000 A 
ATOM      7  C   UNL     1       4.462   6.048  17.822  0.00  0.00    +0.000 A 
ATOM      8  C   UNL     1       3.512   6.025  18.844  0.00  0.00    +0.000 A 
ATOM      9  C   UNL     1       2.659   4.927  18.989  0.00  0.00    +0.000 A 
ATOM     10  C   UNL     1       1.652   4.881  20.098  0.00  0.00    +0.000 C 
ATOM     11  C   UNL     1       2.764   3.857  18.092  0.00  0.00    +0.000 A 
ATOM     12  C   UNL     1       3.714   3.882  17.066  0.00  0.00    +0.000 A 
ENDBRANCH   3   6
BRANCH   1  13
ATOM     13  C   UNL     1       7.021   4.134  12.746  0.00  0.00    +0.000 C 
BRANCH  13  14
ATOM     14  C   UNL     1       5.959   3.294  12.048  0.00  0.00    +0.000 C 
BRANCH  14  17
ATOM     15  C   UNL     1       6.143  -0.379  11.212  0.00  0.00    +0.000 C 
ATOM     16  N   UNL     1       5.730   0.925  11.665  0.00  0.00    +0.000 N 
ATOM     17  C   UNL     1       6.558   2.013  11.515  0.00  0.00    +0.000 C 
ATOM     18  O   UNL     1       7.671   1.950  11.003  0.00  0.00    +0.000 OA
ATOM     19  H   UNL     1       4.812   1.037  12.075  0.00  0.00    +0.000 HD
ENDBRANCH  14  17
ENDBRANCH  13  14
ENDBRANCH   1  13
TORSDOF 4
ENDMDL
MODEL 4
REMARK VINA RESULT:      -6.8      0.519      1.242
REMARK  Name = 
REMARK  6 active torsions:
REMARK  status: ('A' for Active; 'I' for Inactive)
REMARK    1  A    between atoms: C_1  and  N_2
REMARK    2  A    between atoms: C_3  and  C_5
REMARK    3  A    between atoms: C_5  and  C_6
REMARK    4  A    between atoms: C_6  and  C_7
REMARK    5  A    between atoms: C_9  and  C_10
REMARK    6  A    between atoms: C_13  and  C_14
REMARK                            x       y       z     vdW  Elec       q    Type
REMARK                         _______ _______ _______ _____ _____    ______ ____
ROOT
ATOM      1  C   UNL     1       4.754   4.563  17.106  0.00  0.00    +0.000 A 
ATOM      2  N   UNL     1       4.272   5.781  17.101  0.00  0.00    +0.000 NA
ATOM      3  C   UNL     1       3.399   5.763  18.167  0.00  0.00    +0.000 A 
ATOM      4  N   UNL     1       3.319   4.571  18.782  0.00  0.00    +0.000 NA
ATOM      5  O   UNL     1       4.228   3.776  18.086  0.00  0.00    +0.000 OA
ENDROOT
BRANCH   3   6
ATOM      6  C   UNL     1       2.671   6.955  18.579  0.00  0.00    +0.000 A 
ATOM      7  C   UNL     1       2.471   8.000  17.665  0.00  0.00    +0.000 A 
ATOM      8  C   UNL     1       1.808   9.167  18.048  0.00  0.00    +0.000 A 
ATOM      9  C   UNL     1       1.335   9.311  19.355  0.00  0.00    +0.000 A 
ATOM     10  C   UNL     1       0.644  10.570  19.785  0.00  0.00    +0.000 C 
ATOM     11  C   UNL     1       1.525   8.269  20.270  0.00  0.00    +0.000 A 
ATOM     12  C   UNL     1       2.185   7.098  19.885  0.00  0.00    +0.000 A 
ENDBRANCH   3   6
BRANCH   1  13
ATOM     13  C   UNL     1       5.781   3.961  16.231  0.00  0.00    +0.000 C 
BRANCH  13  14
ATOM     14  C   UNL     1       6.722   5.015  15.662  0.00  0.00    +0.000 C 
BRANCH  14  17
ATOM     15  C   UNL     1       6.336   3.356  12.297  0.00  0.00    +0.000 C 
ATOM     16  N   UNL     1       6.242   3.715  13.689  0.00  0.00    +0.000 N 
ATOM     17  C   UNL     1       6.942   4.792  14.184  0.00  0.00    +0.000 C 
ATOM     18  O   UNL     1       7.674   5.495  13.496  0.00  0.00    +0.000 OA
ATOM     19  H   UNL     1       5.635   3.181  14.297  0.00  0.00    +0.000 HD
ENDBRANCH  14  17
ENDBRANCH  13  14
ENDBRANCH   1  13
TORSDOF 4
ENDMDL
MODEL 5
REMARK VINA RESULT:      -6.8      3.016      3.892
REMARK  Name = 
REMARK  6 active torsions:
REMARK  status: ('A' for Active; 'I' for Inactive)
REMARK    1  A    between atoms: C_1  and  N_2
REMARK    2  A    between atoms: C_3  and  C_5
REMARK    3  A    between atoms: C_5  and  C_6
REMARK    4  A    between atoms: C_6  and  C_7
REMARK    5  A    between atoms: C_9  and  C_10
REMARK    6  A    between atoms: C_13  and  C_14
REMARK                            x       y       z     vdW  Elec       q    Type
REMARK                         _______ _______ _______ _____ _____    ______ ____
ROOT
ATOM      1  C   UNL     1       6.061   4.522  15.136  0.00  0.00    +0.000 A 
ATOM      2  N   UNL     1       5.489   3.787  16.056  0.00  0.00    +0.000 NA
ATOM      3  C   UNL     1       4.707   4.702  16.728  0.00  0.00    +0.000 A 
ATOM      4  N   UNL     1       4.821   5.958  16.263  0.00  0.00    +0.000 NA
ATOM      5  O   UNL     1       5.711   5.837  15.198  0.00  0.00    +0.000 OA
ENDROOT
BRANCH   3   6
ATOM      6  C   UNL     1       3.827   4.302  17.817  0.00  0.00    +0.000 A 
ATOM      7  C   UNL     1       4.295   3.425  18.806  0.00  0.00    +0.000 A 
ATOM      8  C   UNL     1       3.458   2.999  19.838  0.00  0.00    +0.000 A 
ATOM      9  C   UNL     1       2.134   3.442  19.899  0.00  0.00    +0.000 A 
ATOM     10  C   UNL     1       1.219   2.971  20.990  0.00  0.00    +0.000 C 
ATOM     11  C   UNL     1       1.662   4.323  18.920  0.00  0.00    +0.000 A 
ATOM     12  C   UNL     1       2.502   4.753  17.887  0.00  0.00    +0.000 A 
ENDBRANCH   3   6
BRANCH   1  13
ATOM     13  C   UNL     1       6.986   4.116  14.058  0.00  0.00    +0.000 C 
BRANCH  13  14
ATOM     14  C   UNL     1       6.431   4.459  12.682  0.00  0.00    +0.000 C 
BRANCH  14  17
ATOM     15  C   UNL     1       6.148   1.003  11.198  0.00  0.00    +0.000 C 
ATOM     16  N   UNL     1       6.624   2.227  11.791  0.00  0.00    +0.000 N 
ATOM     17  C   UNL     1       5.754   3.257  12.065  0.00  0.00    +0.000 C 
ATOM     18  O   UNL     1       4.552   3.206  11.829  0.00  0.00    +0.000 OA
ATOM     19  H   UNL     1       7.605   2.314  12.026  0.00  0.00    +0.000 HD
ENDBRANCH  14  17
ENDBRANCH  13  14
ENDBRANCH   1  13
TORSDOF 4
ENDMDL
MODEL 6
REMARK VINA RESULT:      -6.8      2.880      3.886
REMARK  Name = 
REMARK  6 active torsions:
REMARK  status: ('A' for Active; 'I' for Inactive)
REMARK    1  A    between atoms: C_1  and  N_2
REMARK    2  A    between atoms: C_3  and  C_5
REMARK    3  A    between atoms: C_5  and  C_6
REMARK    4  A    between atoms: C_6  and  C_7
REMARK    5  A    between atoms: C_9  and  C_10
REMARK    6  A    between atoms: C_13  and  C_14
REMARK                            x       y       z     vdW  Elec       q    Type
REMARK                         _______ _______ _______ _____ _____    ______ ____
ROOT
ATOM      1  C   UNL     1       6.075   4.980  15.719  0.00  0.00    +0.000 A 
ATOM      2  N   UNL     1       5.290   4.175  16.389  0.00  0.00    +0.000 NA
ATOM      3  C   UNL     1       5.086   4.862  17.565  0.00  0.00    +0.000 A 
ATOM      4  N   UNL     1       5.749   6.030  17.633  0.00  0.00    +0.000 NA
ATOM      5  O   UNL     1       6.397   6.115  16.402  0.00  0.00    +0.000 OA
ENDROOT
BRANCH   3   6
ATOM      6  C   UNL     1       4.201   4.356  18.604  0.00  0.00    +0.000 A 
ATOM      7  C   UNL     1       3.464   5.253  19.391  0.00  0.00    +0.000 A 
ATOM      8  C   UNL     1       2.638   4.793  20.417  0.00  0.00    +0.000 A 
ATOM      9  C   UNL     1       2.535   3.424  20.677  0.00  0.00    +0.000 A 
ATOM     10  C   UNL     1       1.670   2.919  21.793  0.00  0.00    +0.000 C 
ATOM     11  C   UNL     1       3.262   2.522  19.892  0.00  0.00    +0.000 A 
ATOM     12  C   UNL     1       4.087   2.983  18.861  0.00  0.00    +0.000 A 
ENDBRANCH   3   6
BRANCH   1  13
ATOM     13  C   UNL     1       6.618   4.834  14.353  0.00  0.00    +0.000 C 
BRANCH  13  14
ATOM     14  C   UNL     1       5.700   3.999  13.470  0.00  0.00    +0.000 C 
BRANCH  14  17
ATOM     15  C   UNL     1       6.755   1.430  10.919  0.00  0.00    +0.000 C 
ATOM     16  N   UNL     1       6.123   2.129  12.009  0.00  0.00    +0.000 N 
ATOM     17  C   UNL     1       6.461   3.432  12.295  0.00  0.00    +0.000 C 
ATOM     18  O   UNL     1       7.299   4.066  11.663  0.00  0.00    +0.000 OA
ATOM     19  H   UNL     1       5.410   1.658  12.551  0.00  0.00    +0.000 HD
ENDBRANCH  14  17
ENDBRANCH  13  14
ENDBRANCH   1  13
TORSDOF 4
ENDMDL
MODEL 7
REMARK VINA RESULT:      -6.8      3.059      4.031
REMARK  Name = 
REMARK  6 active torsions:
REMARK  status: ('A' for Active; 'I' for Inactive)
REMARK    1  A    between atoms: C_1  and  N_2
REMARK    2  A    between atoms: C_3  and  C_5
REMARK    3  A    between atoms: C_5  and  C_6
REMARK    4  A    between atoms: C_6  and  C_7
REMARK    5  A    between atoms: C_9  and  C_10
REMARK    6  A    between atoms: C_13  and  C_14
REMARK                            x       y       z     vdW  Elec       q    Type
REMARK                         _______ _______ _______ _____ _____    ______ ____
ROOT
ATOM      1  C   UNL     1       6.226   4.183  15.371  0.00  0.00    +0.000 A 
ATOM      2  N   UNL     1       5.096   3.857  15.947  0.00  0.00    +0.000 NA
ATOM      3  C   UNL     1       5.356   4.103  17.278  0.00  0.00    +0.000 A 
ATOM      4  N   UNL     1       6.608   4.530  17.516  0.00  0.00    +0.000 NA
ATOM      5  O   UNL     1       7.183   4.595  16.248  0.00  0.00    +0.000 OA
ENDROOT
BRANCH   3   6
ATOM      6  C   UNL     1       4.334   3.936  18.301  0.00  0.00    +0.000 A 
ATOM      7  C   UNL     1       4.500   2.964  19.299  0.00  0.00    +0.000 A 
ATOM      8  C   UNL     1       3.516   2.760  20.269  0.00  0.00    +0.000 A 
ATOM      9  C   UNL     1       2.346   3.524  20.256  0.00  0.00    +0.000 A 
ATOM     10  C   UNL     1       1.272   3.296  21.277  0.00  0.00    +0.000 C 
ATOM     11  C   UNL     1       2.177   4.500  19.267  0.00  0.00    +0.000 A 
ATOM     12  C   UNL     1       3.164   4.707  18.298  0.00  0.00    +0.000 A 
ENDBRANCH   3   6
BRANCH   1  13
ATOM     13  C   UNL     1       6.574   4.187  13.936  0.00  0.00    +0.000 C 
BRANCH  13  14
ATOM     14  C   UNL     1       5.331   4.183  13.055  0.00  0.00    +0.000 C 
BRANCH  14  17
ATOM     15  C   UNL     1       6.909   1.422  11.029  0.00  0.00    +0.000 C 
ATOM     16  N   UNL     1       6.652   2.488  11.963  0.00  0.00    +0.000 N 
ATOM     17  C   UNL     1       5.415   3.087  12.019  0.00  0.00    +0.000 C 
ATOM     18  O   UNL     1       4.476   2.767  11.297  0.00  0.00    +0.000 OA
ATOM     19  H   UNL     1       7.386   2.777  12.597  0.00  0.00    +0.000 HD
ENDBRANCH  14  17
ENDBRANCH  13  14
ENDBRANCH   1  13
TORSDOF 4
ENDMDL
MODEL 8
REMARK VINA RESULT:      -6.7      1.897      2.364
REMARK  Name = 
REMARK  6 active torsions:
REMARK  status: ('A' for Active; 'I' for Inactive)
REMARK    1  A    between atoms: C_1  and  N_2
REMARK    2  A    between atoms: C_3  and  C_5
REMARK    3  A    between atoms: C_5  and  C_6
REMARK    4  A    between atoms: C_6  and  C_7
REMARK    5  A    between atoms: C_9  and  C_10
REMARK    6  A    between atoms: C_13  and  C_14
REMARK                            x       y       z     vdW  Elec       q    Type
REMARK                         _______ _______ _______ _____ _____    ______ ____
ROOT
ATOM      1  C   UNL     1       3.955   4.791  17.621  0.00  0.00    +0.000 A 
ATOM      2  N   UNL     1       3.551   6.027  17.468  0.00  0.00    +0.000 NA
ATOM      3  C   UNL     1       2.802   6.242  18.604  0.00  0.00    +0.000 A 
ATOM      4  N   UNL     1       2.717   5.168  19.409  0.00  0.00    +0.000 NA
ATOM      5  O   UNL     1       3.493   4.208  18.762  0.00  0.00    +0.000 OA
ENDROOT
BRANCH   3   6
ATOM      6  C   UNL     1       2.198   7.535  18.890  0.00  0.00    +0.000 A 
ATOM      7  C   UNL     1       1.739   7.819  20.185  0.00  0.00    +0.000 A 
ATOM      8  C   UNL     1       1.124   9.038  20.474  0.00  0.00    +0.000 A 
ATOM      9  C   UNL     1       0.953   9.996  19.471  0.00  0.00    +0.000 A 
ATOM     10  C   UNL     1       0.271  11.298  19.764  0.00  0.00    +0.000 C 
ATOM     11  C   UNL     1       1.414   9.722  18.178  0.00  0.00    +0.000 A 
ATOM     12  C   UNL     1       2.035   8.502  17.890  0.00  0.00    +0.000 A 
ENDBRANCH   3   6
BRANCH   1  13
ATOM     13  C   UNL     1       4.840   3.984  16.757  0.00  0.00    +0.000 C 
BRANCH  13  14
ATOM     14  C   UNL     1       5.694   4.862  15.851  0.00  0.00    +0.000 C 
BRANCH  14  17
ATOM     15  C   UNL     1       7.673   7.596  17.534  0.00  0.00    +0.000 C 
ATOM     16  N   UNL     1       6.680   6.840  16.814  0.00  0.00    +0.000 N 
ATOM     17  C   UNL     1       6.830   5.485  16.629  0.00  0.00    +0.000 C 
ATOM     18  O   UNL     1       7.791   4.848  17.048  0.00  0.00    +0.000 OA
ATOM     19  H   UNL     1       5.857   7.313  16.465  0.00  0.00    +0.000 HD
ENDBRANCH  14  17
ENDBRANCH  13  14
ENDBRANCH   1  13
TORSDOF 4
ENDMDL
MODEL 9
REMARK VINA RESULT:      -6.7      5.894      6.777
REMARK  Name = 
REMARK  6 active torsions:
REMARK  status: ('A' for Active; 'I' for Inactive)
REMARK    1  A    between atoms: C_1  and  N_2
REMARK    2  A    between atoms: C_3  and  C_5
REMARK    3  A    between atoms: C_5  and  C_6
REMARK    4  A    between atoms: C_6  and  C_7
REMARK    5  A    between atoms: C_9  and  C_10
REMARK    6  A    between atoms: C_13  and  C_14
REMARK                            x       y       z     vdW  Elec       q    Type
REMARK                         _______ _______ _______ _____ _____    ______ ____
ROOT
ATOM      1  C   UNL     1       7.877   6.983  18.242  0.00  0.00    +0.000 A 
ATOM      2  N   UNL     1       8.622   7.841  18.893  0.00  0.00    +0.000 NA
ATOM      3  C   UNL     1       8.378   9.020  18.223  0.00  0.00    +0.000 A 
ATOM      4  N   UNL     1       7.543   8.886  17.177  0.00  0.00    +0.000 NA
ATOM      5  O   UNL     1       7.201   7.536  17.197  0.00  0.00    +0.000 OA
ENDROOT
BRANCH   3   6
ATOM      6  C   UNL     1       8.962  10.281  18.655  0.00  0.00    +0.000 A 
ATOM      7  C   UNL     1       9.588  10.366  19.908  0.00  0.00    +0.000 A 
ATOM      8  C   UNL     1      10.123  11.574  20.359  0.00  0.00    +0.000 A 
ATOM      9  C   UNL     1      10.040  12.721  19.566  0.00  0.00    +0.000 A 
ATOM     10  C   UNL     1      10.589  14.029  20.051  0.00  0.00    +0.000 C 
ATOM     11  C   UNL     1       9.423  12.642  18.311  0.00  0.00    +0.000 A 
ATOM     12  C   UNL     1       8.890  11.431  17.858  0.00  0.00    +0.000 A 
ENDBRANCH   3   6
BRANCH   1  13
ATOM     13  C   UNL     1       7.663   5.545  18.505  0.00  0.00    +0.000 C 
BRANCH  13  14
ATOM     14  C   UNL     1       7.052   4.839  17.301  0.00  0.00    +0.000 C 
BRANCH  14  17
ATOM     15  C   UNL     1       4.388   3.172  19.386  0.00  0.00    +0.000 C 
ATOM     16  N   UNL     1       5.619   3.742  18.898  0.00  0.00    +0.000 N 
ATOM     17  C   UNL     1       5.685   4.293  17.640  0.00  0.00    +0.000 C 
ATOM     18  O   UNL     1       4.731   4.333  16.869  0.00  0.00    +0.000 OA
ATOM     19  H   UNL     1       6.430   3.754  19.502  0.00  0.00    +0.000 HD
ENDBRANCH  14  17
ENDBRANCH  13  14
ENDBRANCH   1  13
TORSDOF 4
ENDMDL
