MODEL 1
REMARK VINA RESULT:      -8.2      0.000      0.000
REMARK  Name = 
REMARK  11 active torsions:
REMARK  status: ('A' for Active; 'I' for Inactive)
REMARK    1  A    between atoms: C_1  and  C_2
REMARK    2  A    between atoms: C_2  and  C_3
REMARK    3  A    between atoms: C_3  and  C_4
REMARK    4  A    between atoms: C_4  and  C_5
REMARK    5  A    between atoms: C_4  and  N_9
REMARK    6  A    between atoms: C_5  and  C_6
REMARK    7  A    between atoms: C_6  and  O_8
REMARK    8  A    between atoms: C_14  and  O_15
REMARK    9  A    between atoms: O_15  and  C_16
REMARK   10  A    between atoms: C_16  and  C_17
REMARK   11  A    between atoms: C_17  and  C_18
REMARK                            x       y       z     vdW  Elec       q    Type
REMARK                         _______ _______ _______ _____ _____    ______ ____
ROOT
ATOM      1  N   UNL     1       5.099   4.934  17.855  0.00  0.00    +0.000 N 
ATOM      2  C   UNL     1       4.726   3.942  18.737  0.00  0.00    +0.000 A 
ATOM      3  C   UNL     1       3.709   4.412  19.521  0.00  0.00    +0.000 A 
ATOM      4  C   UNL     1       3.395   5.717  19.067  0.00  0.00    +0.000 A 
ATOM      5  C   UNL     1       2.434   6.653  19.479  0.00  0.00    +0.000 A 
ATOM      6  C   UNL     1       2.292   7.852  18.786  0.00  0.00    +0.000 A 
ATOM      7  C   UNL     1       3.141   8.150  17.722  0.00  0.00    +0.000 A 
ATOM      8  C   UNL     1       4.133   7.241  17.306  0.00  0.00    +0.000 A 
ATOM      9  C   UNL     1       4.244   6.020  17.996  0.00  0.00    +0.000 A 
ENDROOT
BRANCH   1  10
ATOM     10  C   UNL     1       6.233   4.821  16.915  0.00  0.00    +0.000 C 
BRANCH  10  11
ATOM     11  C   UNL     1       7.573   4.619  17.671  0.00  0.00    +0.000 C 
BRANCH  11  13
ATOM     12  C   UNL     1       7.843   7.061  18.141  0.00  0.00    +0.000 C 
ATOM     13  C   UNL     1       7.899   5.661  18.742  0.00  0.00    +0.000 C 
ENDBRANCH  11  13
ENDBRANCH  10  11
BRANCH  10  14
ATOM     14  C   UNL     1       5.948   3.778  15.830  0.00  0.00    +0.000 C 
BRANCH  14  15
ATOM     15  C   UNL     1       6.369   4.219  14.453  0.00  0.00    +0.000 C 
ATOM     16  O   UNL     1       6.158   3.561  13.442  0.00  0.00    +0.000 OA
BRANCH  15  17
ATOM     17  O   UNL     1       6.985   5.419  14.420  0.00  0.00    +0.000 OA
ATOM     18  H   UNL     1       6.842   5.934  13.598  0.00  0.00    +0.000 HD
ENDBRANCH  15  17
ENDBRANCH  14  15
ENDBRANCH  10  14
ENDBRANCH   1  10
BRANCH   6  19
ATOM     19  O   UNL     1       1.272   8.630  19.254  0.00  0.00    +0.000 OA
BRANCH  19  20
ATOM     20  C   UNL     1       0.850   9.729  18.446  0.00  0.00    +0.000 C 
BRANCH  20  21
ATOM     21  C   UNL     1      -0.091  10.697  19.158  0.00  0.00    +0.000 C 
BRANCH  21  22
ATOM     22  C   UNL     1      -1.480  10.760  18.596  0.00  0.00    +0.000 A 
ATOM     23  C   UNL     1      -1.844  10.227  17.362  0.00  0.00    +0.000 A 
ATOM     24  C   UNL     1      -3.136  10.470  16.892  0.00  0.00    +0.000 A 
ATOM     25  C   UNL     1      -4.000  11.286  17.629  0.00  0.00    +0.000 A 
ATOM     26  C   UNL     1      -3.528  11.819  18.820  0.00  0.00    +0.000 A 
ATOM     27  N   UNL     1      -2.317  11.532  19.312  0.00  0.00    +0.000 NA
ATOM     28  N   UNL     1      -4.108  12.947  19.380  0.00  0.00    +0.000 N 
ATOM     29  C   UNL     1      -5.542  13.022  19.317  0.00  0.00    +0.000 C 
ATOM     30  C   UNL     1      -6.133  12.663  17.960  0.00  0.00    +0.000 C 
ATOM     31  C   UNL     1      -5.368  11.633  17.125  0.00  0.00    +0.000 C 
ATOM     32  H   UNL     1      -3.667  13.725  18.897  0.00  0.00    +0.000 HD
ENDBRANCH  21  22
ENDBRANCH  20  21
ENDBRANCH  19  20
ENDBRANCH   6  19
TORSDOF 10
ENDMDL
MODEL 2
REMARK VINA RESULT:      -7.8      6.099      9.374
REMARK  Name = 
REMARK  11 active torsions:
REMARK  status: ('A' for Active; 'I' for Inactive)
REMARK    1  A    between atoms: C_1  and  C_2
REMARK    2  A    between atoms: C_2  and  C_3
REMARK    3  A    between atoms: C_3  and  C_4
REMARK    4  A    between atoms: C_4  and  C_5
REMARK    5  A    between atoms: C_4  and  N_9
REMARK    6  A    between atoms: C_5  and  C_6
REMARK    7  A    between atoms: C_6  and  O_8
REMARK    8  A    between atoms: C_14  and  O_15
REMARK    9  A    between atoms: O_15  and  C_16
REMARK   10  A    between atoms: C_16  and  C_17
REMARK   11  A    between atoms: C_17  and  C_18
REMARK                            x       y       z     vdW  Elec       q    Type
REMARK                         _______ _______ _______ _____ _____    ______ ____
ROOT
ATOM      1  N   UNL     1       4.784   4.562  17.836  0.00  0.00    +0.000 N 
ATOM      2  C   UNL     1       4.250   5.084  16.676  0.00  0.00    +0.000 A 
ATOM      3  C   UNL     1       4.936   6.221  16.350  0.00  0.00    +0.000 A 
ATOM      4  C   UNL     1       5.973   6.376  17.303  0.00  0.00    +0.000 A 
ATOM      5  C   UNL     1       6.985   7.337  17.448  0.00  0.00    +0.000 A 
ATOM      6  C   UNL     1       7.938   7.196  18.452  0.00  0.00    +0.000 A 
ATOM      7  C   UNL     1       7.855   6.133  19.350  0.00  0.00    +0.000 A 
ATOM      8  C   UNL     1       6.833   5.170  19.246  0.00  0.00    +0.000 A 
ATOM      9  C   UNL     1       5.895   5.310  18.207  0.00  0.00    +0.000 A 
ENDROOT
BRANCH   1  10
ATOM     10  C   UNL     1       4.236   3.386  18.542  0.00  0.00    +0.000 C 
BRANCH  10  11
ATOM     11  C   UNL     1       3.616   3.788  19.907  0.00  0.00    +0.000 C 
BRANCH  11  13
ATOM     12  C   UNL     1       1.740   5.249  20.680  0.00  0.00    +0.000 C 
ATOM     13  C   UNL     1       3.111   5.227  20.014  0.00  0.00    +0.000 C 
ENDBRANCH  11  13
ENDBRANCH  10  11
BRANCH  10  14
ATOM     14  C   UNL     1       3.307   2.579  17.631  0.00  0.00    +0.000 C 
BRANCH  14  15
ATOM     15  C   UNL     1       1.862   2.636  18.049  0.00  0.00    +0.000 C 
ATOM     16  O   UNL     1       1.356   1.842  18.830  0.00  0.00    +0.000 OA
BRANCH  15  17
ATOM     17  O   UNL     1       1.168   3.657  17.503  0.00  0.00    +0.000 OA
ATOM     18  H   UNL     1       0.194   3.585  17.587  0.00  0.00    +0.000 HD
ENDBRANCH  15  17
ENDBRANCH  14  15
ENDBRANCH  10  14
ENDBRANCH   1  10
BRANCH   6  19
ATOM     19  O   UNL     1       8.900   8.164  18.426  0.00  0.00    +0.000 OA
BRANCH  19  20
ATOM     20  C   UNL     1       8.476   9.519  18.275  0.00  0.00    +0.000 C 
BRANCH  20  21
ATOM     21  C   UNL     1       9.252  10.511  19.137  0.00  0.00    +0.000 C 
BRANCH  21  22
ATOM     22  C   UNL     1       9.839  11.673  18.393  0.00  0.00    +0.000 A 
ATOM     23  C   UNL     1      11.118  11.675  17.841  0.00  0.00    +0.000 A 
ATOM     24  C   UNL     1      11.599  12.866  17.293  0.00  0.00    +0.000 A 
ATOM     25  C   UNL     1      10.824  14.028  17.368  0.00  0.00    +0.000 A 
ATOM     26  C   UNL     1       9.585  13.939  17.987  0.00  0.00    +0.000 A 
ATOM     27  N   UNL     1       9.087  12.787  18.451  0.00  0.00    +0.000 NA
ATOM     28  N   UNL     1       8.956  15.066  18.495  0.00  0.00    +0.000 N 
ATOM     29  C   UNL     1       9.047  16.259  17.696  0.00  0.00    +0.000 C 
ATOM     30  C   UNL     1      10.441  16.550  17.156  0.00  0.00    +0.000 C 
ATOM     31  C   UNL     1      11.332  15.341  16.858  0.00  0.00    +0.000 C 
ATOM     32  H   UNL     1       9.369  15.195  19.415  0.00  0.00    +0.000 HD
ENDBRANCH  21  22
ENDBRANCH  20  21
ENDBRANCH  19  20
ENDBRANCH   6  19
TORSDOF 10
ENDMDL
MODEL 3
REMARK VINA RESULT:      -7.8      3.057      4.890
REMARK  Name = 
REMARK  11 active torsions:
REMARK  status: ('A' for Active; 'I' for Inactive)
REMARK    1  A    between atoms: C_1  and  C_2
REMARK    2  A    between atoms: C_2  and  C_3
REMARK    3  A    between atoms: C_3  and  C_4
REMARK    4  A    between atoms: C_4  and  C_5
REMARK    5  A    between atoms: C_4  and  N_9
REMARK    6  A    between atoms: C_5  and  C_6
REMARK    7  A    between atoms: C_6  and  O_8
REMARK    8  A    between atoms: C_14  and  O_15
REMARK    9  A    between atoms: O_15  and  C_16
REMARK   10  A    between atoms: C_16  and  C_17
REMARK   11  A    between atoms: C_17  and  C_18
REMARK                            x       y       z     vdW  Elec       q    Type
REMARK                         _______ _______ _______ _____ _____    ______ ____
ROOT
ATOM      1  N   UNL     1       2.600   7.187  18.845  0.00  0.00    +0.000 N 
ATOM      2  C   UNL     1       2.885   7.894  17.695  0.00  0.00    +0.000 A 
ATOM      3  C   UNL     1       2.188   9.070  17.718  0.00  0.00    +0.000 A 
ATOM      4  C   UNL     1       1.498   9.127  18.955  0.00  0.00    +0.000 A 
ATOM      5  C   UNL     1       0.659  10.098  19.523  0.00  0.00    +0.000 A 
ATOM      6  C   UNL     1       0.172   9.923  20.815  0.00  0.00    +0.000 A 
ATOM      7  C   UNL     1       0.469   8.760  21.523  0.00  0.00    +0.000 A 
ATOM      8  C   UNL     1       1.285   7.757  20.967  0.00  0.00    +0.000 A 
ATOM      9  C   UNL     1       1.794   7.961  19.672  0.00  0.00    +0.000 A 
ENDROOT
BRANCH   1  10
ATOM     10  C   UNL     1       3.098   5.825  19.123  0.00  0.00    +0.000 C 
BRANCH  10  11
ATOM     11  C   UNL     1       1.995   4.762  18.879  0.00  0.00    +0.000 C 
BRANCH  11  13
ATOM     12  C   UNL     1       2.357   4.294  21.309  0.00  0.00    +0.000 C 
ATOM     13  C   UNL     1       1.407   4.109  20.131  0.00  0.00    +0.000 C 
ENDBRANCH  11  13
ENDBRANCH  10  11
BRANCH  10  14
ATOM     14  C   UNL     1       4.416   5.559  18.389  0.00  0.00    +0.000 C 
BRANCH  14  15
ATOM     15  C   UNL     1       5.418   4.800  19.218  0.00  0.00    +0.000 C 
ATOM     16  O   UNL     1       6.364   5.332  19.783  0.00  0.00    +0.000 OA
BRANCH  15  17
ATOM     17  O   UNL     1       5.176   3.475  19.304  0.00  0.00    +0.000 OA
ATOM     18  H   UNL     1       4.396   3.165  18.798  0.00  0.00    +0.000 HD
ENDBRANCH  15  17
ENDBRANCH  14  15
ENDBRANCH  10  14
ENDBRANCH   1  10
BRANCH   6  19
ATOM     19  O   UNL     1      -0.570  10.980  21.261  0.00  0.00    +0.000 OA
BRANCH  19  20
ATOM     20  C   UNL     1      -1.059  10.930  22.601  0.00  0.00    +0.000 C 
BRANCH  20  21
ATOM     21  C   UNL     1      -1.447  12.291  23.171  0.00  0.00    +0.000 C 
BRANCH  21  22
ATOM     22  C   UNL     1      -2.916  12.588  23.160  0.00  0.00    +0.000 A 
ATOM     23  C   UNL     1      -3.719  12.579  24.299  0.00  0.00    +0.000 A 
ATOM     24  C   UNL     1      -5.096  12.738  24.137  0.00  0.00    +0.000 A 
ATOM     25  C   UNL     1      -5.638  12.835  22.851  0.00  0.00    +0.000 A 
ATOM     26  C   UNL     1      -4.763  12.776  21.775  0.00  0.00    +0.000 A 
ATOM     27  N   UNL     1      -3.436  12.697  21.924  0.00  0.00    +0.000 NA
ATOM     28  N   UNL     1      -5.207  12.426  20.509  0.00  0.00    +0.000 N 
ATOM     29  C   UNL     1      -6.478  12.967  20.109  0.00  0.00    +0.000 C 
ATOM     30  C   UNL     1      -7.567  12.866  21.169  0.00  0.00    +0.000 C 
ATOM     31  C   UNL     1      -7.116  12.932  22.630  0.00  0.00    +0.000 C 
ATOM     32  H   UNL     1      -5.214  11.409  20.515  0.00  0.00    +0.000 HD
ENDBRANCH  21  22
ENDBRANCH  20  21
ENDBRANCH  19  20
ENDBRANCH   6  19
TORSDOF 10
ENDMDL
MODEL 4
REMARK VINA RESULT:      -7.7      3.131      4.901
REMARK  Name = 
REMARK  11 active torsions:
REMARK  status: ('A' for Active; 'I' for Inactive)
REMARK    1  A    between atoms: C_1  and  C_2
REMARK    2  A    between atoms: C_2  and  C_3
REMARK    3  A    between atoms: C_3  and  C_4
REMARK    4  A    between atoms: C_4  and  C_5
REMARK    5  A    between atoms: C_4  and  N_9
REMARK    6  A    between atoms: C_5  and  C_6
REMARK    7  A    between atoms: C_6  and  O_8
REMARK    8  A    between atoms: C_14  and  O_15
REMARK    9  A    between atoms: O_15  and  C_16
REMARK   10  A    between atoms: C_16  and  C_17
REMARK   11  A    between atoms: C_17  and  C_18
REMARK                            x       y       z     vdW  Elec       q    Type
REMARK                         _______ _______ _______ _____ _____    ______ ____
ROOT
ATOM      1  N   UNL     1       2.709   6.648  19.151  0.00  0.00    +0.000 N 
ATOM      2  C   UNL     1       3.138   7.004  17.890  0.00  0.00    +0.000 A 
ATOM      3  C   UNL     1       2.612   8.227  17.577  0.00  0.00    +0.000 A 
ATOM      4  C   UNL     1       1.885   8.676  18.708  0.00  0.00    +0.000 A 
ATOM      5  C   UNL     1       1.167   9.854  18.960  0.00  0.00    +0.000 A 
ATOM      6  C   UNL     1       0.606  10.070  20.216  0.00  0.00    +0.000 A 
ATOM      7  C   UNL     1       0.708   9.092  21.204  0.00  0.00    +0.000 A 
ATOM      8  C   UNL     1       1.399   7.888  20.968  0.00  0.00    +0.000 A 
ATOM      9  C   UNL     1       1.986   7.698  19.704  0.00  0.00    +0.000 A 
ENDROOT
BRANCH   1  10
ATOM     10  C   UNL     1       3.000   5.346  19.786  0.00  0.00    +0.000 C 
BRANCH  10  11
ATOM     11  C   UNL     1       1.981   4.263  19.341  0.00  0.00    +0.000 C 
BRANCH  11  13
ATOM     12  C   UNL     1       1.973   3.282  21.641  0.00  0.00    +0.000 C 
ATOM     13  C   UNL     1       1.108   3.672  20.448  0.00  0.00    +0.000 C 
ENDBRANCH  11  13
ENDBRANCH  10  11
BRANCH  10  14
ATOM     14  C   UNL     1       4.469   4.957  19.599  0.00  0.00    +0.000 C 
BRANCH  14  15
ATOM     15  C   UNL     1       4.656   3.698  18.795  0.00  0.00    +0.000 C 
ATOM     16  O   UNL     1       4.553   3.656  17.576  0.00  0.00    +0.000 OA
BRANCH  15  17
ATOM     17  O   UNL     1       4.970   2.612  19.533  0.00  0.00    +0.000 OA
ATOM     18  H   UNL     1       4.381   2.450  20.299  0.00  0.00    +0.000 HD
ENDBRANCH  15  17
ENDBRANCH  14  15
ENDBRANCH  10  14
ENDBRANCH   1  10
BRANCH   6  19
ATOM     19  O   UNL     1       0.002  11.288  20.338  0.00  0.00    +0.000 OA
BRANCH  19  20
ATOM     20  C   UNL     1      -0.980  11.443  21.363  0.00  0.00    +0.000 C 
BRANCH  20  21
ATOM     21  C   UNL     1      -1.590  12.840  21.430  0.00  0.00    +0.000 C 
BRANCH  21  22
ATOM     22  C   UNL     1      -2.853  12.943  22.232  0.00  0.00    +0.000 A 
ATOM     23  C   UNL     1      -2.886  13.026  23.622  0.00  0.00    +0.000 A 
ATOM     24  C   UNL     1      -4.128  12.980  24.257  0.00  0.00    +0.000 A 
ATOM     25  C   UNL     1      -5.288  12.788  23.500  0.00  0.00    +0.000 A 
ATOM     26  C   UNL     1      -5.149  12.659  22.126  0.00  0.00    +0.000 A 
ATOM     27  N   UNL     1      -3.970  12.774  21.503  0.00  0.00    +0.000 NA
ATOM     28  N   UNL     1      -6.130  12.045  21.361  0.00  0.00    +0.000 N 
ATOM     29  C   UNL     1      -7.491  12.346  21.713  0.00  0.00    +0.000 C 
ATOM     30  C   UNL     1      -7.782  12.290  23.207  0.00  0.00    +0.000 C 
ATOM     31  C   UNL     1      -6.632  12.659  24.148  0.00  0.00    +0.000 C 
ATOM     32  H   UNL     1      -5.929  11.052  21.440  0.00  0.00    +0.000 HD
ENDBRANCH  21  22
ENDBRANCH  20  21
ENDBRANCH  19  20
ENDBRANCH   6  19
TORSDOF 10
ENDMDL
MODEL 5
REMARK VINA RESULT:      -7.6      3.102      4.755
REMARK  Name = 
REMARK  11 active torsions:
REMARK  status: ('A' for Active; 'I' for Inactive)
REMARK    1  A    between atoms: C_1  and  C_2
REMARK    2  A    between atoms: C_2  and  C_3
REMARK    3  A    between atoms: C_3  and  C_4
REMARK    4  A    between atoms: C_4  and  C_5
REMARK    5  A    between atoms: C_4  and  N_9
REMARK    6  A    between atoms: C_5  and  C_6
REMARK    7  A    between atoms: C_6  and  O_8
REMARK    8  A    between atoms: C_14  and  O_15
REMARK    9  A    between atoms: O_15  and  C_16
REMARK   10  A    between atoms: C_16  and  C_17
REMARK   11  A    between atoms: C_17  and  C_18
REMARK                            x       y       z     vdW  Elec       q    Type
REMARK                         _______ _______ _______ _____ _____    ______ ____
ROOT
ATOM      1  N   UNL     1       2.713   7.218  18.946  0.00  0.00    +0.000 N 
ATOM      2  C   UNL     1       2.890   7.905  17.762  0.00  0.00    +0.000 A 
ATOM      3  C   UNL     1       2.062   8.993  17.758  0.00  0.00    +0.000 A 
ATOM      4  C   UNL     1       1.397   9.021  19.009  0.00  0.00    +0.000 A 
ATOM      5  C   UNL     1       0.463   9.912  19.560  0.00  0.00    +0.000 A 
ATOM      6  C   UNL     1       0.027   9.737  20.871  0.00  0.00    +0.000 A 
ATOM      7  C   UNL     1       0.472   8.646  21.616  0.00  0.00    +0.000 A 
ATOM      8  C   UNL     1       1.387   7.721  21.077  0.00  0.00    +0.000 A 
ATOM      9  C   UNL     1       1.841   7.928  19.762  0.00  0.00    +0.000 A 
ENDROOT
BRANCH   1  10
ATOM     10  C   UNL     1       3.372   5.935  19.263  0.00  0.00    +0.000 C 
BRANCH  10  11
ATOM     11  C   UNL     1       2.367   4.755  19.193  0.00  0.00    +0.000 C 
BRANCH  11  13
ATOM     12  C   UNL     1       2.429   2.835  17.591  0.00  0.00    +0.000 C 
ATOM     13  C   UNL     1       1.988   4.281  17.790  0.00  0.00    +0.000 C 
ENDBRANCH  11  13
ENDBRANCH  10  11
BRANCH  10  14
ATOM     14  C   UNL     1       4.641   5.744  18.427  0.00  0.00    +0.000 C 
BRANCH  14  15
ATOM     15  C   UNL     1       5.682   4.894  19.107  0.00  0.00    +0.000 C 
ATOM     16  O   UNL     1       6.567   5.354  19.816  0.00  0.00    +0.000 OA
BRANCH  15  17
ATOM     17  O   UNL     1       5.547   3.570  18.884  0.00  0.00    +0.000 OA
ATOM     18  H   UNL     1       4.724   3.174  19.240  0.00  0.00    +0.000 HD
ENDBRANCH  15  17
ENDBRANCH  14  15
ENDBRANCH  10  14
ENDBRANCH   1  10
BRANCH   6  19
ATOM     19  O   UNL     1      -0.822  10.718  21.295  0.00  0.00    +0.000 OA
BRANCH  19  20
ATOM     20  C   UNL     1      -0.585  11.293  22.580  0.00  0.00    +0.000 C 
BRANCH  20  21
ATOM     21  C   UNL     1      -1.223  12.666  22.773  0.00  0.00    +0.000 C 
BRANCH  21  22
ATOM     22  C   UNL     1      -2.645  12.774  22.311  0.00  0.00    +0.000 A 
ATOM     23  C   UNL     1      -3.023  13.291  21.074  0.00  0.00    +0.000 A 
ATOM     24  C   UNL     1      -4.385  13.464  20.819  0.00  0.00    +0.000 A 
ATOM     25  C   UNL     1      -5.320  13.182  21.820  0.00  0.00    +0.000 A 
ATOM     26  C   UNL     1      -4.843  12.725  23.040  0.00  0.00    +0.000 A 
ATOM     27  N   UNL     1      -3.547  12.488  23.268  0.00  0.00    +0.000 NA
ATOM     28  N   UNL     1      -5.604  12.838  24.194  0.00  0.00    +0.000 N 
ATOM     29  C   UNL     1      -7.010  12.566  24.057  0.00  0.00    +0.000 C 
ATOM     30  C   UNL     1      -7.664  13.223  22.849  0.00  0.00    +0.000 C 
ATOM     31  C   UNL     1      -6.784  13.424  21.612  0.00  0.00    +0.000 C 
ATOM     32  H   UNL     1      -5.432  13.785  24.520  0.00  0.00    +0.000 HD
ENDBRANCH  21  22
ENDBRANCH  20  21
ENDBRANCH  19  20
ENDBRANCH   6  19
TORSDOF 10
ENDMDL
MODEL 6
REMARK VINA RESULT:      -7.6      1.900      2.664
REMARK  Name = 
REMARK  11 active torsions:
REMARK  status: ('A' for Active; 'I' for Inactive)
REMARK    1  A    between atoms: C_1  and  C_2
REMARK    2  A    between atoms: C_2  and  C_3
REMARK    3  A    between atoms: C_3  and  C_4
REMARK    4  A    between atoms: C_4  and  C_5
REMARK    5  A    between atoms: C_4  and  N_9
REMARK    6  A    between atoms: C_5  and  C_6
REMARK    7  A    between atoms: C_6  and  O_8
REMARK    8  A    between atoms: C_14  and  O_15
REMARK    9  A    between atoms: O_15  and  C_16
REMARK   10  A    between atoms: C_16  and  C_17
REMARK   11  A    between atoms: C_17  and  C_18
REMARK                            x       y       z     vdW  Elec       q    Type
REMARK                         _______ _______ _______ _____ _____    ______ ____
ROOT
ATOM      1  N   UNL     1       4.874   4.877  17.469  0.00  0.00    +0.000 N 
ATOM      2  C   UNL     1       4.487   3.750  18.165  0.00  0.00    +0.000 A 
ATOM      3  C   UNL     1       3.509   4.099  19.055  0.00  0.00    +0.000 A 
ATOM      4  C   UNL     1       3.232   5.475  18.859  0.00  0.00    +0.000 A 
ATOM      5  C   UNL     1       2.317   6.348  19.467  0.00  0.00    +0.000 A 
ATOM      6  C   UNL     1       2.202   7.659  19.013  0.00  0.00    +0.000 A 
ATOM      7  C   UNL     1       3.034   8.121  17.994  0.00  0.00    +0.000 A 
ATOM      8  C   UNL     1       3.980   7.274  17.386  0.00  0.00    +0.000 A 
ATOM      9  C   UNL     1       4.063   5.944  17.836  0.00  0.00    +0.000 A 
ENDROOT
BRANCH   1  10
ATOM     10  C   UNL     1       5.978   4.903  16.488  0.00  0.00    +0.000 C 
BRANCH  10  11
ATOM     11  C   UNL     1       7.358   4.946  17.196  0.00  0.00    +0.000 C 
BRANCH  11  13
ATOM     12  C   UNL     1       7.747   5.717  19.543  0.00  0.00    +0.000 C 
ATOM     13  C   UNL     1       7.613   6.160  18.090  0.00  0.00    +0.000 C 
ENDBRANCH  11  13
ENDBRANCH  10  11
BRANCH  10  14
ATOM     14  C   UNL     1       5.824   3.784  15.454  0.00  0.00    +0.000 C 
BRANCH  14  15
ATOM     15  C   UNL     1       6.445   4.113  14.122  0.00  0.00    +0.000 C 
ATOM     16  O   UNL     1       7.078   5.138  13.909  0.00  0.00    +0.000 OA
BRANCH  15  17
ATOM     17  O   UNL     1       6.261   3.167  13.177  0.00  0.00    +0.000 OA
ATOM     18  H   UNL     1       5.353   2.800  13.132  0.00  0.00    +0.000 HD
ENDBRANCH  15  17
ENDBRANCH  14  15
ENDBRANCH  10  14
ENDBRANCH   1  10
BRANCH   6  19
ATOM     19  O   UNL     1       1.224   8.369  19.648  0.00  0.00    +0.000 OA
BRANCH  19  20
ATOM     20  C   UNL     1       1.151   9.772  19.396  0.00  0.00    +0.000 C 
BRANCH  20  21
ATOM     21  C   UNL     1      -0.273  10.304  19.258  0.00  0.00    +0.000 C 
BRANCH  21  22
ATOM     22  C   UNL     1      -0.822  10.974  20.481  0.00  0.00    +0.000 A 
ATOM     23  C   UNL     1      -0.507  10.593  21.783  0.00  0.00    +0.000 A 
ATOM     24  C   UNL     1      -1.189  11.208  22.835  0.00  0.00    +0.000 A 
ATOM     25  C   UNL     1      -2.204  12.130  22.559  0.00  0.00    +0.000 A 
ATOM     26  C   UNL     1      -2.485  12.403  21.228  0.00  0.00    +0.000 A 
ATOM     27  N   UNL     1      -1.788  11.873  20.217  0.00  0.00    +0.000 NA
ATOM     28  N   UNL     1      -3.710  12.931  20.848  0.00  0.00    +0.000 N 
ATOM     29  C   UNL     1      -4.258  13.945  21.708  0.00  0.00    +0.000 C 
ATOM     30  C   UNL     1      -4.188  13.618  23.193  0.00  0.00    +0.000 C 
ATOM     31  C   UNL     1      -3.009  12.757  23.655  0.00  0.00    +0.000 C 
ATOM     32  H   UNL     1      -4.323  12.124  20.777  0.00  0.00    +0.000 HD
ENDBRANCH  21  22
ENDBRANCH  20  21
ENDBRANCH  19  20
ENDBRANCH   6  19
TORSDOF 10
ENDMDL
MODEL 7
REMARK VINA RESULT:      -7.6      0.902      1.095
REMARK  Name = 
REMARK  11 active torsions:
REMARK  status: ('A' for Active; 'I' for Inactive)
REMARK    1  A    between atoms: C_1  and  C_2
REMARK    2  A    between atoms: C_2  and  C_3
REMARK    3  A    between atoms: C_3  and  C_4
REMARK    4  A    between atoms: C_4  and  C_5
REMARK    5  A    between atoms: C_4  and  N_9
REMARK    6  A    between atoms: C_5  and  C_6
REMARK    7  A    between atoms: C_6  and  O_8
REMARK    8  A    between atoms: C_14  and  O_15
REMARK    9  A    between atoms: O_15  and  C_16
REMARK   10  A    between atoms: C_16  and  C_17
REMARK   11  A    between atoms: C_17  and  C_18
REMARK                            x       y       z     vdW  Elec       q    Type
REMARK                         _______ _______ _______ _____ _____    ______ ____
ROOT
ATOM      1  N   UNL     1       4.851   5.648  17.570  0.00  0.00    +0.000 N 
ATOM      2  C   UNL     1       4.857   4.525  18.372  0.00  0.00    +0.000 A 
ATOM      3  C   UNL     1       3.971   4.712  19.396  0.00  0.00    +0.000 A 
ATOM      4  C   UNL     1       3.344   5.966  19.188  0.00  0.00    +0.000 A 
ATOM      5  C   UNL     1       2.350   6.653  19.901  0.00  0.00    +0.000 A 
ATOM      6  C   UNL     1       1.855   7.859  19.413  0.00  0.00    +0.000 A 
ATOM      7  C   UNL     1       2.386   8.414  18.250  0.00  0.00    +0.000 A 
ATOM      8  C   UNL     1       3.404   7.760  17.531  0.00  0.00    +0.000 A 
ATOM      9  C   UNL     1       3.872   6.527  18.019  0.00  0.00    +0.000 A 
ENDROOT
BRANCH   1  10
ATOM     10  C   UNL     1       5.753   5.846  16.418  0.00  0.00    +0.000 C 
BRANCH  10  11
ATOM     11  C   UNL     1       6.718   7.037  16.658  0.00  0.00    +0.000 C 
BRANCH  11  13
ATOM     12  C   UNL     1       8.257   8.327  18.149  0.00  0.00    +0.000 C 
ATOM     13  C   UNL     1       7.473   7.029  17.987  0.00  0.00    +0.000 C 
ENDBRANCH  11  13
ENDBRANCH  10  11
BRANCH  10  14
ATOM     14  C   UNL     1       6.441   4.535  16.024  0.00  0.00    +0.000 C 
BRANCH  14  15
ATOM     15  C   UNL     1       6.751   4.441  14.554  0.00  0.00    +0.000 C 
ATOM     16  O   UNL     1       6.142   3.710  13.784  0.00  0.00    +0.000 OA
BRANCH  15  17
ATOM     17  O   UNL     1       7.749   5.252  14.145  0.00  0.00    +0.000 OA
ATOM     18  H   UNL     1       7.587   6.209  14.286  0.00  0.00    +0.000 HD
ENDBRANCH  15  17
ENDBRANCH  14  15
ENDBRANCH  10  14
ENDBRANCH   1  10
BRANCH   6  19
ATOM     19  O   UNL     1       0.843   8.375  20.171  0.00  0.00    +0.000 OA
BRANCH  19  20
ATOM     20  C   UNL     1       0.983   9.715  20.643  0.00  0.00    +0.000 C 
BRANCH  20  21
ATOM     21  C   UNL     1       0.674  10.777  19.591  0.00  0.00    +0.000 C 
BRANCH  21  22
ATOM     22  C   UNL     1      -0.650  10.624  18.904  0.00  0.00    +0.000 A 
ATOM     23  C   UNL     1      -0.824   9.957  17.694  0.00  0.00    +0.000 A 
ATOM     24  C   UNL     1      -2.082  10.001  17.090  0.00  0.00    +0.000 A 
ATOM     25  C   UNL     1      -3.105  10.757  17.672  0.00  0.00    +0.000 A 
ATOM     26  C   UNL     1      -2.819  11.434  18.849  0.00  0.00    +0.000 A 
ATOM     27  N   UNL     1      -1.639  11.338  19.471  0.00  0.00    +0.000 NA
ATOM     28  N   UNL     1      -3.580  12.521  19.253  0.00  0.00    +0.000 N 
ATOM     29  C   UNL     1      -5.000  12.411  19.055  0.00  0.00    +0.000 C 
ATOM     30  C   UNL     1      -5.406  11.879  17.687  0.00  0.00    +0.000 C 
ATOM     31  C   UNL     1      -4.446  10.891  17.019  0.00  0.00    +0.000 C 
ATOM     32  H   UNL     1      -3.187  13.308  18.745  0.00  0.00    +0.000 HD
ENDBRANCH  21  22
ENDBRANCH  20  21
ENDBRANCH  19  20
ENDBRANCH   6  19
TORSDOF 10
ENDMDL
MODEL 8
REMARK VINA RESULT:      -7.6      1.953      3.138
REMARK  Name = 
REMARK  11 active torsions:
REMARK  status: ('A' for Active; 'I' for Inactive)
REMARK    1  A    between atoms: C_1  and  C_2
REMARK    2  A    between atoms: C_2  and  C_3
REMARK    3  A    between atoms: C_3  and  C_4
REMARK    4  A    between atoms: C_4  and  C_5
REMARK    5  A    between atoms: C_4  and  N_9
REMARK    6  A    between atoms: C_5  and  C_6
REMARK    7  A    between atoms: C_6  and  O_8
REMARK    8  A    between atoms: C_14  and  O_15
REMARK    9  A    between atoms: O_15  and  C_16
REMARK   10  A    between atoms: C_16  and  C_17
REMARK   11  A    between atoms: C_17  and  C_18
REMARK                            x       y       z     vdW  Elec       q    Type
REMARK                         _______ _______ _______ _____ _____    ______ ____
ROOT
ATOM      1  N   UNL     1       3.373   5.042  19.199  0.00  0.00    +0.000 N 
ATOM      2  C   UNL     1       2.886   4.479  20.360  0.00  0.00    +0.000 A 
ATOM      3  C   UNL     1       2.141   5.415  21.023  0.00  0.00    +0.000 A 
ATOM      4  C   UNL     1       2.110   6.578  20.214  0.00  0.00    +0.000 A 
ATOM      5  C   UNL     1       1.486   7.825  20.378  0.00  0.00    +0.000 A 
ATOM      6  C   UNL     1       1.559   8.776  19.364  0.00  0.00    +0.000 A 
ATOM      7  C   UNL     1       2.300   8.516  18.213  0.00  0.00    +0.000 A 
ATOM      8  C   UNL     1       2.960   7.285  18.035  0.00  0.00    +0.000 A 
ATOM      9  C   UNL     1       2.851   6.321  19.054  0.00  0.00    +0.000 A 
ENDROOT
BRANCH   1  10
ATOM     10  C   UNL     1       4.299   4.357  18.274  0.00  0.00    +0.000 C 
BRANCH  10  11
ATOM     11  C   UNL     1       3.538   3.739  17.071  0.00  0.00    +0.000 C 
BRANCH  11  13
ATOM     12  C   UNL     1       3.403   1.517  18.211  0.00  0.00    +0.000 C 
ATOM     13  C   UNL     1       2.634   2.549  17.392  0.00  0.00    +0.000 C 
ENDBRANCH  11  13
ENDBRANCH  10  11
BRANCH  10  14
ATOM     14  C   UNL     1       5.470   5.267  17.891  0.00  0.00    +0.000 C 
BRANCH  14  15
ATOM     15  C   UNL     1       6.703   5.036  18.723  0.00  0.00    +0.000 C 
ATOM     16  O   UNL     1       6.812   5.413  19.883  0.00  0.00    +0.000 OA
BRANCH  15  17
ATOM     17  O   UNL     1       7.680   4.357  18.088  0.00  0.00    +0.000 OA
ATOM     18  H   UNL     1       7.773   3.419  18.357  0.00  0.00    +0.000 HD
ENDBRANCH  15  17
ENDBRANCH  14  15
ENDBRANCH  10  14
ENDBRANCH   1  10
BRANCH   6  19
ATOM     19  O   UNL     1       0.846   9.909  19.633  0.00  0.00    +0.000 OA
BRANCH  19  20
ATOM     20  C   UNL     1       0.350  10.660  18.524  0.00  0.00    +0.000 C 
BRANCH  20  21
ATOM     21  C   UNL     1      -1.053  10.256  18.079  0.00  0.00    +0.000 C 
BRANCH  21  22
ATOM     22  C   UNL     1      -2.157  11.137  18.581  0.00  0.00    +0.000 A 
ATOM     23  C   UNL     1      -2.040  11.973  19.690  0.00  0.00    +0.000 A 
ATOM     24  C   UNL     1      -3.182  12.640  20.136  0.00  0.00    +0.000 A 
ATOM     25  C   UNL     1      -4.412  12.407  19.512  0.00  0.00    +0.000 A 
ATOM     26  C   UNL     1      -4.438  11.513  18.451  0.00  0.00    +0.000 A 
ATOM     27  N   UNL     1      -3.336  10.925  17.971  0.00  0.00    +0.000 NA
ATOM     28  N   UNL     1      -5.618  10.892  18.066  0.00  0.00    +0.000 N 
ATOM     29  C   UNL     1      -6.800  11.711  18.078  0.00  0.00    +0.000 C 
ATOM     30  C   UNL     1      -6.960  12.568  19.327  0.00  0.00    +0.000 C 
ATOM     31  C   UNL     1      -5.673  13.045  20.006  0.00  0.00    +0.000 C 
ATOM     32  H   UNL     1      -5.702  10.097  18.694  0.00  0.00    +0.000 HD
ENDBRANCH  21  22
ENDBRANCH  20  21
ENDBRANCH  19  20
ENDBRANCH   6  19
TORSDOF 10
ENDMDL
MODEL 9
REMARK VINA RESULT:      -7.6      2.792     10.009
REMARK  Name = 
REMARK  11 active torsions:
REMARK  status: ('A' for Active; 'I' for Inactive)
REMARK    1  A    between atoms: C_1  and  C_2
REMARK    2  A    between atoms: C_2  and  C_3
REMARK    3  A    between atoms: C_3  and  C_4
REMARK    4  A    between atoms: C_4  and  C_5
REMARK    5  A    between atoms: C_4  and  N_9
REMARK    6  A    between atoms: C_5  and  C_6
REMARK    7  A    between atoms: C_6  and  O_8
REMARK    8  A    between atoms: C_14  and  O_15
REMARK    9  A    between atoms: O_15  and  C_16
REMARK   10  A    between atoms: C_16  and  C_17
REMARK   11  A    between atoms: C_17  and  C_18
REMARK                            x       y       z     vdW  Elec       q    Type
REMARK                         _______ _______ _______ _____ _____    ______ ____
ROOT
ATOM      1  N   UNL     1       0.549   9.903  19.548  0.00  0.00    +0.000 N 
ATOM      2  C   UNL     1       0.273   9.985  20.897  0.00  0.00    +0.000 A 
ATOM      3  C   UNL     1       0.770   8.870  21.514  0.00  0.00    +0.000 A 
ATOM      4  C   UNL     1       1.435   8.102  20.526  0.00  0.00    +0.000 A 
ATOM      5  C   UNL     1       2.138   6.889  20.590  0.00  0.00    +0.000 A 
ATOM      6  C   UNL     1       2.771   6.394  19.453  0.00  0.00    +0.000 A 
ATOM      7  C   UNL     1       2.658   7.070  18.239  0.00  0.00    +0.000 A 
ATOM      8  C   UNL     1       1.934   8.273  18.141  0.00  0.00    +0.000 A 
ATOM      9  C   UNL     1       1.326   8.777  19.305  0.00  0.00    +0.000 A 
ENDROOT
BRANCH   1  10
ATOM     10  C   UNL     1       0.080  10.885  18.548  0.00  0.00    +0.000 C 
BRANCH  10  11
ATOM     11  C   UNL     1      -1.441  10.735  18.283  0.00  0.00    +0.000 C 
BRANCH  11  13
ATOM     12  C   UNL     1      -2.998  10.806  16.327  0.00  0.00    +0.000 C 
ATOM     13  C   UNL     1      -1.828  10.065  16.964  0.00  0.00    +0.000 C 
ENDBRANCH  11  13
ENDBRANCH  10  11
BRANCH  10  14
ATOM     14  C   UNL     1       0.529  12.302  18.914  0.00  0.00    +0.000 C 
BRANCH  14  15
ATOM     15  C   UNL     1       1.986  12.559  18.631  0.00  0.00    +0.000 C 
ATOM     16  O   UNL     1       2.714  13.194  19.382  0.00  0.00    +0.000 OA
BRANCH  15  17
ATOM     17  O   UNL     1       2.432  12.010  17.482  0.00  0.00    +0.000 OA
ATOM     18  H   UNL     1       2.518  12.636  16.732  0.00  0.00    +0.000 HD
ENDBRANCH  15  17
ENDBRANCH  14  15
ENDBRANCH  10  14
ENDBRANCH   1  10
BRANCH   6  19
ATOM     19  O   UNL     1       3.476   5.247  19.682  0.00  0.00    +0.000 OA
BRANCH  19  20
ATOM     20  C   UNL     1       4.748   5.111  19.049  0.00  0.00    +0.000 C 
BRANCH  20  21
ATOM     21  C   UNL     1       4.794   4.028  17.975  0.00  0.00    +0.000 C 
BRANCH  21  22
ATOM     22  C   UNL     1       5.738   4.297  16.842  0.00  0.00    +0.000 A 
ATOM     23  C   UNL     1       6.760   5.242  16.890  0.00  0.00    +0.000 A 
ATOM     24  C   UNL     1       7.482   5.493  15.722  0.00  0.00    +0.000 A 
ATOM     25  C   UNL     1       7.126   4.848  14.533  0.00  0.00    +0.000 A 
ATOM     26  C   UNL     1       6.056   3.966  14.572  0.00  0.00    +0.000 A 
ATOM     27  N   UNL     1       5.405   3.665  15.701  0.00  0.00    +0.000 NA
ATOM     28  N   UNL     1       5.362   3.629  13.419  0.00  0.00    +0.000 N 
ATOM     29  C   UNL     1       6.156   3.423  12.237  0.00  0.00    +0.000 C 
ATOM     30  C   UNL     1       7.221   4.486  12.000  0.00  0.00    +0.000 C 
ATOM     31  C   UNL     1       7.827   5.144  13.243  0.00  0.00    +0.000 C 
ATOM     32  H   UNL     1       4.692   4.383  13.297  0.00  0.00    +0.000 HD
ENDBRANCH  21  22
ENDBRANCH  20  21
ENDBRANCH  19  20
ENDBRANCH   6  19
TORSDOF 10
ENDMDL
