MODEL 1
REMARK VINA RESULT:      -7.2      0.000      0.000
REMARK  Name = 
REMARK  6 active torsions:
REMARK  status: ('A' for Active; 'I' for Inactive)
REMARK    1  A    between atoms: C_1  and  C_2
REMARK    2  A    between atoms: C_5  and  S_6
REMARK    3  A    between atoms: S_6  and  N_9
REMARK    4  A    between atoms: N_9  and  C_10
REMARK    5  A    between atoms: C_10  and  C_11
REMARK    6  A    between atoms: C_11  and  C_12
REMARK                            x       y       z     vdW  Elec       q    Type
REMARK                         _______ _______ _______ _____ _____    ______ ____
ROOT
ATOM      1  S   UNL     1       5.677   4.655  19.121  0.00  0.00    +0.000 S 
ATOM      2  O   UNL     1       5.048   3.440  19.585  0.00  0.00    +0.000 OA
ATOM      3  O   UNL     1       6.891   5.159  19.724  0.00  0.00    +0.000 OA
ENDROOT
BRANCH   1   8
ATOM      4  C   UNL     1       6.565   4.144  13.145  0.00  0.00    +0.000 C 
ATOM      5  C   UNL     1       6.368   4.248  14.629  0.00  0.00    +0.000 A 
ATOM      6  C   UNL     1       5.271   3.633  15.243  0.00  0.00    +0.000 A 
ATOM      7  C   UNL     1       5.062   3.772  16.614  0.00  0.00    +0.000 A 
ATOM      8  C   UNL     1       5.963   4.519  17.376  0.00  0.00    +0.000 A 
ATOM      9  C   UNL     1       7.071   5.129  16.783  0.00  0.00    +0.000 A 
ATOM     10  C   UNL     1       7.270   4.991  15.407  0.00  0.00    +0.000 A 
ENDBRANCH   1   8
BRANCH   1  11
ATOM     11  N   UNL     1       4.556   5.913  19.206  0.00  0.00    +0.000 NA
ATOM     12  H   UNL     1       4.881   6.654  19.827  0.00  0.00    +0.000 HD
BRANCH  11  13
ATOM     13  C   UNL     1       3.787   6.336  18.022  0.00  0.00    +0.000 C 
BRANCH  13  14
ATOM     14  C   UNL     1       2.277   6.235  18.219  0.00  0.00    +0.000 C 
BRANCH  14  15
ATOM     15  C   UNL     1       1.867   4.906  18.800  0.00  0.00    +0.000 A 
ATOM     16  C   UNL     1       1.747   3.787  17.970  0.00  0.00    +0.000 A 
ATOM     17  C   UNL     1       1.393   2.575  18.540  0.00  0.00    +0.000 A 
ATOM     18  N   UNL     1       1.145   2.411  19.855  0.00  0.00    +0.000 NA
ATOM     19  C   UNL     1       1.261   3.507  20.636  0.00  0.00    +0.000 A 
ATOM     20  C   UNL     1       1.611   4.762  20.162  0.00  0.00    +0.000 A 
ENDBRANCH  14  15
ENDBRANCH  13  14
ENDBRANCH  11  13
ENDBRANCH   1  11
TORSDOF 5
ENDMDL
MODEL 2
REMARK VINA RESULT:      -7.1      4.429      7.168
REMARK  Name = 
REMARK  6 active torsions:
REMARK  status: ('A' for Active; 'I' for Inactive)
REMARK    1  A    between atoms: C_1  and  C_2
REMARK    2  A    between atoms: C_5  and  S_6
REMARK    3  A    between atoms: S_6  and  N_9
REMARK    4  A    between atoms: N_9  and  C_10
REMARK    5  A    between atoms: C_10  and  C_11
REMARK    6  A    between atoms: C_11  and  C_12
REMARK                            x       y       z     vdW  Elec       q    Type
REMARK                         _______ _______ _______ _____ _____    ______ ____
ROOT
ATOM      1  S   UNL     1       7.408   5.204  18.209  0.00  0.00    +0.000 S 
ATOM      2  O   UNL     1       7.815   5.241  19.595  0.00  0.00    +0.000 OA
ATOM      3  O   UNL     1       8.076   4.359  17.244  0.00  0.00    +0.000 OA
ENDROOT
BRANCH   1   8
ATOM      4  C   UNL     1       1.467   4.006  18.031  0.00  0.00    +0.000 C 
ATOM      5  C   UNL     1       2.942   4.272  18.086  0.00  0.00    +0.000 A 
ATOM      6  C   UNL     1       3.487   5.034  19.127  0.00  0.00    +0.000 A 
ATOM      7  C   UNL     1       4.849   5.323  19.151  0.00  0.00    +0.000 A 
ATOM      8  C   UNL     1       5.674   4.835  18.134  0.00  0.00    +0.000 A 
ATOM      9  C   UNL     1       5.152   4.063  17.094  0.00  0.00    +0.000 A 
ATOM     10  C   UNL     1       3.783   3.784  17.073  0.00  0.00    +0.000 A 
ENDBRANCH   1   8
BRANCH   1  11
ATOM     11  N   UNL     1       7.471   6.769  17.583  0.00  0.00    +0.000 NA
ATOM     12  H   UNL     1       6.582   7.030  17.154  0.00  0.00    +0.000 HD
BRANCH  11  13
ATOM     13  C   UNL     1       8.209   7.843  18.272  0.00  0.00    +0.000 C 
BRANCH  13  14
ATOM     14  C   UNL     1       8.064   9.202  17.594  0.00  0.00    +0.000 C 
BRANCH  14  15
ATOM     15  C   UNL     1       8.761  10.297  18.361  0.00  0.00    +0.000 A 
ATOM     16  C   UNL     1       8.832  11.588  17.828  0.00  0.00    +0.000 A 
ATOM     17  C   UNL     1       9.457  12.577  18.569  0.00  0.00    +0.000 A 
ATOM     18  N   UNL     1      10.015  12.365  19.778  0.00  0.00    +0.000 NA
ATOM     19  C   UNL     1       9.941  11.110  20.270  0.00  0.00    +0.000 A 
ATOM     20  C   UNL     1       9.335  10.053  19.607  0.00  0.00    +0.000 A 
ENDBRANCH  14  15
ENDBRANCH  13  14
ENDBRANCH  11  13
ENDBRANCH   1  11
TORSDOF 5
ENDMDL
MODEL 3
REMARK VINA RESULT:      -7.0      2.346      3.922
REMARK  Name = 
REMARK  6 active torsions:
REMARK  status: ('A' for Active; 'I' for Inactive)
REMARK    1  A    between atoms: C_1  and  C_2
REMARK    2  A    between atoms: C_5  and  S_6
REMARK    3  A    between atoms: S_6  and  N_9
REMARK    4  A    between atoms: N_9  and  C_10
REMARK    5  A    between atoms: C_10  and  C_11
REMARK    6  A    between atoms: C_11  and  C_12
REMARK                            x       y       z     vdW  Elec       q    Type
REMARK                         _______ _______ _______ _____ _____    ______ ____
ROOT
ATOM      1  S   UNL     1       5.791   4.593  18.196  0.00  0.00    +0.000 S 
ATOM      2  O   UNL     1       6.985   5.148  17.599  0.00  0.00    +0.000 OA
ATOM      3  O   UNL     1       5.821   3.947  19.490  0.00  0.00    +0.000 OA
ENDROOT
BRANCH   1   8
ATOM      4  C   UNL     1       1.502   8.868  18.491  0.00  0.00    +0.000 C 
ATOM      5  C   UNL     1       2.546   7.794  18.395  0.00  0.00    +0.000 A 
ATOM      6  C   UNL     1       2.634   6.802  19.379  0.00  0.00    +0.000 A 
ATOM      7  C   UNL     1       3.635   5.834  19.315  0.00  0.00    +0.000 A 
ATOM      8  C   UNL     1       4.545   5.853  18.256  0.00  0.00    +0.000 A 
ATOM      9  C   UNL     1       4.466   6.828  17.259  0.00  0.00    +0.000 A 
ATOM     10  C   UNL     1       3.463   7.799  17.332  0.00  0.00    +0.000 A 
ENDBRANCH   1   8
BRANCH   1  11
ATOM     11  N   UNL     1       5.121   3.472  17.129  0.00  0.00    +0.000 NA
ATOM     12  H   UNL     1       5.670   2.612  17.105  0.00  0.00    +0.000 HD
BRANCH  11  13
ATOM     13  C   UNL     1       3.661   3.325  16.987  0.00  0.00    +0.000 C 
BRANCH  13  14
ATOM     14  C   UNL     1       3.103   2.118  17.736  0.00  0.00    +0.000 C 
BRANCH  14  15
ATOM     15  C   UNL     1       2.473   2.505  19.049  0.00  0.00    +0.000 A 
ATOM     16  C   UNL     1       3.162   2.286  20.246  0.00  0.00    +0.000 A 
ATOM     17  C   UNL     1       2.565   2.676  21.434  0.00  0.00    +0.000 A 
ATOM     18  N   UNL     1       1.346   3.248  21.506  0.00  0.00    +0.000 NA
ATOM     19  C   UNL     1       0.697   3.443  20.338  0.00  0.00    +0.000 A 
ATOM     20  C   UNL     1       1.210   3.090  19.099  0.00  0.00    +0.000 A 
ENDBRANCH  14  15
ENDBRANCH  13  14
ENDBRANCH  11  13
ENDBRANCH   1  11
TORSDOF 5
ENDMDL
MODEL 4
REMARK VINA RESULT:      -7.0      4.607      7.392
REMARK  Name = 
REMARK  6 active torsions:
REMARK  status: ('A' for Active; 'I' for Inactive)
REMARK    1  A    between atoms: C_1  and  C_2
REMARK    2  A    between atoms: C_5  and  S_6
REMARK    3  A    between atoms: S_6  and  N_9
REMARK    4  A    between atoms: N_9  and  C_10
REMARK    5  A    between atoms: C_10  and  C_11
REMARK    6  A    between atoms: C_11  and  C_12
REMARK                            x       y       z     vdW  Elec       q    Type
REMARK                         _______ _______ _______ _____ _____    ______ ____
ROOT
ATOM      1  S   UNL     1       7.350   5.459  18.556  0.00  0.00    +0.000 S 
ATOM      2  O   UNL     1       7.617   5.527  19.975  0.00  0.00    +0.000 OA
ATOM      3  O   UNL     1       8.073   4.553  17.691  0.00  0.00    +0.000 OA
ENDROOT
BRANCH   1   8
ATOM      4  C   UNL     1       1.439   4.351  17.784  0.00  0.00    +0.000 C 
ATOM      5  C   UNL     1       2.907   4.620  17.943  0.00  0.00    +0.000 A 
ATOM      6  C   UNL     1       3.751   3.646  18.488  0.00  0.00    +0.000 A 
ATOM      7  C   UNL     1       5.104   3.914  18.682  0.00  0.00    +0.000 A 
ATOM      8  C   UNL     1       5.618   5.160  18.316  0.00  0.00    +0.000 A 
ATOM      9  C   UNL     1       4.795   6.141  17.759  0.00  0.00    +0.000 A 
ATOM     10  C   UNL     1       3.437   5.867  17.574  0.00  0.00    +0.000 A 
ENDBRANCH   1   8
BRANCH   1  11
ATOM     11  N   UNL     1       7.547   6.997  17.892  0.00  0.00    +0.000 NA
ATOM     12  H   UNL     1       6.696   7.306  17.422  0.00  0.00    +0.000 HD
BRANCH  11  13
ATOM     13  C   UNL     1       8.332   8.036  18.582  0.00  0.00    +0.000 C 
BRANCH  13  14
ATOM     14  C   UNL     1       8.362   9.364  17.831  0.00  0.00    +0.000 C 
BRANCH  14  15
ATOM     15  C   UNL     1       9.163  10.412  18.560  0.00  0.00    +0.000 A 
ATOM     16  C   UNL     1       9.216  10.405  19.957  0.00  0.00    +0.000 A 
ATOM     17  C   UNL     1       9.982  11.367  20.596  0.00  0.00    +0.000 A 
ATOM     18  N   UNL     1      10.675  12.323  19.946  0.00  0.00    +0.000 NA
ATOM     19  C   UNL     1      10.604  12.314  18.598  0.00  0.00    +0.000 A 
ATOM     20  C   UNL     1       9.868  11.394  17.867  0.00  0.00    +0.000 A 
ENDBRANCH  14  15
ENDBRANCH  13  14
ENDBRANCH  11  13
ENDBRANCH   1  11
TORSDOF 5
ENDMDL
MODEL 5
REMARK VINA RESULT:      -7.0      1.104      1.685
REMARK  Name = 
REMARK  6 active torsions:
REMARK  status: ('A' for Active; 'I' for Inactive)
REMARK    1  A    between atoms: C_1  and  C_2
REMARK    2  A    between atoms: C_5  and  S_6
REMARK    3  A    between atoms: S_6  and  N_9
REMARK    4  A    between atoms: N_9  and  C_10
REMARK    5  A    between atoms: C_10  and  C_11
REMARK    6  A    between atoms: C_11  and  C_12
REMARK                            x       y       z     vdW  Elec       q    Type
REMARK                         _______ _______ _______ _____ _____    ______ ____
ROOT
ATOM      1  S   UNL     1       6.754   5.440  17.950  0.00  0.00    +0.000 S 
ATOM      2  O   UNL     1       7.754   4.622  18.598  0.00  0.00    +0.000 OA
ATOM      3  O   UNL     1       6.891   6.876  17.860  0.00  0.00    +0.000 OA
ENDROOT
BRANCH   1   8
ATOM      4  C   UNL     1       5.940   3.377  12.307  0.00  0.00    +0.000 C 
ATOM      5  C   UNL     1       6.116   3.908  13.699  0.00  0.00    +0.000 A 
ATOM      6  C   UNL     1       7.153   4.802  13.990  0.00  0.00    +0.000 A 
ATOM      7  C   UNL     1       7.347   5.256  15.293  0.00  0.00    +0.000 A 
ATOM      8  C   UNL     1       6.490   4.823  16.308  0.00  0.00    +0.000 A 
ATOM      9  C   UNL     1       5.443   3.941  16.035  0.00  0.00    +0.000 A 
ATOM     10  C   UNL     1       5.259   3.484  14.727  0.00  0.00    +0.000 A 
ENDBRANCH   1   8
BRANCH   1  11
ATOM     11  N   UNL     1       5.262   5.157  18.685  0.00  0.00    +0.000 NA
ATOM     12  H   UNL     1       5.364   4.562  19.508  0.00  0.00    +0.000 HD
BRANCH  11  13
ATOM     13  C   UNL     1       4.230   6.206  18.756  0.00  0.00    +0.000 C 
BRANCH  13  14
ATOM     14  C   UNL     1       2.951   5.842  18.008  0.00  0.00    +0.000 C 
BRANCH  14  15
ATOM     15  C   UNL     1       2.182   4.745  18.697  0.00  0.00    +0.000 A 
ATOM     16  C   UNL     1       1.797   3.606  17.983  0.00  0.00    +0.000 A 
ATOM     17  C   UNL     1       1.112   2.605  18.652  0.00  0.00    +0.000 A 
ATOM     18  N   UNL     1       0.783   2.668  19.958  0.00  0.00    +0.000 NA
ATOM     19  C   UNL     1       1.159   3.779  20.626  0.00  0.00    +0.000 A 
ATOM     20  C   UNL     1       1.848   4.835  20.047  0.00  0.00    +0.000 A 
ENDBRANCH  14  15
ENDBRANCH  13  14
ENDBRANCH  11  13
ENDBRANCH   1  11
TORSDOF 5
ENDMDL
MODEL 6
REMARK VINA RESULT:      -6.9      2.366      3.930
REMARK  Name = 
REMARK  6 active torsions:
REMARK  status: ('A' for Active; 'I' for Inactive)
REMARK    1  A    between atoms: C_1  and  C_2
REMARK    2  A    between atoms: C_5  and  S_6
REMARK    3  A    between atoms: S_6  and  N_9
REMARK    4  A    between atoms: N_9  and  C_10
REMARK    5  A    between atoms: C_10  and  C_11
REMARK    6  A    between atoms: C_11  and  C_12
REMARK                            x       y       z     vdW  Elec       q    Type
REMARK                         _______ _______ _______ _____ _____    ______ ____
ROOT
ATOM      1  S   UNL     1       5.818   4.721  18.044  0.00  0.00    +0.000 S 
ATOM      2  O   UNL     1       6.890   5.281  17.254  0.00  0.00    +0.000 OA
ATOM      3  O   UNL     1       6.055   4.163  19.358  0.00  0.00    +0.000 OA
ENDROOT
BRANCH   1   8
ATOM      4  C   UNL     1       1.402   8.827  18.676  0.00  0.00    +0.000 C 
ATOM      5  C   UNL     1       2.476   7.795  18.498  0.00  0.00    +0.000 A 
ATOM      6  C   UNL     1       2.665   6.795  19.459  0.00  0.00    +0.000 A 
ATOM      7  C   UNL     1       3.694   5.867  19.318  0.00  0.00    +0.000 A 
ATOM      8  C   UNL     1       4.532   5.932  18.202  0.00  0.00    +0.000 A 
ATOM      9  C   UNL     1       4.352   6.915  17.226  0.00  0.00    +0.000 A 
ATOM     10  C   UNL     1       3.322   7.846  17.378  0.00  0.00    +0.000 A 
ENDBRANCH   1   8
BRANCH   1  11
ATOM     11  N   UNL     1       5.062   3.506  17.151  0.00  0.00    +0.000 NA
ATOM     12  H   UNL     1       5.517   2.604  17.297  0.00  0.00    +0.000 HD
BRANCH  11  13
ATOM     13  C   UNL     1       3.600   3.484  16.969  0.00  0.00    +0.000 C 
BRANCH  13  14
ATOM     14  C   UNL     1       2.929   2.286  17.635  0.00  0.00    +0.000 C 
BRANCH  14  15
ATOM     15  C   UNL     1       2.464   2.598  19.034  0.00  0.00    +0.000 A 
ATOM     16  C   UNL     1       1.195   3.147  19.242  0.00  0.00    +0.000 A 
ATOM     17  C   UNL     1       0.788   3.400  20.542  0.00  0.00    +0.000 A 
ATOM     18  N   UNL     1       1.553   3.157  21.625  0.00  0.00    +0.000 NA
ATOM     19  C   UNL     1       2.777   2.634  21.399  0.00  0.00    +0.000 A 
ATOM     20  C   UNL     1       3.275   2.344  20.138  0.00  0.00    +0.000 A 
ENDBRANCH  14  15
ENDBRANCH  13  14
ENDBRANCH  11  13
ENDBRANCH   1  11
TORSDOF 5
ENDMDL
MODEL 7
REMARK VINA RESULT:      -6.9      2.633      5.396
REMARK  Name = 
REMARK  6 active torsions:
REMARK  status: ('A' for Active; 'I' for Inactive)
REMARK    1  A    between atoms: C_1  and  C_2
REMARK    2  A    between atoms: C_5  and  S_6
REMARK    3  A    between atoms: S_6  and  N_9
REMARK    4  A    between atoms: N_9  and  C_10
REMARK    5  A    between atoms: C_10  and  C_11
REMARK    6  A    between atoms: C_11  and  C_12
REMARK                            x       y       z     vdW  Elec       q    Type
REMARK                         _______ _______ _______ _____ _____    ______ ____
ROOT
ATOM      1  S   UNL     1       1.704   2.970  19.962  0.00  0.00    +0.000 S 
ATOM      2  O   UNL     1       1.098   3.013  21.274  0.00  0.00    +0.000 OA
ATOM      3  O   UNL     1       1.129   2.192  18.887  0.00  0.00    +0.000 OA
ENDROOT
BRANCH   1   8
ATOM      4  C   UNL     1       2.419   8.676  18.041  0.00  0.00    +0.000 C 
ATOM      5  C   UNL     1       2.210   7.267  18.512  0.00  0.00    +0.000 A 
ATOM      6  C   UNL     1       2.261   6.961  19.877  0.00  0.00    +0.000 A 
ATOM      7  C   UNL     1       2.116   5.645  20.310  0.00  0.00    +0.000 A 
ATOM      8  C   UNL     1       1.906   4.630  19.373  0.00  0.00    +0.000 A 
ATOM      9  C   UNL     1       1.839   4.917  18.007  0.00  0.00    +0.000 A 
ATOM     10  C   UNL     1       1.992   6.239  17.580  0.00  0.00    +0.000 A 
ENDBRANCH   1   8
BRANCH   1  11
ATOM     11  N   UNL     1       3.300   2.446  20.118  0.00  0.00    +0.000 NA
ATOM     12  H   UNL     1       3.352   1.581  20.658  0.00  0.00    +0.000 HD
BRANCH  11  13
ATOM     13  C   UNL     1       4.267   2.593  19.016  0.00  0.00    +0.000 C 
BRANCH  13  14
ATOM     14  C   UNL     1       5.224   3.766  19.210  0.00  0.00    +0.000 C 
BRANCH  14  15
ATOM     15  C   UNL     1       5.354   4.606  17.965  0.00  0.00    +0.000 A 
ATOM     16  C   UNL     1       5.175   4.022  16.707  0.00  0.00    +0.000 A 
ATOM     17  C   UNL     1       5.277   4.827  15.584  0.00  0.00    +0.000 A 
ATOM     18  N   UNL     1       5.551   6.145  15.631  0.00  0.00    +0.000 NA
ATOM     19  C   UNL     1       5.726   6.686  16.856  0.00  0.00    +0.000 A 
ATOM     20  C   UNL     1       5.643   5.966  18.039  0.00  0.00    +0.000 A 
ENDBRANCH  14  15
ENDBRANCH  13  14
ENDBRANCH  11  13
ENDBRANCH   1  11
TORSDOF 5
ENDMDL
MODEL 8
REMARK VINA RESULT:      -6.9      2.406      3.866
REMARK  Name = 
REMARK  6 active torsions:
REMARK  status: ('A' for Active; 'I' for Inactive)
REMARK    1  A    between atoms: C_1  and  C_2
REMARK    2  A    between atoms: C_5  and  S_6
REMARK    3  A    between atoms: S_6  and  N_9
REMARK    4  A    between atoms: N_9  and  C_10
REMARK    5  A    between atoms: C_10  and  C_11
REMARK    6  A    between atoms: C_11  and  C_12
REMARK                            x       y       z     vdW  Elec       q    Type
REMARK                         _______ _______ _______ _____ _____    ______ ____
ROOT
ATOM      1  S   UNL     1       3.161   2.374  18.288  0.00  0.00    +0.000 S 
ATOM      2  O   UNL     1       2.124   2.527  17.293  0.00  0.00    +0.000 OA
ATOM      3  O   UNL     1       3.881   1.131  18.450  0.00  0.00    +0.000 OA
ENDROOT
BRANCH   1   8
ATOM      4  C   UNL     1       7.292   6.761  17.615  0.00  0.00    +0.000 C 
ATOM      5  C   UNL     1       6.246   5.698  17.780  0.00  0.00    +0.000 A 
ATOM      6  C   UNL     1       6.002   5.133  19.038  0.00  0.00    +0.000 A 
ATOM      7  C   UNL     1       5.066   4.112  19.182  0.00  0.00    +0.000 A 
ATOM      8  C   UNL     1       4.361   3.662  18.063  0.00  0.00    +0.000 A 
ATOM      9  C   UNL     1       4.581   4.221  16.802  0.00  0.00    +0.000 A 
ATOM     10  C   UNL     1       5.526   5.241  16.665  0.00  0.00    +0.000 A 
ENDBRANCH   1   8
BRANCH   1  11
ATOM     11  N   UNL     1       2.518   2.742  19.804  0.00  0.00    +0.000 NA
ATOM     12  H   UNL     1       3.231   2.684  20.531  0.00  0.00    +0.000 HD
BRANCH  11  13
ATOM     13  C   UNL     1       1.493   3.789  19.969  0.00  0.00    +0.000 C 
BRANCH  13  14
ATOM     14  C   UNL     1       1.938   4.926  20.885  0.00  0.00    +0.000 C 
BRANCH  14  15
ATOM     15  C   UNL     1       1.962   6.254  20.172  0.00  0.00    +0.000 A 
ATOM     16  C   UNL     1       2.321   6.316  18.822  0.00  0.00    +0.000 A 
ATOM     17  C   UNL     1       2.309   7.549  18.190  0.00  0.00    +0.000 A 
ATOM     18  N   UNL     1       1.980   8.702  18.806  0.00  0.00    +0.000 NA
ATOM     19  C   UNL     1       1.643   8.618  20.111  0.00  0.00    +0.000 A 
ATOM     20  C   UNL     1       1.623   7.433  20.831  0.00  0.00    +0.000 A 
ENDBRANCH  14  15
ENDBRANCH  13  14
ENDBRANCH  11  13
ENDBRANCH   1  11
TORSDOF 5
ENDMDL
MODEL 9
REMARK VINA RESULT:      -6.8      4.601      7.363
REMARK  Name = 
REMARK  6 active torsions:
REMARK  status: ('A' for Active; 'I' for Inactive)
REMARK    1  A    between atoms: C_1  and  C_2
REMARK    2  A    between atoms: C_5  and  S_6
REMARK    3  A    between atoms: S_6  and  N_9
REMARK    4  A    between atoms: N_9  and  C_10
REMARK    5  A    between atoms: C_10  and  C_11
REMARK    6  A    between atoms: C_11  and  C_12
REMARK                            x       y       z     vdW  Elec       q    Type
REMARK                         _______ _______ _______ _____ _____    ______ ____
ROOT
ATOM      1  S   UNL     1       7.231   5.574  17.717  0.00  0.00    +0.000 S 
ATOM      2  O   UNL     1       7.791   5.211  18.998  0.00  0.00    +0.000 OA
ATOM      3  O   UNL     1       7.790   5.081  16.477  0.00  0.00    +0.000 OA
ENDROOT
BRANCH   1   8
ATOM      4  C   UNL     1       1.341   4.135  17.683  0.00  0.00    +0.000 C 
ATOM      5  C   UNL     1       2.793   4.513  17.667  0.00  0.00    +0.000 A 
ATOM      6  C   UNL     1       3.738   3.672  17.067  0.00  0.00    +0.000 A 
ATOM      7  C   UNL     1       5.092   3.998  17.096  0.00  0.00    +0.000 A 
ATOM      8  C   UNL     1       5.502   5.180  17.718  0.00  0.00    +0.000 A 
ATOM      9  C   UNL     1       4.574   6.038  18.313  0.00  0.00    +0.000 A 
ATOM     10  C   UNL     1       3.218   5.700  18.285  0.00  0.00    +0.000 A 
ENDBRANCH   1   8
BRANCH   1  11
ATOM     11  N   UNL     1       7.218   7.256  17.587  0.00  0.00    +0.000 NA
ATOM     12  H   UNL     1       6.270   7.624  17.677  0.00  0.00    +0.000 HD
BRANCH  11  13
ATOM     13  C   UNL     1       8.300   8.078  18.156  0.00  0.00    +0.000 C 
BRANCH  13  14
ATOM     14  C   UNL     1       8.094   9.575  17.941  0.00  0.00    +0.000 C 
BRANCH  14  15
ATOM     15  C   UNL     1       9.175  10.397  18.595  0.00  0.00    +0.000 A 
ATOM     16  C   UNL     1      10.172  10.989  17.814  0.00  0.00    +0.000 A 
ATOM     17  C   UNL     1      11.136  11.759  18.444  0.00  0.00    +0.000 A 
ATOM     18  N   UNL     1      11.177  11.965  19.775  0.00  0.00    +0.000 NA
ATOM     19  C   UNL     1      10.207  11.379  20.510  0.00  0.00    +0.000 A 
ATOM     20  C   UNL     1       9.199  10.592  19.974  0.00  0.00    +0.000 A 
ENDBRANCH  14  15
ENDBRANCH  13  14
ENDBRANCH  11  13
ENDBRANCH   1  11
TORSDOF 5
ENDMDL
