MODEL 1
REMARK VINA RESULT:      -6.5      0.000      0.000
REMARK  Name = 
REMARK  6 active torsions:
REMARK  status: ('A' for Active; 'I' for Inactive)
REMARK    1  A    between atoms: C_1  and  C_2
REMARK    2  A    between atoms: N_13  and  C_14
REMARK    3  A    between atoms: C_14  and  C_15
REMARK    4  A    between atoms: C_15  and  N_16
REMARK    5  A    between atoms: N_16  and  C_17
REMARK    6  A    between atoms: N_16  and  C_18
REMARK                            x       y       z     vdW  Elec       q    Type
REMARK                         _______ _______ _______ _____ _____    ______ ____
ROOT
ATOM      1  C   UNL     1      -2.802  12.389  23.510  0.00  0.00    +0.000 C 
ATOM      2  C   UNL     1      -1.725  11.650  22.798  0.00  0.00    +0.000 A 
ATOM      3  C   UNL     1      -1.217  10.451  23.238  0.00  0.00    +0.000 A 
ATOM      4  N   UNL     1      -0.282   9.742  22.576  0.00  0.00    +0.000 NA
ATOM      5  C   UNL     1       0.175  10.245  21.417  0.00  0.00    +0.000 A 
ATOM      6  N   UNL     1       1.112   9.526  20.715  0.00  0.00    +0.000 N 
ATOM      7  C   UNL     1       1.281   9.798  19.285  0.00  0.00    +0.000 C 
ATOM      8  C   UNL     1       1.738   8.455  18.694  0.00  0.00    +0.000 C 
ATOM      9  O   UNL     1       2.813   8.554  17.762  0.00  0.00    +0.000 OA
ATOM     10  C   UNL     1       3.236   7.247  17.372  0.00  0.00    +0.000 C 
ATOM     11  C   UNL     1       3.178   6.052  18.373  0.00  0.00    +0.000 C 
ATOM     12  O   UNL     1       3.729   4.983  18.109  0.00  0.00    +0.000 OA
ATOM     13  N   UNL     1       2.417   6.267  19.530  0.00  0.00    +0.000 N 
ATOM     14  C   UNL     1       2.237   7.665  19.908  0.00  0.00    +0.000 C 
ATOM     15  C   UNL     1       1.250   8.098  20.990  0.00  0.00    +0.000 C 
ATOM     16  N   UNL     1      -0.242  11.422  20.922  0.00  0.00    +0.000 NA
ATOM     17  C   UNL     1      -1.181  12.095  21.617  0.00  0.00    +0.000 A 
ENDROOT
BRANCH  13  18
ATOM     18  C   UNL     1       2.243   5.181  20.498  0.00  0.00    +0.000 C 
BRANCH  18  19
ATOM     19  C   UNL     1       0.911   4.398  20.378  0.00  0.00    +0.000 C 
BRANCH  19  20
ATOM     20  N   UNL     1       0.988   2.920  20.413  0.00  0.00    +0.000 NA
ATOM     21  C   UNL     1       1.706   2.385  19.250  0.00  0.00    +0.000 C 
ATOM     22  C   UNL     1       1.670   2.489  21.641  0.00  0.00    +0.000 C 
ENDBRANCH  19  20
ENDBRANCH  18  19
ENDBRANCH  13  18
TORSDOF 3
ENDMDL
MODEL 2
REMARK VINA RESULT:      -6.2      1.468      1.830
REMARK  Name = 
REMARK  6 active torsions:
REMARK  status: ('A' for Active; 'I' for Inactive)
REMARK    1  A    between atoms: C_1  and  C_2
REMARK    2  A    between atoms: N_13  and  C_14
REMARK    3  A    between atoms: C_14  and  C_15
REMARK    4  A    between atoms: C_15  and  N_16
REMARK    5  A    between atoms: N_16  and  C_17
REMARK    6  A    between atoms: N_16  and  C_18
REMARK                            x       y       z     vdW  Elec       q    Type
REMARK                         _______ _______ _______ _____ _____    ______ ____
ROOT
ATOM      1  C   UNL     1      -2.394  12.689  20.167  0.00  0.00    +0.000 C 
ATOM      2  C   UNL     1      -1.252  11.763  19.939  0.00  0.00    +0.000 A 
ATOM      3  C   UNL     1      -0.893  10.779  20.828  0.00  0.00    +0.000 A 
ATOM      4  N   UNL     1       0.103   9.896  20.612  0.00  0.00    +0.000 NA
ATOM      5  C   UNL     1       0.780   9.994  19.456  0.00  0.00    +0.000 A 
ATOM      6  N   UNL     1       1.784   9.091  19.206  0.00  0.00    +0.000 N 
ATOM      7  C   UNL     1       2.212   8.879  17.821  0.00  0.00    +0.000 C 
ATOM      8  C   UNL     1       2.691   7.419  17.789  0.00  0.00    +0.000 C 
ATOM      9  O   UNL     1       3.914   7.213  17.086  0.00  0.00    +0.000 OA
ATOM     10  C   UNL     1       4.327   5.853  17.224  0.00  0.00    +0.000 C 
ATOM     11  C   UNL     1       4.033   5.052  18.530  0.00  0.00    +0.000 C 
ATOM     12  O   UNL     1       4.563   3.959  18.730  0.00  0.00    +0.000 OA
ATOM     13  N   UNL     1       3.096   5.631  19.397  0.00  0.00    +0.000 N 
ATOM     14  C   UNL     1       2.929   7.074  19.263  0.00  0.00    +0.000 C 
ATOM     15  C   UNL     1       1.795   7.833  19.949  0.00  0.00    +0.000 C 
ATOM     16  N   UNL     1       0.518  10.941  18.540  0.00  0.00    +0.000 NA
ATOM     17  C   UNL     1      -0.489  11.800  18.797  0.00  0.00    +0.000 A 
ENDROOT
BRANCH  13  18
ATOM     18  C   UNL     1       2.699   4.921  20.616  0.00  0.00    +0.000 C 
BRANCH  18  19
ATOM     19  C   UNL     1       1.254   4.361  20.612  0.00  0.00    +0.000 C 
BRANCH  19  20
ATOM     20  N   UNL     1       1.097   2.891  20.668  0.00  0.00    +0.000 NA
ATOM     21  C   UNL     1       1.381   2.264  19.371  0.00  0.00    +0.000 C 
ATOM     22  C   UNL     1       2.003   2.333  21.681  0.00  0.00    +0.000 C 
ENDBRANCH  19  20
ENDBRANCH  18  19
ENDBRANCH  13  18
TORSDOF 3
ENDMDL
MODEL 3
REMARK VINA RESULT:      -6.2      2.528      4.385
REMARK  Name = 
REMARK  6 active torsions:
REMARK  status: ('A' for Active; 'I' for Inactive)
REMARK    1  A    between atoms: C_1  and  C_2
REMARK    2  A    between atoms: N_13  and  C_14
REMARK    3  A    between atoms: C_14  and  C_15
REMARK    4  A    between atoms: C_15  and  N_16
REMARK    5  A    between atoms: N_16  and  C_17
REMARK    6  A    between atoms: N_16  and  C_18
REMARK                            x       y       z     vdW  Elec       q    Type
REMARK                         _______ _______ _______ _____ _____    ______ ____
ROOT
ATOM      1  C   UNL     1       1.040  13.792  19.860  0.00  0.00    +0.000 C 
ATOM      2  C   UNL     1       1.162  12.328  19.627  0.00  0.00    +0.000 A 
ATOM      3  C   UNL     1       1.776  11.791  18.521  0.00  0.00    +0.000 A 
ATOM      4  N   UNL     1       1.945  10.468  18.322  0.00  0.00    +0.000 NA
ATOM      5  C   UNL     1       1.479   9.633  19.267  0.00  0.00    +0.000 A 
ATOM      6  N   UNL     1       1.661   8.283  19.094  0.00  0.00    +0.000 N 
ATOM      7  C   UNL     1       1.591   7.408  20.266  0.00  0.00    +0.000 C 
ATOM      8  C   UNL     1       2.528   6.238  19.926  0.00  0.00    +0.000 C 
ATOM      9  O   UNL     1       2.008   4.950  20.247  0.00  0.00    +0.000 OA
ATOM     10  C   UNL     1       2.900   3.938  19.779  0.00  0.00    +0.000 C 
ATOM     11  C   UNL     1       3.732   4.141  18.475  0.00  0.00    +0.000 C 
ATOM     12  O   UNL     1       4.338   3.200  17.962  0.00  0.00    +0.000 OA
ATOM     13  N   UNL     1       3.783   5.454  17.987  0.00  0.00    +0.000 N 
ATOM     14  C   UNL     1       2.683   6.318  18.403  0.00  0.00    +0.000 C 
ATOM     15  C   UNL     1       2.697   7.828  18.169  0.00  0.00    +0.000 C 
ATOM     16  N   UNL     1       0.841  10.066  20.366  0.00  0.00    +0.000 NA
ATOM     17  C   UNL     1       0.699  11.397  20.525  0.00  0.00    +0.000 A 
ENDROOT
BRANCH  13  18
ATOM     18  C   UNL     1       4.596   5.760  16.807  0.00  0.00    +0.000 C 
BRANCH  18  19
ATOM     19  C   UNL     1       5.890   6.565  17.089  0.00  0.00    +0.000 C 
BRANCH  19  20
ATOM     20  N   UNL     1       6.852   5.987  18.054  0.00  0.00    +0.000 NA
ATOM     21  C   UNL     1       7.445   4.741  17.551  0.00  0.00    +0.000 C 
ATOM     22  C   UNL     1       7.923   6.954  18.327  0.00  0.00    +0.000 C 
ENDBRANCH  19  20
ENDBRANCH  18  19
ENDBRANCH  13  18
TORSDOF 3
ENDMDL
MODEL 4
REMARK VINA RESULT:      -6.2      2.750      7.354
REMARK  Name = 
REMARK  6 active torsions:
REMARK  status: ('A' for Active; 'I' for Inactive)
REMARK    1  A    between atoms: C_1  and  C_2
REMARK    2  A    between atoms: N_13  and  C_14
REMARK    3  A    between atoms: C_14  and  C_15
REMARK    4  A    between atoms: C_15  and  N_16
REMARK    5  A    between atoms: N_16  and  C_17
REMARK    6  A    between atoms: N_16  and  C_18
REMARK                            x       y       z     vdW  Elec       q    Type
REMARK                         _______ _______ _______ _____ _____    ______ ____
ROOT
ATOM      1  C   UNL     1       3.278   3.826  17.640  0.00  0.00    +0.000 C 
ATOM      2  C   UNL     1       2.871   5.017  18.434  0.00  0.00    +0.000 A 
ATOM      3  C   UNL     1       2.915   6.299  17.942  0.00  0.00    +0.000 A 
ATOM      4  N   UNL     1       2.498   7.382  18.628  0.00  0.00    +0.000 NA
ATOM      5  C   UNL     1       2.013   7.186  19.865  0.00  0.00    +0.000 A 
ATOM      6  N   UNL     1       1.562   8.274  20.572  0.00  0.00    +0.000 N 
ATOM      7  C   UNL     1       0.636   8.055  21.686  0.00  0.00    +0.000 C 
ATOM      8  C   UNL     1      -0.215   9.335  21.732  0.00  0.00    +0.000 C 
ATOM      9  O   UNL     1      -0.426   9.857  23.042  0.00  0.00    +0.000 OA
ATOM     10  C   UNL     1      -1.117  11.103  22.959  0.00  0.00    +0.000 C 
ATOM     11  C   UNL     1      -0.884  12.073  21.759  0.00  0.00    +0.000 C 
ATOM     12  O   UNL     1      -1.316  13.226  21.789  0.00  0.00    +0.000 OA
ATOM     13  N   UNL     1      -0.220  11.522  20.655  0.00  0.00    +0.000 N 
ATOM     14  C   UNL     1       0.610  10.357  20.944  0.00  0.00    +0.000 C 
ATOM     15  C   UNL     1       1.212   9.489  19.840  0.00  0.00    +0.000 C 
ATOM     16  N   UNL     1       1.957   5.973  20.439  0.00  0.00    +0.000 NA
ATOM     17  C   UNL     1       2.382   4.918  19.714  0.00  0.00    +0.000 A 
ENDROOT
BRANCH  13  18
ATOM     18  C   UNL     1      -0.015  12.332  19.452  0.00  0.00    +0.000 C 
BRANCH  18  19
ATOM     19  C   UNL     1      -1.070  12.132  18.335  0.00  0.00    +0.000 C 
BRANCH  19  20
ATOM     20  N   UNL     1      -2.072  11.062  18.533  0.00  0.00    +0.000 NA
ATOM     21  C   UNL     1      -3.442  11.561  18.366  0.00  0.00    +0.000 C 
ATOM     22  C   UNL     1      -1.835   9.976  17.572  0.00  0.00    +0.000 C 
ENDBRANCH  19  20
ENDBRANCH  18  19
ENDBRANCH  13  18
TORSDOF 3
ENDMDL
MODEL 5
REMARK VINA RESULT:      -6.1      2.807      4.867
REMARK  Name = 
REMARK  6 active torsions:
REMARK  status: ('A' for Active; 'I' for Inactive)
REMARK    1  A    between atoms: C_1  and  C_2
REMARK    2  A    between atoms: N_13  and  C_14
REMARK    3  A    between atoms: C_14  and  C_15
REMARK    4  A    between atoms: C_15  and  N_16
REMARK    5  A    between atoms: N_16  and  C_17
REMARK    6  A    between atoms: N_16  and  C_18
REMARK                            x       y       z     vdW  Elec       q    Type
REMARK                         _______ _______ _______ _____ _____    ______ ____
ROOT
ATOM      1  C   UNL     1       1.210  12.597  18.687  0.00  0.00    +0.000 C 
ATOM      2  C   UNL     1       1.370  11.122  18.788  0.00  0.00    +0.000 A 
ATOM      3  C   UNL     1       2.227  10.402  17.990  0.00  0.00    +0.000 A 
ATOM      4  N   UNL     1       2.425   9.073  18.106  0.00  0.00    +0.000 NA
ATOM      5  C   UNL     1       1.739   8.423  19.061  0.00  0.00    +0.000 A 
ATOM      6  N   UNL     1       1.944   7.073  19.210  0.00  0.00    +0.000 N 
ATOM      7  C   UNL     1       1.587   6.444  20.484  0.00  0.00    +0.000 C 
ATOM      8  C   UNL     1       2.568   5.268  20.616  0.00  0.00    +0.000 C 
ATOM      9  O   UNL     1       1.974   4.049  21.057  0.00  0.00    +0.000 OA
ATOM     10  C   UNL     1       2.943   3.001  21.026  0.00  0.00    +0.000 C 
ATOM     11  C   UNL     1       4.065   2.975  19.942  0.00  0.00    +0.000 C 
ATOM     12  O   UNL     1       4.767   1.975  19.786  0.00  0.00    +0.000 OA
ATOM     13  N   UNL     1       4.243   4.167  19.228  0.00  0.00    +0.000 N 
ATOM     14  C   UNL     1       3.084   5.053  19.190  0.00  0.00    +0.000 C 
ATOM     15  C   UNL     1       3.167   6.486  18.668  0.00  0.00    +0.000 C 
ATOM     16  N   UNL     1       0.861   9.038  19.869  0.00  0.00    +0.000 NA
ATOM     17  C   UNL     1       0.697  10.368  19.720  0.00  0.00    +0.000 A 
ENDROOT
BRANCH  13  18
ATOM     18  C   UNL     1       5.318   4.266  18.237  0.00  0.00    +0.000 C 
BRANCH  18  19
ATOM     19  C   UNL     1       4.870   4.117  16.761  0.00  0.00    +0.000 C 
BRANCH  19  20
ATOM     20  N   UNL     1       5.593   4.918  15.748  0.00  0.00    +0.000 NA
ATOM     21  C   UNL     1       6.993   5.142  16.129  0.00  0.00    +0.000 C 
ATOM     22  C   UNL     1       5.550   4.232  14.450  0.00  0.00    +0.000 C 
ENDBRANCH  19  20
ENDBRANCH  18  19
ENDBRANCH  13  18
TORSDOF 3
ENDMDL
MODEL 6
REMARK VINA RESULT:      -6.1      2.721      4.775
REMARK  Name = 
REMARK  6 active torsions:
REMARK  status: ('A' for Active; 'I' for Inactive)
REMARK    1  A    between atoms: C_1  and  C_2
REMARK    2  A    between atoms: N_13  and  C_14
REMARK    3  A    between atoms: C_14  and  C_15
REMARK    4  A    between atoms: C_15  and  N_16
REMARK    5  A    between atoms: N_16  and  C_17
REMARK    6  A    between atoms: N_16  and  C_18
REMARK                            x       y       z     vdW  Elec       q    Type
REMARK                         _______ _______ _______ _____ _____    ______ ____
ROOT
ATOM      1  C   UNL     1       1.475  12.709  18.801  0.00  0.00    +0.000 C 
ATOM      2  C   UNL     1       1.477  11.226  18.910  0.00  0.00    +0.000 A 
ATOM      3  C   UNL     1       1.893  10.398  17.895  0.00  0.00    +0.000 A 
ATOM      4  N   UNL     1       1.954   9.056  17.996  0.00  0.00    +0.000 NA
ATOM      5  C   UNL     1       1.583   8.503  19.163  0.00  0.00    +0.000 A 
ATOM      6  N   UNL     1       1.659   7.137  19.294  0.00  0.00    +0.000 N 
ATOM      7  C   UNL     1       1.709   6.562  20.640  0.00  0.00    +0.000 C 
ATOM      8  C   UNL     1       2.518   5.266  20.471  0.00  0.00    +0.000 C 
ATOM      9  O   UNL     1       1.976   4.136  21.152  0.00  0.00    +0.000 OA
ATOM     10  C   UNL     1       2.731   2.969  20.828  0.00  0.00    +0.000 C 
ATOM     11  C   UNL     1       3.376   2.794  19.419  0.00  0.00    +0.000 C 
ATOM     12  O   UNL     1       3.846   1.710  19.072  0.00  0.00    +0.000 OA
ATOM     13  N   UNL     1       3.432   3.952  18.631  0.00  0.00    +0.000 N 
ATOM     14  C   UNL     1       2.456   4.983  18.966  0.00  0.00    +0.000 C 
ATOM     15  C   UNL     1       2.522   6.393  18.381  0.00  0.00    +0.000 C 
ATOM     16  N   UNL     1       1.136   9.229  20.200  0.00  0.00    +0.000 NA
ATOM     17  C   UNL     1       1.096  10.569  20.055  0.00  0.00    +0.000 A 
ENDROOT
BRANCH  13  18
ATOM     18  C   UNL     1       4.083   3.907  17.319  0.00  0.00    +0.000 C 
BRANCH  18  19
ATOM     19  C   UNL     1       5.329   4.817  17.169  0.00  0.00    +0.000 C 
BRANCH  19  20
ATOM     20  N   UNL     1       6.570   4.189  16.664  0.00  0.00    +0.000 NA
ATOM     21  C   UNL     1       6.850   4.578  15.276  0.00  0.00    +0.000 C 
ATOM     22  C   UNL     1       7.704   4.579  17.512  0.00  0.00    +0.000 C 
ENDBRANCH  19  20
ENDBRANCH  18  19
ENDBRANCH  13  18
TORSDOF 3
ENDMDL
MODEL 7
REMARK VINA RESULT:      -5.9      2.479      4.697
REMARK  Name = 
REMARK  6 active torsions:
REMARK  status: ('A' for Active; 'I' for Inactive)
REMARK    1  A    between atoms: C_1  and  C_2
REMARK    2  A    between atoms: N_13  and  C_14
REMARK    3  A    between atoms: C_14  and  C_15
REMARK    4  A    between atoms: C_15  and  N_16
REMARK    5  A    between atoms: N_16  and  C_17
REMARK    6  A    between atoms: N_16  and  C_18
REMARK                            x       y       z     vdW  Elec       q    Type
REMARK                         _______ _______ _______ _____ _____    ______ ____
ROOT
ATOM      1  C   UNL     1      -0.022  11.647  21.939  0.00  0.00    +0.000 C 
ATOM      2  C   UNL     1       0.438  10.411  21.250  0.00  0.00    +0.000 A 
ATOM      3  C   UNL     1       1.014  10.416  20.002  0.00  0.00    +0.000 A 
ATOM      4  N   UNL     1       1.487   9.313  19.388  0.00  0.00    +0.000 NA
ATOM      5  C   UNL     1       1.383   8.144  20.042  0.00  0.00    +0.000 A 
ATOM      6  N   UNL     1       1.880   7.012  19.442  0.00  0.00    +0.000 N 
ATOM      7  C   UNL     1       2.196   5.853  20.281  0.00  0.00    +0.000 C 
ATOM      8  C   UNL     1       3.346   5.151  19.542  0.00  0.00    +0.000 C 
ATOM      9  O   UNL     1       3.222   3.733  19.465  0.00  0.00    +0.000 OA
ATOM     10  C   UNL     1       4.271   3.199  18.658  0.00  0.00    +0.000 C 
ATOM     11  C   UNL     1       4.839   3.999  17.445  0.00  0.00    +0.000 C 
ATOM     12  O   UNL     1       5.591   3.460  16.632  0.00  0.00    +0.000 OA
ATOM     13  N   UNL     1       4.486   5.354  17.396  0.00  0.00    +0.000 N 
ATOM     14  C   UNL     1       3.268   5.709  18.117  0.00  0.00    +0.000 C 
ATOM     15  C   UNL     1       2.863   7.160  18.372  0.00  0.00    +0.000 C 
ATOM     16  N   UNL     1       0.811   8.039  21.252  0.00  0.00    +0.000 NA
ATOM     17  C   UNL     1       0.355   9.168  21.830  0.00  0.00    +0.000 A 
ENDROOT
BRANCH  13  18
ATOM     18  C   UNL     1       5.026   6.208  16.334  0.00  0.00    +0.000 C 
BRANCH  18  19
ATOM     19  C   UNL     1       6.521   6.588  16.490  0.00  0.00    +0.000 C 
BRANCH  19  20
ATOM     20  N   UNL     1       6.949   7.127  17.800  0.00  0.00    +0.000 NA
ATOM     21  C   UNL     1       7.728   6.145  18.564  0.00  0.00    +0.000 C 
ATOM     22  C   UNL     1       7.762   8.334  17.597  0.00  0.00    +0.000 C 
ENDBRANCH  19  20
ENDBRANCH  18  19
ENDBRANCH  13  18
TORSDOF 3
ENDMDL
MODEL 8
REMARK VINA RESULT:      -5.8      3.086      7.455
REMARK  Name = 
REMARK  6 active torsions:
REMARK  status: ('A' for Active; 'I' for Inactive)
REMARK    1  A    between atoms: C_1  and  C_2
REMARK    2  A    between atoms: N_13  and  C_14
REMARK    3  A    between atoms: C_14  and  C_15
REMARK    4  A    between atoms: C_15  and  N_16
REMARK    5  A    between atoms: N_16  and  C_17
REMARK    6  A    between atoms: N_16  and  C_18
REMARK                            x       y       z     vdW  Elec       q    Type
REMARK                         _______ _______ _______ _____ _____    ______ ____
ROOT
ATOM      1  C   UNL     1       3.515   3.502  17.950  0.00  0.00    +0.000 C 
ATOM      2  C   UNL     1       3.084   4.804  18.526  0.00  0.00    +0.000 A 
ATOM      3  C   UNL     1       2.660   5.862  17.758  0.00  0.00    +0.000 A 
ATOM      4  N   UNL     1       2.214   7.028  18.265  0.00  0.00    +0.000 NA
ATOM      5  C   UNL     1       2.187   7.154  19.603  0.00  0.00    +0.000 A 
ATOM      6  N   UNL     1       1.714   8.327  20.140  0.00  0.00    +0.000 N 
ATOM      7  C   UNL     1       1.249   8.326  21.530  0.00  0.00    +0.000 C 
ATOM      8  C   UNL     1       0.163   9.414  21.568  0.00  0.00    +0.000 C 
ATOM      9  O   UNL     1       0.231  10.278  22.700  0.00  0.00    +0.000 OA
ATOM     10  C   UNL     1      -0.738  11.318  22.572  0.00  0.00    +0.000 C 
ATOM     11  C   UNL     1      -1.122  11.893  21.173  0.00  0.00    +0.000 C 
ATOM     12  O   UNL     1      -1.796  12.919  21.078  0.00  0.00    +0.000 OA
ATOM     13  N   UNL     1      -0.705  11.133  20.072  0.00  0.00    +0.000 N 
ATOM     14  C   UNL     1       0.434  10.254  20.316  0.00  0.00    +0.000 C 
ATOM     15  C   UNL     1       0.872   9.188  19.313  0.00  0.00    +0.000 C 
ATOM     16  N   UNL     1       2.606   6.185  20.431  0.00  0.00    +0.000 NA
ATOM     17  C   UNL     1       3.041   5.034  19.880  0.00  0.00    +0.000 A 
ENDROOT
BRANCH  13  18
ATOM     18  C   UNL     1      -1.076  11.552  18.718  0.00  0.00    +0.000 C 
BRANCH  18  19
ATOM     19  C   UNL     1      -2.524  11.200  18.293  0.00  0.00    +0.000 C 
BRANCH  19  20
ATOM     20  N   UNL     1      -2.828  11.216  16.845  0.00  0.00    +0.000 NA
ATOM     21  C   UNL     1      -2.453   9.953  16.196  0.00  0.00    +0.000 C 
ATOM     22  C   UNL     1      -4.264  11.453  16.643  0.00  0.00    +0.000 C 
ENDBRANCH  19  20
ENDBRANCH  18  19
ENDBRANCH  13  18
TORSDOF 3
ENDMDL
MODEL 9
REMARK VINA RESULT:      -5.7      2.839      4.620
REMARK  Name = 
REMARK  6 active torsions:
REMARK  status: ('A' for Active; 'I' for Inactive)
REMARK    1  A    between atoms: C_1  and  C_2
REMARK    2  A    between atoms: N_13  and  C_14
REMARK    3  A    between atoms: C_14  and  C_15
REMARK    4  A    between atoms: C_15  and  N_16
REMARK    5  A    between atoms: N_16  and  C_17
REMARK    6  A    between atoms: N_16  and  C_18
REMARK                            x       y       z     vdW  Elec       q    Type
REMARK                         _______ _______ _______ _____ _____    ______ ____
ROOT
ATOM      1  C   UNL     1       0.684  13.970  19.191  0.00  0.00    +0.000 C 
ATOM      2  C   UNL     1       0.956  12.519  19.008  0.00  0.00    +0.000 A 
ATOM      3  C   UNL     1       1.884  12.036  18.117  0.00  0.00    +0.000 A 
ATOM      4  N   UNL     1       2.183  10.728  17.978  0.00  0.00    +0.000 NA
ATOM      5  C   UNL     1       1.529   9.854  18.761  0.00  0.00    +0.000 A 
ATOM      6  N   UNL     1       1.836   8.520  18.651  0.00  0.00    +0.000 N 
ATOM      7  C   UNL     1       1.501   7.627  19.764  0.00  0.00    +0.000 C 
ATOM      8  C   UNL     1       2.568   6.522  19.699  0.00  0.00    +0.000 C 
ATOM      9  O   UNL     1       2.061   5.200  19.871  0.00  0.00    +0.000 OA
ATOM     10  C   UNL     1       3.109   4.252  19.671  0.00  0.00    +0.000 C 
ATOM     11  C   UNL     1       4.253   4.522  18.645  0.00  0.00    +0.000 C 
ATOM     12  O   UNL     1       5.034   3.626  18.323  0.00  0.00    +0.000 OA
ATOM     13  N   UNL     1       4.354   5.842  18.185  0.00  0.00    +0.000 N 
ATOM     14  C   UNL     1       3.130   6.631  18.278  0.00  0.00    +0.000 C 
ATOM     15  C   UNL     1       3.112   8.141  18.050  0.00  0.00    +0.000 C 
ATOM     16  N   UNL     1       0.588  10.232  19.641  0.00  0.00    +0.000 NA
ATOM     17  C   UNL     1       0.324  11.550  19.749  0.00  0.00    +0.000 A 
ENDROOT
BRANCH  13  18
ATOM     18  C   UNL     1       5.439   6.212  17.273  0.00  0.00    +0.000 C 
BRANCH  18  19
ATOM     19  C   UNL     1       5.208   5.837  15.787  0.00  0.00    +0.000 C 
BRANCH  19  20
ATOM     20  N   UNL     1       6.359   5.279  15.042  0.00  0.00    +0.000 NA
ATOM     21  C   UNL     1       7.390   4.756  15.947  0.00  0.00    +0.000 C 
ATOM     22  C   UNL     1       5.900   4.199  14.159  0.00  0.00    +0.000 C 
ENDBRANCH  19  20
ENDBRANCH  18  19
ENDBRANCH  13  18
TORSDOF 3
ENDMDL
