MODEL 1
REMARK VINA RESULT:      -6.5      0.000      0.000
REMARK  Name = 
REMARK  7 active torsions:
REMARK  status: ('A' for Active; 'I' for Inactive)
REMARK    1  A    between atoms: C_2  and  C_4
REMARK    2  A    between atoms: N_7  and  C_8
REMARK    3  A    between atoms: C_8  and  O_9
REMARK    4  A    between atoms: O_9  and  C_10
REMARK    5  A    between atoms: C_10  and  N_11
REMARK    6  A    between atoms: C_14  and  C_15
REMARK    7  A    between atoms: N_16  and  O_17
REMARK                            x       y       z     vdW  Elec       q    Type
REMARK                         _______ _______ _______ _____ _____    ______ ____
ROOT
ATOM      1  C   UNL     1       4.589   3.905  19.119  0.00  0.00    +0.000 C 
ENDROOT
BRANCH   1   5
ATOM      2  C   UNL     1       6.366   4.553  15.320  0.00  0.00    +0.000 A 
ATOM      3  C   UNL     1       7.044   4.903  16.481  0.00  0.00    +0.000 A 
ATOM      4  C   UNL     1       6.414   4.726  17.706  0.00  0.00    +0.000 A 
ATOM      5  N   UNL     1       5.156   4.224  17.782  0.00  0.00    +0.000 N 
ATOM      6  C   UNL     1       4.466   3.936  16.651  0.00  0.00    +0.000 A 
ATOM      7  C   UNL     1       5.050   4.101  15.403  0.00  0.00    +0.000 A 
BRANCH   2   9
ATOM      8  N   UNL     1       7.985   5.569  13.819  0.00  0.00    +0.000 N 
ATOM      9  C   UNL     1       6.993   4.645  13.983  0.00  0.00    +0.000 C 
ATOM     10  O   UNL     1       6.655   3.873  13.097  0.00  0.00    +0.000 OA
ATOM     11  H   UNL     1       8.477   5.540  12.929  0.00  0.00    +0.000 HD
ATOM     12  H   UNL     1       8.452   6.059  14.565  0.00  0.00    +0.000 HD
ENDBRANCH   2   9
ENDBRANCH   1   5
BRANCH   1  13
ATOM     13  O   UNL     1       4.264   5.089  19.847  0.00  0.00    +0.000 OA
BRANCH  13  14
ATOM     14  C   UNL     1       2.854   5.224  20.029  0.00  0.00    +0.000 C 
BRANCH  14  15
ATOM     15  N   UNL     1       2.464   6.593  19.630  0.00  0.00    +0.000 N 
ATOM     16  C   UNL     1       1.868   7.408  20.532  0.00  0.00    +0.000 A 
ATOM     17  C   UNL     1       1.384   8.651  20.151  0.00  0.00    +0.000 A 
ATOM     18  C   UNL     1       1.529   9.057  18.829  0.00  0.00    +0.000 A 
ATOM     19  C   UNL     1       2.190   8.239  17.921  0.00  0.00    +0.000 A 
ATOM     20  C   UNL     1       2.651   7.000  18.350  0.00  0.00    +0.000 A 
BRANCH  18  21
ATOM     21  C   UNL     1       0.947  10.331  18.372  0.00  0.00    +0.000 C 
ATOM     22  N   UNL     1      -0.335  10.502  18.357  0.00  0.00    +0.000 NA
BRANCH  22  23
ATOM     23  O   UNL     1      -0.604  11.780  17.858  0.00  0.00    +0.000 OA
ATOM     24  H   UNL     1      -0.082  12.364  18.444  0.00  0.00    +0.000 HD
ENDBRANCH  22  23
ENDBRANCH  18  21
ENDBRANCH  14  15
ENDBRANCH  13  14
ENDBRANCH   1  13
TORSDOF 7
ENDMDL
MODEL 2
REMARK VINA RESULT:      -6.5      2.052      2.744
REMARK  Name = 
REMARK  7 active torsions:
REMARK  status: ('A' for Active; 'I' for Inactive)
REMARK    1  A    between atoms: C_2  and  C_4
REMARK    2  A    between atoms: N_7  and  C_8
REMARK    3  A    between atoms: C_8  and  O_9
REMARK    4  A    between atoms: O_9  and  C_10
REMARK    5  A    between atoms: C_10  and  N_11
REMARK    6  A    between atoms: C_14  and  C_15
REMARK    7  A    between atoms: N_16  and  O_17
REMARK                            x       y       z     vdW  Elec       q    Type
REMARK                         _______ _______ _______ _____ _____    ______ ____
ROOT
ATOM      1  C   UNL     1       3.921   2.114  19.555  0.00  0.00    +0.000 C 
ENDROOT
BRANCH   1   5
ATOM      2  C   UNL     1       5.591   5.150  17.104  0.00  0.00    +0.000 A 
ATOM      3  C   UNL     1       4.948   4.060  16.531  0.00  0.00    +0.000 A 
ATOM      4  C   UNL     1       4.458   3.059  17.359  0.00  0.00    +0.000 A 
ATOM      5  N   UNL     1       4.600   3.128  18.706  0.00  0.00    +0.000 N 
ATOM      6  C   UNL     1       5.278   4.159  19.268  0.00  0.00    +0.000 A 
ATOM      7  C   UNL     1       5.792   5.182  18.483  0.00  0.00    +0.000 A 
BRANCH   2   9
ATOM      8  N   UNL     1       7.387   6.649  16.444  0.00  0.00    +0.000 N 
ATOM      9  C   UNL     1       6.077   6.291  16.297  0.00  0.00    +0.000 C 
ATOM     10  O   UNL     1       5.328   6.837  15.500  0.00  0.00    +0.000 OA
ATOM     11  H   UNL     1       7.729   7.360  15.802  0.00  0.00    +0.000 HD
ATOM     12  H   UNL     1       8.092   6.096  16.905  0.00  0.00    +0.000 HD
ENDBRANCH   2   9
ENDBRANCH   1   5
BRANCH   1  13
ATOM     13  O   UNL     1       3.053   2.724  20.509  0.00  0.00    +0.000 OA
BRANCH  13  14
ATOM     14  C   UNL     1       1.791   3.060  19.932  0.00  0.00    +0.000 C 
BRANCH  14  15
ATOM     15  N   UNL     1       1.813   4.494  19.571  0.00  0.00    +0.000 N 
ATOM     16  C   UNL     1       1.758   4.856  18.268  0.00  0.00    +0.000 A 
ATOM     17  C   UNL     1       1.899   6.186  17.897  0.00  0.00    +0.000 A 
ATOM     18  C   UNL     1       2.087   7.147  18.884  0.00  0.00    +0.000 A 
ATOM     19  C   UNL     1       2.087   6.775  20.222  0.00  0.00    +0.000 A 
ATOM     20  C   UNL     1       1.949   5.430  20.543  0.00  0.00    +0.000 A 
BRANCH  18  21
ATOM     21  C   UNL     1       2.330   8.554  18.518  0.00  0.00    +0.000 C 
ATOM     22  N   UNL     1       1.837   9.045  17.427  0.00  0.00    +0.000 NA
BRANCH  22  23
ATOM     23  O   UNL     1       2.244  10.379  17.321  0.00  0.00    +0.000 OA
ATOM     24  H   UNL     1       3.181  10.350  17.601  0.00  0.00    +0.000 HD
ENDBRANCH  22  23
ENDBRANCH  18  21
ENDBRANCH  14  15
ENDBRANCH  13  14
ENDBRANCH   1  13
TORSDOF 7
ENDMDL
MODEL 3
REMARK VINA RESULT:      -6.5      1.968      2.516
REMARK  Name = 
REMARK  7 active torsions:
REMARK  status: ('A' for Active; 'I' for Inactive)
REMARK    1  A    between atoms: C_2  and  C_4
REMARK    2  A    between atoms: N_7  and  C_8
REMARK    3  A    between atoms: C_8  and  O_9
REMARK    4  A    between atoms: O_9  and  C_10
REMARK    5  A    between atoms: C_10  and  N_11
REMARK    6  A    between atoms: C_14  and  C_15
REMARK    7  A    between atoms: N_16  and  O_17
REMARK                            x       y       z     vdW  Elec       q    Type
REMARK                         _______ _______ _______ _____ _____    ______ ____
ROOT
ATOM      1  C   UNL     1       3.818   2.242  19.554  0.00  0.00    +0.000 C 
ENDROOT
BRANCH   1   5
ATOM      2  C   UNL     1       6.086   4.959  17.210  0.00  0.00    +0.000 A 
ATOM      3  C   UNL     1       6.109   5.039  18.597  0.00  0.00    +0.000 A 
ATOM      4  C   UNL     1       5.315   4.168  19.333  0.00  0.00    +0.000 A 
ATOM      5  N   UNL     1       4.523   3.252  18.721  0.00  0.00    +0.000 N 
ATOM      6  C   UNL     1       4.451   3.208  17.368  0.00  0.00    +0.000 A 
ATOM      7  C   UNL     1       5.220   4.060  16.588  0.00  0.00    +0.000 A 
BRANCH   2   9
ATOM      8  N   UNL     1       7.466   5.230  15.228  0.00  0.00    +0.000 N 
ATOM      9  C   UNL     1       6.954   5.801  16.358  0.00  0.00    +0.000 C 
ATOM     10  O   UNL     1       7.143   6.972  16.650  0.00  0.00    +0.000 OA
ATOM     11  H   UNL     1       7.967   5.855  14.601  0.00  0.00    +0.000 HD
ATOM     12  H   UNL     1       7.160   4.357  14.828  0.00  0.00    +0.000 HD
ENDBRANCH   2   9
ENDBRANCH   1   5
BRANCH   1  13
ATOM     13  O   UNL     1       3.119   2.851  20.638  0.00  0.00    +0.000 OA
BRANCH  13  14
ATOM     14  C   UNL     1       1.790   3.219  20.267  0.00  0.00    +0.000 C 
BRANCH  14  15
ATOM     15  N   UNL     1       1.834   4.570  19.667  0.00  0.00    +0.000 N 
ATOM     16  C   UNL     1       1.636   4.717  18.336  0.00  0.00    +0.000 A 
ATOM     17  C   UNL     1       1.791   5.956  17.731  0.00  0.00    +0.000 A 
ATOM     18  C   UNL     1       2.143   7.052  18.512  0.00  0.00    +0.000 A 
ATOM     19  C   UNL     1       2.290   6.904  19.886  0.00  0.00    +0.000 A 
ATOM     20  C   UNL     1       2.131   5.641  20.444  0.00  0.00    +0.000 A 
BRANCH  18  21
ATOM     21  C   UNL     1       2.403   8.361  17.887  0.00  0.00    +0.000 C 
ATOM     22  N   UNL     1       1.671   9.386  18.179  0.00  0.00    +0.000 NA
BRANCH  22  23
ATOM     23  O   UNL     1       2.122  10.477  17.428  0.00  0.00    +0.000 OA
ATOM     24  H   UNL     1       3.094  10.377  17.450  0.00  0.00    +0.000 HD
ENDBRANCH  22  23
ENDBRANCH  18  21
ENDBRANCH  14  15
ENDBRANCH  13  14
ENDBRANCH   1  13
TORSDOF 7
ENDMDL
MODEL 4
REMARK VINA RESULT:      -6.5      1.443      2.129
REMARK  Name = 
REMARK  7 active torsions:
REMARK  status: ('A' for Active; 'I' for Inactive)
REMARK    1  A    between atoms: C_2  and  C_4
REMARK    2  A    between atoms: N_7  and  C_8
REMARK    3  A    between atoms: C_8  and  O_9
REMARK    4  A    between atoms: O_9  and  C_10
REMARK    5  A    between atoms: C_10  and  N_11
REMARK    6  A    between atoms: C_14  and  C_15
REMARK    7  A    between atoms: N_16  and  O_17
REMARK                            x       y       z     vdW  Elec       q    Type
REMARK                         _______ _______ _______ _____ _____    ______ ____
ROOT
ATOM      1  C   UNL     1       3.350   3.095  19.629  0.00  0.00    +0.000 C 
ENDROOT
BRANCH   1   5
ATOM      2  C   UNL     1       6.002   4.772  16.770  0.00  0.00    +0.000 A 
ATOM      3  C   UNL     1       4.882   4.060  16.357  0.00  0.00    +0.000 A 
ATOM      4  C   UNL     1       4.063   3.481  17.317  0.00  0.00    +0.000 A 
ATOM      5  N   UNL     1       4.341   3.596  18.640  0.00  0.00    +0.000 N 
ATOM      6  C   UNL     1       5.463   4.238  19.048  0.00  0.00    +0.000 A 
ATOM      7  C   UNL     1       6.317   4.830  18.127  0.00  0.00    +0.000 A 
BRANCH   2   9
ATOM      8  N   UNL     1       6.802   5.114  14.502  0.00  0.00    +0.000 N 
ATOM      9  C   UNL     1       6.883   5.478  15.815  0.00  0.00    +0.000 C 
ATOM     10  O   UNL     1       7.603   6.385  16.206  0.00  0.00    +0.000 OA
ATOM     11  H   UNL     1       7.333   5.684  13.848  0.00  0.00    +0.000 HD
ATOM     12  H   UNL     1       6.074   4.546  14.100  0.00  0.00    +0.000 HD
ENDBRANCH   2   9
ENDBRANCH   1   5
BRANCH   1  13
ATOM     13  O   UNL     1       2.218   3.958  19.721  0.00  0.00    +0.000 OA
BRANCH  13  14
ATOM     14  C   UNL     1       2.435   5.012  20.661  0.00  0.00    +0.000 C 
BRANCH  14  15
ATOM     15  N   UNL     1       2.137   6.297  19.993  0.00  0.00    +0.000 N 
ATOM     16  C   UNL     1       2.477   6.471  18.695  0.00  0.00    +0.000 A 
ATOM     17  C   UNL     1       2.319   7.705  18.081  0.00  0.00    +0.000 A 
ATOM     18  C   UNL     1       1.794   8.764  18.816  0.00  0.00    +0.000 A 
ATOM     19  C   UNL     1       1.396   8.563  20.132  0.00  0.00    +0.000 A 
ATOM     20  C   UNL     1       1.582   7.310  20.703  0.00  0.00    +0.000 A 
BRANCH  18  21
ATOM     21  C   UNL     1       1.697  10.109  18.221  0.00  0.00    +0.000 C 
ATOM     22  N   UNL     1       1.172  11.086  18.886  0.00  0.00    +0.000 NA
BRANCH  22  23
ATOM     23  O   UNL     1       1.186  12.227  18.077  0.00  0.00    +0.000 OA
ATOM     24  H   UNL     1       1.233  11.859  17.172  0.00  0.00    +0.000 HD
ENDBRANCH  22  23
ENDBRANCH  18  21
ENDBRANCH  14  15
ENDBRANCH  13  14
ENDBRANCH   1  13
TORSDOF 7
ENDMDL
MODEL 5
REMARK VINA RESULT:      -6.5      1.590      2.014
REMARK  Name = 
REMARK  7 active torsions:
REMARK  status: ('A' for Active; 'I' for Inactive)
REMARK    1  A    between atoms: C_2  and  C_4
REMARK    2  A    between atoms: N_7  and  C_8
REMARK    3  A    between atoms: C_8  and  O_9
REMARK    4  A    between atoms: O_9  and  C_10
REMARK    5  A    between atoms: C_10  and  N_11
REMARK    6  A    between atoms: C_14  and  C_15
REMARK    7  A    between atoms: N_16  and  O_17
REMARK                            x       y       z     vdW  Elec       q    Type
REMARK                         _______ _______ _______ _____ _____    ______ ____
ROOT
ATOM      1  C   UNL     1       2.660   3.460  19.284  0.00  0.00    +0.000 C 
ENDROOT
BRANCH   1   5
ATOM      2  C   UNL     1       5.936   4.847  16.969  0.00  0.00    +0.000 A 
ATOM      3  C   UNL     1       4.748   4.473  16.352  0.00  0.00    +0.000 A 
ATOM      4  C   UNL     1       3.713   3.975  17.134  0.00  0.00    +0.000 A 
ATOM      5  N   UNL     1       3.847   3.846  18.477  0.00  0.00    +0.000 N 
ATOM      6  C   UNL     1       5.023   4.152  19.078  0.00  0.00    +0.000 A 
ATOM      7  C   UNL     1       6.089   4.648  18.340  0.00  0.00    +0.000 A 
BRANCH   2   9
ATOM      8  N   UNL     1       7.478   6.690  16.611  0.00  0.00    +0.000 N 
ATOM      9  C   UNL     1       7.057   5.452  16.218  0.00  0.00    +0.000 C 
ATOM     10  O   UNL     1       7.601   4.822  15.323  0.00  0.00    +0.000 OA
ATOM     11  H   UNL     1       8.318   7.039  16.155  0.00  0.00    +0.000 HD
ATOM     12  H   UNL     1       7.222   7.144  17.472  0.00  0.00    +0.000 HD
ENDBRANCH   2   9
ENDBRANCH   1   5
BRANCH   1  13
ATOM     13  O   UNL     1       1.713   4.524  19.369  0.00  0.00    +0.000 OA
BRANCH  13  14
ATOM     14  C   UNL     1       1.950   5.348  20.511  0.00  0.00    +0.000 C 
BRANCH  14  15
ATOM     15  N   UNL     1       1.890   6.762  20.082  0.00  0.00    +0.000 N 
ATOM     16  C   UNL     1       1.312   7.682  20.890  0.00  0.00    +0.000 A 
ATOM     17  C   UNL     1       1.134   8.989  20.461  0.00  0.00    +0.000 A 
ATOM     18  C   UNL     1       1.569   9.348  19.189  0.00  0.00    +0.000 A 
ATOM     19  C   UNL     1       2.211   8.413  18.387  0.00  0.00    +0.000 A 
ATOM     20  C   UNL     1       2.359   7.115  18.859  0.00  0.00    +0.000 A 
BRANCH  18  21
ATOM     21  C   UNL     1       1.315  10.703  18.670  0.00  0.00    +0.000 C 
ATOM     22  N   UNL     1       2.236  11.346  18.028  0.00  0.00    +0.000 NA
BRANCH  22  23
ATOM     23  O   UNL     1       1.734  12.604  17.678  0.00  0.00    +0.000 OA
ATOM     24  H   UNL     1       1.274  12.433  16.832  0.00  0.00    +0.000 HD
ENDBRANCH  22  23
ENDBRANCH  18  21
ENDBRANCH  14  15
ENDBRANCH  13  14
ENDBRANCH   1  13
TORSDOF 7
ENDMDL
MODEL 6
REMARK VINA RESULT:      -6.4      2.481      3.231
REMARK  Name = 
REMARK  7 active torsions:
REMARK  status: ('A' for Active; 'I' for Inactive)
REMARK    1  A    between atoms: C_2  and  C_4
REMARK    2  A    between atoms: N_7  and  C_8
REMARK    3  A    between atoms: C_8  and  O_9
REMARK    4  A    between atoms: O_9  and  C_10
REMARK    5  A    between atoms: C_10  and  N_11
REMARK    6  A    between atoms: C_14  and  C_15
REMARK    7  A    between atoms: N_16  and  O_17
REMARK                            x       y       z     vdW  Elec       q    Type
REMARK                         _______ _______ _______ _____ _____    ______ ____
ROOT
ATOM      1  C   UNL     1       2.205   4.908  19.404  0.00  0.00    +0.000 C 
ENDROOT
BRANCH   1   5
ATOM      2  C   UNL     1       5.910   4.643  17.349  0.00  0.00    +0.000 A 
ATOM      3  C   UNL     1       4.728   4.279  16.716  0.00  0.00    +0.000 A 
ATOM      4  C   UNL     1       3.539   4.329  17.433  0.00  0.00    +0.000 A 
ATOM      5  N   UNL     1       3.518   4.720  18.731  0.00  0.00    +0.000 N 
ATOM      6  C   UNL     1       4.674   5.019  19.373  0.00  0.00    +0.000 A 
ATOM      7  C   UNL     1       5.888   4.979  18.702  0.00  0.00    +0.000 A 
BRANCH   2   9
ATOM      8  N   UNL     1       7.259   5.407  15.478  0.00  0.00    +0.000 N 
ATOM      9  C   UNL     1       7.205   4.685  16.636  0.00  0.00    +0.000 C 
ATOM     10  O   UNL     1       8.184   4.133  17.116  0.00  0.00    +0.000 OA
ATOM     11  H   UNL     1       8.181   5.515  15.063  0.00  0.00    +0.000 HD
ATOM     12  H   UNL     1       6.556   6.059  15.167  0.00  0.00    +0.000 HD
ENDBRANCH   2   9
ENDBRANCH   1   5
BRANCH   1  13
ATOM     13  O   UNL     1       2.187   6.093  20.197  0.00  0.00    +0.000 OA
BRANCH  13  14
ATOM     14  C   UNL     1       2.314   7.267  19.393  0.00  0.00    +0.000 C 
BRANCH  14  15
ATOM     15  N   UNL     1       1.502   8.340  20.006  0.00  0.00    +0.000 N 
ATOM     16  C   UNL     1       1.136   9.409  19.261  0.00  0.00    +0.000 A 
ATOM     17  C   UNL     1       0.479  10.484  19.842  0.00  0.00    +0.000 A 
ATOM     18  C   UNL     1       0.191  10.446  21.203  0.00  0.00    +0.000 A 
ATOM     19  C   UNL     1       0.521   9.322  21.949  0.00  0.00    +0.000 A 
ATOM     20  C   UNL     1       1.185   8.274  21.323  0.00  0.00    +0.000 A 
BRANCH  18  21
ATOM     21  C   UNL     1      -0.424  11.608  21.868  0.00  0.00    +0.000 C 
ATOM     22  N   UNL     1      -0.674  11.585  23.136  0.00  0.00    +0.000 NA
BRANCH  22  23
ATOM     23  O   UNL     1      -1.275  12.797  23.490  0.00  0.00    +0.000 OA
ATOM     24  H   UNL     1      -0.926  13.422  22.824  0.00  0.00    +0.000 HD
ENDBRANCH  22  23
ENDBRANCH  18  21
ENDBRANCH  14  15
ENDBRANCH  13  14
ENDBRANCH   1  13
TORSDOF 7
ENDMDL
MODEL 7
REMARK VINA RESULT:      -6.4      1.198      1.648
REMARK  Name = 
REMARK  7 active torsions:
REMARK  status: ('A' for Active; 'I' for Inactive)
REMARK    1  A    between atoms: C_2  and  C_4
REMARK    2  A    between atoms: N_7  and  C_8
REMARK    3  A    between atoms: C_8  and  O_9
REMARK    4  A    between atoms: O_9  and  C_10
REMARK    5  A    between atoms: C_10  and  N_11
REMARK    6  A    between atoms: C_14  and  C_15
REMARK    7  A    between atoms: N_16  and  O_17
REMARK                            x       y       z     vdW  Elec       q    Type
REMARK                         _______ _______ _______ _____ _____    ______ ____
ROOT
ATOM      1  C   UNL     1       4.444   5.623  19.223  0.00  0.00    +0.000 C 
ENDROOT
BRANCH   1   5
ATOM      2  C   UNL     1       6.328   4.795  15.511  0.00  0.00    +0.000 A 
ATOM      3  C   UNL     1       5.061   4.293  15.784  0.00  0.00    +0.000 A 
ATOM      4  C   UNL     1       4.495   4.539  17.027  0.00  0.00    +0.000 A 
ATOM      5  N   UNL     1       5.156   5.253  17.972  0.00  0.00    +0.000 N 
ATOM      6  C   UNL     1       6.416   5.695  17.735  0.00  0.00    +0.000 A 
ATOM      7  C   UNL     1       7.028   5.470  16.510  0.00  0.00    +0.000 A 
BRANCH   2   9
ATOM      8  N   UNL     1       6.479   3.664  13.365  0.00  0.00    +0.000 N 
ATOM      9  C   UNL     1       6.970   4.637  14.188  0.00  0.00    +0.000 C 
ATOM     10  O   UNL     1       7.865   5.398  13.851  0.00  0.00    +0.000 OA
ATOM     11  H   UNL     1       6.859   3.645  12.422  0.00  0.00    +0.000 HD
ATOM     12  H   UNL     1       5.609   3.174  13.500  0.00  0.00    +0.000 HD
ENDBRANCH   2   9
ENDBRANCH   1   5
BRANCH   1  13
ATOM     13  O   UNL     1       3.045   5.787  19.002  0.00  0.00    +0.000 OA
BRANCH  13  14
ATOM     14  C   UNL     1       2.396   6.356  20.140  0.00  0.00    +0.000 C 
BRANCH  14  15
ATOM     15  N   UNL     1       1.911   7.704  19.773  0.00  0.00    +0.000 N 
ATOM     16  C   UNL     1       1.316   8.479  20.710  0.00  0.00    +0.000 A 
ATOM     17  C   UNL     1       0.746   9.695  20.363  0.00  0.00    +0.000 A 
ATOM     18  C   UNL     1       0.804  10.117  19.038  0.00  0.00    +0.000 A 
ATOM     19  C   UNL     1       1.465   9.342  18.093  0.00  0.00    +0.000 A 
ATOM     20  C   UNL     1       2.013   8.128  18.489  0.00  0.00    +0.000 A 
BRANCH  18  21
ATOM     21  C   UNL     1       0.130  11.359  18.621  0.00  0.00    +0.000 C 
ATOM     22  N   UNL     1      -0.999  11.317  17.992  0.00  0.00    +0.000 NA
BRANCH  22  23
ATOM     23  O   UNL     1      -1.390  12.627  17.700  0.00  0.00    +0.000 OA
ATOM     24  H   UNL     1      -2.312  12.522  17.391  0.00  0.00    +0.000 HD
ENDBRANCH  22  23
ENDBRANCH  18  21
ENDBRANCH  14  15
ENDBRANCH  13  14
ENDBRANCH   1  13
TORSDOF 7
ENDMDL
MODEL 8
REMARK VINA RESULT:      -6.4      1.467      1.925
REMARK  Name = 
REMARK  7 active torsions:
REMARK  status: ('A' for Active; 'I' for Inactive)
REMARK    1  A    between atoms: C_2  and  C_4
REMARK    2  A    between atoms: N_7  and  C_8
REMARK    3  A    between atoms: C_8  and  O_9
REMARK    4  A    between atoms: O_9  and  C_10
REMARK    5  A    between atoms: C_10  and  N_11
REMARK    6  A    between atoms: C_14  and  C_15
REMARK    7  A    between atoms: N_16  and  O_17
REMARK                            x       y       z     vdW  Elec       q    Type
REMARK                         _______ _______ _______ _____ _____    ______ ____
ROOT
ATOM      1  C   UNL     1       4.261   5.665  19.263  0.00  0.00    +0.000 C 
ENDROOT
BRANCH   1   5
ATOM      2  C   UNL     1       6.363   5.059  15.625  0.00  0.00    +0.000 A 
ATOM      3  C   UNL     1       6.765   4.409  16.786  0.00  0.00    +0.000 A 
ATOM      4  C   UNL     1       6.088   4.669  17.970  0.00  0.00    +0.000 A 
ATOM      5  N   UNL     1       5.051   5.543  18.009  0.00  0.00    +0.000 N 
ATOM      6  C   UNL     1       4.692   6.225  16.894  0.00  0.00    +0.000 A 
ATOM      7  C   UNL     1       5.341   6.005  15.687  0.00  0.00    +0.000 A 
BRANCH   2   9
ATOM      8  N   UNL     1       6.479   3.744  13.585  0.00  0.00    +0.000 N 
ATOM      9  C   UNL     1       6.986   4.783  14.312  0.00  0.00    +0.000 C 
ATOM     10  O   UNL     1       7.878   5.508  13.897  0.00  0.00    +0.000 OA
ATOM     11  H   UNL     1       6.846   3.641  12.641  0.00  0.00    +0.000 HD
ATOM     12  H   UNL     1       5.610   3.271  13.774  0.00  0.00    +0.000 HD
ENDBRANCH   2   9
ENDBRANCH   1   5
BRANCH   1  13
ATOM     13  O   UNL     1       2.914   6.053  18.998  0.00  0.00    +0.000 OA
BRANCH  13  14
ATOM     14  C   UNL     1       2.300   6.638  20.148  0.00  0.00    +0.000 C 
BRANCH  14  15
ATOM     15  N   UNL     1       1.745   7.952  19.758  0.00  0.00    +0.000 N 
ATOM     16  C   UNL     1       2.011   8.454  18.530  0.00  0.00    +0.000 A 
ATOM     17  C   UNL     1       1.604   9.734  18.185  0.00  0.00    +0.000 A 
ATOM     18  C   UNL     1       0.907  10.496  19.116  0.00  0.00    +0.000 A 
ATOM     19  C   UNL     1       0.589   9.955  20.355  0.00  0.00    +0.000 A 
ATOM     20  C   UNL     1       1.025   8.670  20.656  0.00  0.00    +0.000 A 
BRANCH  18  21
ATOM     21  C   UNL     1       0.540  11.891  18.814  0.00  0.00    +0.000 C 
ATOM     22  N   UNL     1      -0.657  12.187  18.422  0.00  0.00    +0.000 NA
BRANCH  22  23
ATOM     23  O   UNL     1      -0.715  13.564  18.184  0.00  0.00    +0.000 OA
ATOM     24  H   UNL     1       0.220  13.805  18.033  0.00  0.00    +0.000 HD
ENDBRANCH  22  23
ENDBRANCH  18  21
ENDBRANCH  14  15
ENDBRANCH  13  14
ENDBRANCH   1  13
TORSDOF 7
ENDMDL
MODEL 9
REMARK VINA RESULT:      -6.3      1.831      8.034
REMARK  Name = 
REMARK  7 active torsions:
REMARK  status: ('A' for Active; 'I' for Inactive)
REMARK    1  A    between atoms: C_2  and  C_4
REMARK    2  A    between atoms: N_7  and  C_8
REMARK    3  A    between atoms: C_8  and  O_9
REMARK    4  A    between atoms: O_9  and  C_10
REMARK    5  A    between atoms: C_10  and  N_11
REMARK    6  A    between atoms: C_14  and  C_15
REMARK    7  A    between atoms: N_16  and  O_17
REMARK                            x       y       z     vdW  Elec       q    Type
REMARK                         _______ _______ _______ _____ _____    ______ ____
ROOT
ATOM      1  C   UNL     1       1.490   7.636  20.544  0.00  0.00    +0.000 C 
ENDROOT
BRANCH   1   5
ATOM      2  C   UNL     1      -0.179  11.251  19.077  0.00  0.00    +0.000 A 
ATOM      3  C   UNL     1       0.925  10.683  18.453  0.00  0.00    +0.000 A 
ATOM      4  C   UNL     1       1.478   9.528  18.988  0.00  0.00    +0.000 A 
ATOM      5  N   UNL     1       0.963   8.954  20.104  0.00  0.00    +0.000 N 
ATOM      6  C   UNL     1      -0.076   9.536  20.752  0.00  0.00    +0.000 A 
ATOM      7  C   UNL     1      -0.661  10.694  20.260  0.00  0.00    +0.000 A 
BRANCH   2   9
ATOM      8  N   UNL     1      -1.521  12.291  17.338  0.00  0.00    +0.000 N 
ATOM      9  C   UNL     1      -0.869  12.440  18.529  0.00  0.00    +0.000 C 
ATOM     10  O   UNL     1      -0.885  13.483  19.165  0.00  0.00    +0.000 OA
ATOM     11  H   UNL     1      -2.080  13.085  17.034  0.00  0.00    +0.000 HD
ATOM     12  H   UNL     1      -1.731  11.411  16.896  0.00  0.00    +0.000 HD
ENDBRANCH   2   9
ENDBRANCH   1   5
BRANCH   1  13
ATOM     13  O   UNL     1       2.620   7.238  19.769  0.00  0.00    +0.000 OA
BRANCH  13  14
ATOM     14  C   UNL     1       2.448   5.930  19.222  0.00  0.00    +0.000 C 
BRANCH  14  15
ATOM     15  N   UNL     1       3.484   5.719  18.188  0.00  0.00    +0.000 N 
ATOM     16  C   UNL     1       4.175   6.780  17.708  0.00  0.00    +0.000 A 
ATOM     17  C   UNL     1       5.064   6.626  16.655  0.00  0.00    +0.000 A 
ATOM     18  C   UNL     1       5.247   5.362  16.103  0.00  0.00    +0.000 A 
ATOM     19  C   UNL     1       4.576   4.269  16.636  0.00  0.00    +0.000 A 
ATOM     20  C   UNL     1       3.690   4.476  17.687  0.00  0.00    +0.000 A 
BRANCH  18  21
ATOM     21  C   UNL     1       6.116   5.182  14.926  0.00  0.00    +0.000 C 
ATOM     22  N   UNL     1       7.337   5.606  14.938  0.00  0.00    +0.000 NA
BRANCH  22  23
ATOM     23  O   UNL     1       7.913   5.328  13.694  0.00  0.00    +0.000 OA
ATOM     24  H   UNL     1       7.516   4.468  13.451  0.00  0.00    +0.000 HD
ENDBRANCH  22  23
ENDBRANCH  18  21
ENDBRANCH  14  15
ENDBRANCH  13  14
ENDBRANCH   1  13
TORSDOF 7
ENDMDL
