MODEL 1
REMARK VINA RESULT:      -8.7      0.000      0.000
REMARK  Name = 
REMARK  8 active torsions:
REMARK  status: ('A' for Active; 'I' for Inactive)
REMARK    1  A    between atoms: C_1  and  O_2
REMARK    2  A    between atoms: O_2  and  C_3
REMARK    3  A    between atoms: C_8  and  C_9
REMARK    4  A    between atoms: N_13  and  C_14
REMARK    5  A    between atoms: C_14  and  C_15
REMARK    6  A    between atoms: C_15  and  C_16
REMARK    7  A    between atoms: N_19  and  C_20
REMARK    8  A    between atoms: C_20  and  C_21
REMARK                            x       y       z     vdW  Elec       q    Type
REMARK                         _______ _______ _______ _____ _____    ______ ____
ROOT
ATOM      1  C   UNL     1       9.489  12.595  18.924  0.00  0.00    +0.000 A 
ATOM      2  C   UNL     1       9.809  11.731  19.989  0.00  0.00    +0.000 A 
ATOM      3  C   UNL     1       9.483  10.378  19.900  0.00  0.00    +0.000 A 
ATOM      4  C   UNL     1       8.822   9.906  18.763  0.00  0.00    +0.000 A 
ATOM      5  N   UNL     1       8.502   8.530  18.620  0.00  0.00    +0.000 N 
ATOM      6  N   UNL     1       8.517  10.781  17.771  0.00  0.00    +0.000 NA
ATOM      7  N   UNL     1       8.847  12.068  17.847  0.00  0.00    +0.000 NA
ATOM      8  H   UNL     1       8.784   7.860  19.351  0.00  0.00    +0.000 HD
ENDROOT
BRANCH   1  14
ATOM      9  C   UNL     1      11.103  14.491  18.450  0.00  0.00    +0.000 A 
ATOM     10  C   UNL     1      11.411  15.866  18.458  0.00  0.00    +0.000 A 
ATOM     11  C   UNL     1      10.492  16.795  18.936  0.00  0.00    +0.000 A 
ATOM     12  C   UNL     1       9.255  16.370  19.420  0.00  0.00    +0.000 A 
ATOM     13  C   UNL     1       8.926  15.014  19.418  0.00  0.00    +0.000 A 
ATOM     14  C   UNL     1       9.836  14.051  18.926  0.00  0.00    +0.000 A 
BRANCH   9  16
ATOM     15  C   UNL     1      12.333  13.251  16.743  0.00  0.00    +0.000 C 
ATOM     16  O   UNL     1      12.015  13.565  18.047  0.00  0.00    +0.000 OA
ENDBRANCH   9  16
ENDBRANCH   1  14
BRANCH   5  17
ATOM     17  C   UNL     1       7.838   8.063  17.414  0.00  0.00    +0.000 C 
BRANCH  17  18
ATOM     18  C   UNL     1       6.874   6.907  17.707  0.00  0.00    +0.000 C 
BRANCH  18  19
ATOM     19  C   UNL     1       5.608   6.938  16.798  0.00  0.00    +0.000 C 
ATOM     20  C   UNL     1       4.316   6.837  17.626  0.00  0.00    +0.000 C 
ATOM     21  C   UNL     1       4.171   5.444  18.263  0.00  0.00    +0.000 C 
ATOM     22  N   UNL     1       4.186   4.373  17.234  0.00  0.00    +0.000 NA
ATOM     23  C   UNL     1       5.408   4.441  16.397  0.00  0.00    +0.000 C 
ATOM     24  C   UNL     1       5.553   5.818  15.736  0.00  0.00    +0.000 C 
BRANCH  22  25
ATOM     25  C   UNL     1       4.112   3.035  17.864  0.00  0.00    +0.000 C 
BRANCH  25  26
ATOM     26  C   UNL     1       3.109   2.987  18.989  0.00  0.00    +0.000 A 
ATOM     27  C   UNL     1       3.535   2.809  20.315  0.00  0.00    +0.000 A 
ATOM     28  C   UNL     1       2.600   2.775  21.357  0.00  0.00    +0.000 A 
ATOM     29  C   UNL     1       1.237   2.917  21.081  0.00  0.00    +0.000 A 
ATOM     30  C   UNL     1       0.805   3.094  19.764  0.00  0.00    +0.000 A 
ATOM     31  C   UNL     1       1.735   3.131  18.721  0.00  0.00    +0.000 A 
ENDBRANCH  25  26
ENDBRANCH  22  25
ENDBRANCH  18  19
ENDBRANCH  17  18
ENDBRANCH   5  17
TORSDOF 7
ENDMDL
MODEL 2
REMARK VINA RESULT:      -8.3      1.370      2.161
REMARK  Name = 
REMARK  8 active torsions:
REMARK  status: ('A' for Active; 'I' for Inactive)
REMARK    1  A    between atoms: C_1  and  O_2
REMARK    2  A    between atoms: O_2  and  C_3
REMARK    3  A    between atoms: C_8  and  C_9
REMARK    4  A    between atoms: N_13  and  C_14
REMARK    5  A    between atoms: C_14  and  C_15
REMARK    6  A    between atoms: C_15  and  C_16
REMARK    7  A    between atoms: N_19  and  C_20
REMARK    8  A    between atoms: C_20  and  C_21
REMARK                            x       y       z     vdW  Elec       q    Type
REMARK                         _______ _______ _______ _____ _____    ______ ____
ROOT
ATOM      1  C   UNL     1       9.917  13.275  18.973  0.00  0.00    +0.000 A 
ATOM      2  C   UNL     1      10.310  12.469  20.060  0.00  0.00    +0.000 A 
ATOM      3  C   UNL     1       9.957  11.120  20.079  0.00  0.00    +0.000 A 
ATOM      4  C   UNL     1       9.200  10.594  19.030  0.00  0.00    +0.000 A 
ATOM      5  N   UNL     1       8.849   9.218  18.997  0.00  0.00    +0.000 N 
ATOM      6  N   UNL     1       8.829  11.414  18.013  0.00  0.00    +0.000 NA
ATOM      7  N   UNL     1       9.182  12.697  17.984  0.00  0.00    +0.000 NA
ATOM      8  H   UNL     1       9.180   8.588  19.742  0.00  0.00    +0.000 HD
ENDROOT
BRANCH   1  14
ATOM      9  C   UNL     1       9.775  15.670  19.788  0.00  0.00    +0.000 A 
ATOM     10  C   UNL     1      10.132  17.027  19.666  0.00  0.00    +0.000 A 
ATOM     11  C   UNL     1      10.972  17.448  18.638  0.00  0.00    +0.000 A 
ATOM     12  C   UNL     1      11.462  16.527  17.713  0.00  0.00    +0.000 A 
ATOM     13  C   UNL     1      11.125  15.177  17.818  0.00  0.00    +0.000 A 
ATOM     14  C   UNL     1      10.285  14.721  18.858  0.00  0.00    +0.000 A 
BRANCH   9  16
ATOM     15  C   UNL     1       7.896  16.005  21.312  0.00  0.00    +0.000 C 
ATOM     16  O   UNL     1       8.903  15.253  20.747  0.00  0.00    +0.000 OA
ENDBRANCH   9  16
ENDBRANCH   1  14
BRANCH   5  17
ATOM     17  C   UNL     1       8.083   8.694  17.879  0.00  0.00    +0.000 C 
BRANCH  17  18
ATOM     18  C   UNL     1       7.779   7.201  18.048  0.00  0.00    +0.000 C 
BRANCH  18  19
ATOM     19  C   UNL     1       6.892   6.635  16.898  0.00  0.00    +0.000 C 
ATOM     20  C   UNL     1       5.395   6.814  17.200  0.00  0.00    +0.000 C 
ATOM     21  C   UNL     1       4.951   5.913  18.366  0.00  0.00    +0.000 C 
ATOM     22  N   UNL     1       5.233   4.482  18.084  0.00  0.00    +0.000 NA
ATOM     23  C   UNL     1       6.665   4.263  17.768  0.00  0.00    +0.000 C 
ATOM     24  C   UNL     1       7.116   5.138  16.591  0.00  0.00    +0.000 C 
BRANCH  22  25
ATOM     25  C   UNL     1       4.862   3.633  19.239  0.00  0.00    +0.000 C 
BRANCH  25  26
ATOM     26  C   UNL     1       3.368   3.492  19.388  0.00  0.00    +0.000 A 
ATOM     27  C   UNL     1       2.613   2.834  18.404  0.00  0.00    +0.000 A 
ATOM     28  C   UNL     1       1.228   2.698  18.551  0.00  0.00    +0.000 A 
ATOM     29  C   UNL     1       0.589   3.218  19.681  0.00  0.00    +0.000 A 
ATOM     30  C   UNL     1       1.333   3.876  20.664  0.00  0.00    +0.000 A 
ATOM     31  C   UNL     1       2.716   4.012  20.521  0.00  0.00    +0.000 A 
ENDBRANCH  25  26
ENDBRANCH  22  25
ENDBRANCH  18  19
ENDBRANCH  17  18
ENDBRANCH   5  17
TORSDOF 7
ENDMDL
MODEL 3
REMARK VINA RESULT:      -8.3      1.538      2.184
REMARK  Name = 
REMARK  8 active torsions:
REMARK  status: ('A' for Active; 'I' for Inactive)
REMARK    1  A    between atoms: C_1  and  O_2
REMARK    2  A    between atoms: O_2  and  C_3
REMARK    3  A    between atoms: C_8  and  C_9
REMARK    4  A    between atoms: N_13  and  C_14
REMARK    5  A    between atoms: C_14  and  C_15
REMARK    6  A    between atoms: C_15  and  C_16
REMARK    7  A    between atoms: N_19  and  C_20
REMARK    8  A    between atoms: C_20  and  C_21
REMARK                            x       y       z     vdW  Elec       q    Type
REMARK                         _______ _______ _______ _____ _____    ______ ____
ROOT
ATOM      1  C   UNL     1       9.687  12.994  19.405  0.00  0.00    +0.000 A 
ATOM      2  C   UNL     1       8.849  13.139  18.282  0.00  0.00    +0.000 A 
ATOM      3  C   UNL     1       8.296  12.007  17.685  0.00  0.00    +0.000 A 
ATOM      4  C   UNL     1       8.601  10.743  18.196  0.00  0.00    +0.000 A 
ATOM      5  N   UNL     1       8.032   9.569  17.637  0.00  0.00    +0.000 N 
ATOM      6  N   UNL     1       9.429  10.652  19.269  0.00  0.00    +0.000 NA
ATOM      7  N   UNL     1       9.941  11.734  19.852  0.00  0.00    +0.000 NA
ATOM      8  H   UNL     1       7.361   9.646  16.859  0.00  0.00    +0.000 HD
ENDROOT
BRANCH   1  14
ATOM      9  C   UNL     1      11.298  14.949  19.501  0.00  0.00    +0.000 A 
ATOM     10  C   UNL     1      11.854  16.042  20.193  0.00  0.00    +0.000 A 
ATOM     11  C   UNL     1      11.434  16.350  21.485  0.00  0.00    +0.000 A 
ATOM     12  C   UNL     1      10.461  15.571  22.109  0.00  0.00    +0.000 A 
ATOM     13  C   UNL     1       9.893  14.486  21.440  0.00  0.00    +0.000 A 
ATOM     14  C   UNL     1      10.291  14.159  20.125  0.00  0.00    +0.000 A 
BRANCH   9  16
ATOM     15  C   UNL     1      11.899  15.437  17.185  0.00  0.00    +0.000 C 
ATOM     16  O   UNL     1      11.743  14.595  18.265  0.00  0.00    +0.000 OA
ENDBRANCH   9  16
ENDBRANCH   1  14
BRANCH   5  17
ATOM     17  C   UNL     1       8.347   8.270  18.207  0.00  0.00    +0.000 C 
BRANCH  17  18
ATOM     18  C   UNL     1       7.334   7.201  17.783  0.00  0.00    +0.000 C 
BRANCH  18  19
ATOM     19  C   UNL     1       7.683   5.788  18.340  0.00  0.00    +0.000 C 
ATOM     20  C   UNL     1       7.504   4.698  17.269  0.00  0.00    +0.000 C 
ATOM     21  C   UNL     1       6.018   4.502  16.919  0.00  0.00    +0.000 C 
ATOM     22  N   UNL     1       5.218   4.154  18.121  0.00  0.00    +0.000 NA
ATOM     23  C   UNL     1       5.375   5.169  19.191  0.00  0.00    +0.000 C 
ATOM     24  C   UNL     1       6.850   5.357  19.567  0.00  0.00    +0.000 C 
BRANCH  22  25
ATOM     25  C   UNL     1       3.782   4.032  17.783  0.00  0.00    +0.000 C 
BRANCH  25  26
ATOM     26  C   UNL     1       2.943   3.656  18.979  0.00  0.00    +0.000 A 
ATOM     27  C   UNL     1       1.624   4.120  19.097  0.00  0.00    +0.000 A 
ATOM     28  C   UNL     1       0.847   3.760  20.205  0.00  0.00    +0.000 A 
ATOM     29  C   UNL     1       1.382   2.936  21.199  0.00  0.00    +0.000 A 
ATOM     30  C   UNL     1       2.695   2.471  21.089  0.00  0.00    +0.000 A 
ATOM     31  C   UNL     1       3.473   2.826  19.984  0.00  0.00    +0.000 A 
ENDBRANCH  25  26
ENDBRANCH  22  25
ENDBRANCH  18  19
ENDBRANCH  17  18
ENDBRANCH   5  17
TORSDOF 7
ENDMDL
MODEL 4
REMARK VINA RESULT:      -8.2      2.045      2.855
REMARK  Name = 
REMARK  8 active torsions:
REMARK  status: ('A' for Active; 'I' for Inactive)
REMARK    1  A    between atoms: C_1  and  O_2
REMARK    2  A    between atoms: O_2  and  C_3
REMARK    3  A    between atoms: C_8  and  C_9
REMARK    4  A    between atoms: N_13  and  C_14
REMARK    5  A    between atoms: C_14  and  C_15
REMARK    6  A    between atoms: C_15  and  C_16
REMARK    7  A    between atoms: N_19  and  C_20
REMARK    8  A    between atoms: C_20  and  C_21
REMARK                            x       y       z     vdW  Elec       q    Type
REMARK                         _______ _______ _______ _____ _____    ______ ____
ROOT
ATOM      1  C   UNL     1       9.779  12.920  19.723  0.00  0.00    +0.000 A 
ATOM      2  C   UNL     1       9.235  13.061  18.431  0.00  0.00    +0.000 A 
ATOM      3  C   UNL     1       8.751  11.937  17.762  0.00  0.00    +0.000 A 
ATOM      4  C   UNL     1       8.833  10.685  18.376  0.00  0.00    +0.000 A 
ATOM      5  N   UNL     1       8.321   9.522  17.742  0.00  0.00    +0.000 N 
ATOM      6  N   UNL     1       9.382  10.596  19.614  0.00  0.00    +0.000 NA
ATOM      7  N   UNL     1       9.827  11.672  20.261  0.00  0.00    +0.000 NA
ATOM      8  H   UNL     1       7.855   9.602  16.825  0.00  0.00    +0.000 HD
ENDROOT
BRANCH   1  14
ATOM      9  C   UNL     1       9.718  14.385  21.790  0.00  0.00    +0.000 A 
ATOM     10  C   UNL     1      10.211  15.479  22.528  0.00  0.00    +0.000 A 
ATOM     11  C   UNL     1      11.242  16.268  22.024  0.00  0.00    +0.000 A 
ATOM     12  C   UNL     1      11.792  15.984  20.775  0.00  0.00    +0.000 A 
ATOM     13  C   UNL     1      11.323  14.903  20.028  0.00  0.00    +0.000 A 
ATOM     14  C   UNL     1      10.287  14.079  20.522  0.00  0.00    +0.000 A 
BRANCH   9  16
ATOM     15  C   UNL     1       7.334  13.918  22.031  0.00  0.00    +0.000 C 
ATOM     16  O   UNL     1       8.669  13.645  22.239  0.00  0.00    +0.000 OA
ENDBRANCH   9  16
ENDBRANCH   1  14
BRANCH   5  17
ATOM     17  C   UNL     1       8.397   8.237  18.416  0.00  0.00    +0.000 C 
BRANCH  17  18
ATOM     18  C   UNL     1       7.603   7.156  17.673  0.00  0.00    +0.000 C 
BRANCH  18  19
ATOM     19  C   UNL     1       7.710   5.759  18.354  0.00  0.00    +0.000 C 
ATOM     20  C   UNL     1       7.586   4.619  17.328  0.00  0.00    +0.000 C 
ATOM     21  C   UNL     1       6.161   4.543  16.751  0.00  0.00    +0.000 C 
ATOM     22  N   UNL     1       5.151   4.357  17.824  0.00  0.00    +0.000 NA
ATOM     23  C   UNL     1       5.244   5.425  18.849  0.00  0.00    +0.000 C 
ATOM     24  C   UNL     1       6.654   5.496  19.450  0.00  0.00    +0.000 C 
BRANCH  22  25
ATOM     25  C   UNL     1       3.780   4.351  17.263  0.00  0.00    +0.000 C 
BRANCH  25  26
ATOM     26  C   UNL     1       2.760   3.847  18.253  0.00  0.00    +0.000 A 
ATOM     27  C   UNL     1       2.461   2.478  18.334  0.00  0.00    +0.000 A 
ATOM     28  C   UNL     1       1.519   2.015  19.261  0.00  0.00    +0.000 A 
ATOM     29  C   UNL     1       0.871   2.917  20.111  0.00  0.00    +0.000 A 
ATOM     30  C   UNL     1       1.162   4.281  20.036  0.00  0.00    +0.000 A 
ATOM     31  C   UNL     1       2.103   4.746  19.114  0.00  0.00    +0.000 A 
ENDBRANCH  25  26
ENDBRANCH  22  25
ENDBRANCH  18  19
ENDBRANCH  17  18
ENDBRANCH   5  17
TORSDOF 7
ENDMDL
MODEL 5
REMARK VINA RESULT:      -8.0      1.484      2.372
REMARK  Name = 
REMARK  8 active torsions:
REMARK  status: ('A' for Active; 'I' for Inactive)
REMARK    1  A    between atoms: C_1  and  O_2
REMARK    2  A    between atoms: O_2  and  C_3
REMARK    3  A    between atoms: C_8  and  C_9
REMARK    4  A    between atoms: N_13  and  C_14
REMARK    5  A    between atoms: C_14  and  C_15
REMARK    6  A    between atoms: C_15  and  C_16
REMARK    7  A    between atoms: N_19  and  C_20
REMARK    8  A    between atoms: C_20  and  C_21
REMARK                            x       y       z     vdW  Elec       q    Type
REMARK                         _______ _______ _______ _____ _____    ______ ____
ROOT
ATOM      1  C   UNL     1       9.721  12.691  18.199  0.00  0.00    +0.000 A 
ATOM      2  C   UNL     1      10.484  11.860  19.042  0.00  0.00    +0.000 A 
ATOM      3  C   UNL     1      10.104  10.531  19.226  0.00  0.00    +0.000 A 
ATOM      4  C   UNL     1       8.958  10.050  18.588  0.00  0.00    +0.000 A 
ATOM      5  N   UNL     1       8.557   8.695  18.723  0.00  0.00    +0.000 N 
ATOM      6  N   UNL     1       8.245  10.894  17.799  0.00  0.00    +0.000 NA
ATOM      7  N   UNL     1       8.618  12.157  17.608  0.00  0.00    +0.000 NA
ATOM      8  H   UNL     1       9.133   8.044  19.278  0.00  0.00    +0.000 HD
ENDROOT
BRANCH   1  14
ATOM      9  C   UNL     1       9.274  15.175  18.426  0.00  0.00    +0.000 A 
ATOM     10  C   UNL     1       9.628  16.511  18.155  0.00  0.00    +0.000 A 
ATOM     11  C   UNL     1      10.755  16.805  17.391  0.00  0.00    +0.000 A 
ATOM     12  C   UNL     1      11.540  15.773  16.879  0.00  0.00    +0.000 A 
ATOM     13  C   UNL     1      11.211  14.442  17.138  0.00  0.00    +0.000 A 
ATOM     14  C   UNL     1      10.081  14.117  17.921  0.00  0.00    +0.000 A 
BRANCH   9  16
ATOM     15  C   UNL     1       7.800  15.340  20.366  0.00  0.00    +0.000 C 
ATOM     16  O   UNL     1       8.141  14.871  19.115  0.00  0.00    +0.000 OA
ENDBRANCH   9  16
ENDBRANCH   1  14
BRANCH   5  17
ATOM     17  C   UNL     1       7.375   8.217  18.026  0.00  0.00    +0.000 C 
BRANCH  17  18
ATOM     18  C   UNL     1       7.686   6.999  17.148  0.00  0.00    +0.000 C 
BRANCH  18  19
ATOM     19  C   UNL     1       7.660   5.662  17.948  0.00  0.00    +0.000 C 
ATOM     20  C   UNL     1       7.209   4.485  17.066  0.00  0.00    +0.000 C 
ATOM     21  C   UNL     1       5.723   4.613  16.685  0.00  0.00    +0.000 C 
ATOM     22  N   UNL     1       4.859   4.690  17.891  0.00  0.00    +0.000 NA
ATOM     23  C   UNL     1       5.269   5.801  18.783  0.00  0.00    +0.000 C 
ATOM     24  C   UNL     1       6.743   5.673  19.190  0.00  0.00    +0.000 C 
BRANCH  22  25
ATOM     25  C   UNL     1       3.440   4.879  17.512  0.00  0.00    +0.000 C 
BRANCH  25  26
ATOM     26  C   UNL     1       2.502   4.110  18.410  0.00  0.00    +0.000 A 
ATOM     27  C   UNL     1       2.242   2.752  18.170  0.00  0.00    +0.000 A 
ATOM     28  C   UNL     1       1.377   2.041  19.011  0.00  0.00    +0.000 A 
ATOM     29  C   UNL     1       0.768   2.683  20.094  0.00  0.00    +0.000 A 
ATOM     30  C   UNL     1       1.021   4.034  20.338  0.00  0.00    +0.000 A 
ATOM     31  C   UNL     1       1.885   4.747  19.502  0.00  0.00    +0.000 A 
ENDBRANCH  25  26
ENDBRANCH  22  25
ENDBRANCH  18  19
ENDBRANCH  17  18
ENDBRANCH   5  17
TORSDOF 7
ENDMDL
MODEL 6
REMARK VINA RESULT:      -8.0      2.731     11.836
REMARK  Name = 
REMARK  8 active torsions:
REMARK  status: ('A' for Active; 'I' for Inactive)
REMARK    1  A    between atoms: C_1  and  O_2
REMARK    2  A    between atoms: O_2  and  C_3
REMARK    3  A    between atoms: C_8  and  C_9
REMARK    4  A    between atoms: N_13  and  C_14
REMARK    5  A    between atoms: C_14  and  C_15
REMARK    6  A    between atoms: C_15  and  C_16
REMARK    7  A    between atoms: N_19  and  C_20
REMARK    8  A    between atoms: C_20  and  C_21
REMARK                            x       y       z     vdW  Elec       q    Type
REMARK                         _______ _______ _______ _____ _____    ______ ____
ROOT
ATOM      1  C   UNL     1       4.657   5.070  18.006  0.00  0.00    +0.000 A 
ATOM      2  C   UNL     1       4.627   5.678  16.735  0.00  0.00    +0.000 A 
ATOM      3  C   UNL     1       5.548   6.680  16.431  0.00  0.00    +0.000 A 
ATOM      4  C   UNL     1       6.471   7.082  17.399  0.00  0.00    +0.000 A 
ATOM      5  N   UNL     1       7.445   8.075  17.117  0.00  0.00    +0.000 N 
ATOM      6  N   UNL     1       6.448   6.480  18.616  0.00  0.00    +0.000 NA
ATOM      7  N   UNL     1       5.583   5.509  18.901  0.00  0.00    +0.000 NA
ATOM      8  H   UNL     1       7.494   8.490  16.174  0.00  0.00    +0.000 HD
ENDROOT
BRANCH   1  14
ATOM      9  C   UNL     1       2.814   4.140  19.476  0.00  0.00    +0.000 A 
ATOM     10  C   UNL     1       1.946   3.089  19.832  0.00  0.00    +0.000 A 
ATOM     11  C   UNL     1       1.983   1.878  19.146  0.00  0.00    +0.000 A 
ATOM     12  C   UNL     1       2.888   1.692  18.102  0.00  0.00    +0.000 A 
ATOM     13  C   UNL     1       3.753   2.721  17.729  0.00  0.00    +0.000 A 
ATOM     14  C   UNL     1       3.729   3.965  18.400  0.00  0.00    +0.000 A 
BRANCH   9  16
ATOM     15  C   UNL     1       2.184   6.472  19.838  0.00  0.00    +0.000 C 
ATOM     16  O   UNL     1       2.836   5.306  20.178  0.00  0.00    +0.000 OA
ENDBRANCH   9  16
ENDBRANCH   1  14
BRANCH   5  17
ATOM     17  C   UNL     1       8.410   8.454  18.136  0.00  0.00    +0.000 C 
BRANCH  17  18
ATOM     18  C   UNL     1       8.512   9.976  18.285  0.00  0.00    +0.000 C 
BRANCH  18  19
ATOM     19  C   UNL     1       9.898  10.433  18.833  0.00  0.00    +0.000 C 
ATOM     20  C   UNL     1       9.751  11.250  20.128  0.00  0.00    +0.000 C 
ATOM     21  C   UNL     1       9.094  12.614  19.853  0.00  0.00    +0.000 C 
ATOM     22  N   UNL     1       9.868  13.398  18.856  0.00  0.00    +0.000 NA
ATOM     23  C   UNL     1      10.051  12.641  17.594  0.00  0.00    +0.000 C 
ATOM     24  C   UNL     1      10.728  11.288  17.850  0.00  0.00    +0.000 C 
BRANCH  22  25
ATOM     25  C   UNL     1       9.191  14.679  18.552  0.00  0.00    +0.000 C 
BRANCH  25  26
ATOM     26  C   UNL     1      10.171  15.809  18.349  0.00  0.00    +0.000 A 
ATOM     27  C   UNL     1      11.423  15.787  18.982  0.00  0.00    +0.000 A 
ATOM     28  C   UNL     1      12.331  16.834  18.783  0.00  0.00    +0.000 A 
ATOM     29  C   UNL     1      11.994  17.906  17.952  0.00  0.00    +0.000 A 
ATOM     30  C   UNL     1      10.750  17.935  17.319  0.00  0.00    +0.000 A 
ATOM     31  C   UNL     1       9.841  16.891  17.513  0.00  0.00    +0.000 A 
ENDBRANCH  25  26
ENDBRANCH  22  25
ENDBRANCH  18  19
ENDBRANCH  17  18
ENDBRANCH   5  17
TORSDOF 7
ENDMDL
MODEL 7
REMARK VINA RESULT:      -7.9      1.322      2.271
REMARK  Name = 
REMARK  8 active torsions:
REMARK  status: ('A' for Active; 'I' for Inactive)
REMARK    1  A    between atoms: C_1  and  O_2
REMARK    2  A    between atoms: O_2  and  C_3
REMARK    3  A    between atoms: C_8  and  C_9
REMARK    4  A    between atoms: N_13  and  C_14
REMARK    5  A    between atoms: C_14  and  C_15
REMARK    6  A    between atoms: C_15  and  C_16
REMARK    7  A    between atoms: N_19  and  C_20
REMARK    8  A    between atoms: C_20  and  C_21
REMARK                            x       y       z     vdW  Elec       q    Type
REMARK                         _______ _______ _______ _____ _____    ______ ____
ROOT
ATOM      1  C   UNL     1      10.025  12.756  19.237  0.00  0.00    +0.000 A 
ATOM      2  C   UNL     1       9.867  11.979  20.401  0.00  0.00    +0.000 A 
ATOM      3  C   UNL     1       9.418  10.663  20.293  0.00  0.00    +0.000 A 
ATOM      4  C   UNL     1       9.110  10.143  19.034  0.00  0.00    +0.000 A 
ATOM      5  N   UNL     1       8.683   8.798  18.880  0.00  0.00    +0.000 N 
ATOM      6  N   UNL     1       9.261  10.937  17.943  0.00  0.00    +0.000 NA
ATOM      7  N   UNL     1       9.709  12.187  18.043  0.00  0.00    +0.000 NA
ATOM      8  H   UNL     1       8.623   8.183  19.705  0.00  0.00    +0.000 HD
ENDROOT
BRANCH   1  14
ATOM      9  C   UNL     1       9.697  15.241  18.859  0.00  0.00    +0.000 A 
ATOM     10  C   UNL     1      10.193  16.559  18.891  0.00  0.00    +0.000 A 
ATOM     11  C   UNL     1      11.499  16.814  19.304  0.00  0.00    +0.000 A 
ATOM     12  C   UNL     1      12.330  15.762  19.684  0.00  0.00    +0.000 A 
ATOM     13  C   UNL     1      11.859  14.449  19.664  0.00  0.00    +0.000 A 
ATOM     14  C   UNL     1      10.535  14.163  19.262  0.00  0.00    +0.000 A 
BRANCH   9  16
ATOM     15  C   UNL     1       7.273  15.087  19.108  0.00  0.00    +0.000 C 
ATOM     16  O   UNL     1       8.447  14.968  18.396  0.00  0.00    +0.000 OA
ENDBRANCH   9  16
ENDBRANCH   1  14
BRANCH   5  17
ATOM     17  C   UNL     1       8.395   8.278  17.554  0.00  0.00    +0.000 C 
BRANCH  17  18
ATOM     18  C   UNL     1       7.194   7.326  17.564  0.00  0.00    +0.000 C 
BRANCH  18  19
ATOM     19  C   UNL     1       7.512   5.966  18.256  0.00  0.00    +0.000 C 
ATOM     20  C   UNL     1       7.433   4.795  17.261  0.00  0.00    +0.000 C 
ATOM     21  C   UNL     1       5.984   4.547  16.807  0.00  0.00    +0.000 C 
ATOM     22  N   UNL     1       5.091   4.277  17.964  0.00  0.00    +0.000 NA
ATOM     23  C   UNL     1       5.148   5.374  18.961  0.00  0.00    +0.000 C 
ATOM     24  C   UNL     1       6.585   5.616  19.441  0.00  0.00    +0.000 C 
BRANCH  22  25
ATOM     25  C   UNL     1       3.689   4.106  17.520  0.00  0.00    +0.000 C 
BRANCH  25  26
ATOM     26  C   UNL     1       2.788   3.644  18.638  0.00  0.00    +0.000 A 
ATOM     27  C   UNL     1       1.525   3.101  18.356  0.00  0.00    +0.000 A 
ATOM     28  C   UNL     1       0.696   2.666  19.398  0.00  0.00    +0.000 A 
ATOM     29  C   UNL     1       1.124   2.771  20.724  0.00  0.00    +0.000 A 
ATOM     30  C   UNL     1       2.380   3.310  21.013  0.00  0.00    +0.000 A 
ATOM     31  C   UNL     1       3.211   3.744  19.976  0.00  0.00    +0.000 A 
ENDBRANCH  25  26
ENDBRANCH  22  25
ENDBRANCH  18  19
ENDBRANCH  17  18
ENDBRANCH   5  17
TORSDOF 7
ENDMDL
MODEL 8
REMARK VINA RESULT:      -7.9      7.597     10.515
REMARK  Name = 
REMARK  8 active torsions:
REMARK  status: ('A' for Active; 'I' for Inactive)
REMARK    1  A    between atoms: C_1  and  O_2
REMARK    2  A    between atoms: O_2  and  C_3
REMARK    3  A    between atoms: C_8  and  C_9
REMARK    4  A    between atoms: N_13  and  C_14
REMARK    5  A    between atoms: C_14  and  C_15
REMARK    6  A    between atoms: C_15  and  C_16
REMARK    7  A    between atoms: N_19  and  C_20
REMARK    8  A    between atoms: C_20  and  C_21
REMARK                            x       y       z     vdW  Elec       q    Type
REMARK                         _______ _______ _______ _____ _____    ______ ____
ROOT
ATOM      1  C   UNL     1       3.929   6.382  17.849  0.00  0.00    +0.000 A 
ATOM      2  C   UNL     1       3.355   5.781  18.986  0.00  0.00    +0.000 A 
ATOM      3  C   UNL     1       2.419   6.490  19.739  0.00  0.00    +0.000 A 
ATOM      4  C   UNL     1       2.083   7.793  19.367  0.00  0.00    +0.000 A 
ATOM      5  N   UNL     1       1.110   8.534  20.088  0.00  0.00    +0.000 N 
ATOM      6  N   UNL     1       2.677   8.336  18.273  0.00  0.00    +0.000 NA
ATOM      7  N   UNL     1       3.555   7.654  17.542  0.00  0.00    +0.000 NA
ATOM      8  H   UNL     1       0.621   8.098  20.884  0.00  0.00    +0.000 HD
ENDROOT
BRANCH   1  14
ATOM      9  C   UNL     1       6.273   6.097  16.927  0.00  0.00    +0.000 A 
ATOM     10  C   UNL     1       7.185   5.422  16.092  0.00  0.00    +0.000 A 
ATOM     11  C   UNL     1       6.766   4.356  15.301  0.00  0.00    +0.000 A 
ATOM     12  C   UNL     1       5.432   3.951  15.323  0.00  0.00    +0.000 A 
ATOM     13  C   UNL     1       4.512   4.602  16.145  0.00  0.00    +0.000 A 
ATOM     14  C   UNL     1       4.913   5.678  16.967  0.00  0.00    +0.000 A 
BRANCH   9  16
ATOM     15  C   UNL     1       7.810   7.910  17.487  0.00  0.00    +0.000 C 
ATOM     16  O   UNL     1       6.652   7.181  17.656  0.00  0.00    +0.000 OA
ENDBRANCH   9  16
ENDBRANCH   1  14
BRANCH   5  17
ATOM     17  C   UNL     1       0.762   9.879  19.661  0.00  0.00    +0.000 C 
BRANCH  17  18
ATOM     18  C   UNL     1      -0.738  10.013  19.369  0.00  0.00    +0.000 C 
BRANCH  18  19
ATOM     19  C   UNL     1      -1.025  10.787  18.048  0.00  0.00    +0.000 C 
ATOM     20  C   UNL     1      -1.775  12.104  18.316  0.00  0.00    +0.000 C 
ATOM     21  C   UNL     1      -3.210  11.836  18.803  0.00  0.00    +0.000 C 
ATOM     22  N   UNL     1      -3.972  11.021  17.823  0.00  0.00    +0.000 NA
ATOM     23  C   UNL     1      -3.277   9.748  17.518  0.00  0.00    +0.000 C 
ATOM     24  C   UNL     1      -1.852  10.000  17.008  0.00  0.00    +0.000 C 
BRANCH  22  25
ATOM     25  C   UNL     1      -5.329  10.716  18.331  0.00  0.00    +0.000 C 
BRANCH  25  26
ATOM     26  C   UNL     1      -6.228  11.927  18.324  0.00  0.00    +0.000 A 
ATOM     27  C   UNL     1      -6.437  12.651  17.140  0.00  0.00    +0.000 A 
ATOM     28  C   UNL     1      -7.280  13.769  17.137  0.00  0.00    +0.000 A 
ATOM     29  C   UNL     1      -7.917  14.170  18.315  0.00  0.00    +0.000 A 
ATOM     30  C   UNL     1      -7.713  13.456  19.497  0.00  0.00    +0.000 A 
ATOM     31  C   UNL     1      -6.874  12.338  19.504  0.00  0.00    +0.000 A 
ENDBRANCH  25  26
ENDBRANCH  22  25
ENDBRANCH  18  19
ENDBRANCH  17  18
ENDBRANCH   5  17
TORSDOF 7
ENDMDL
MODEL 9
REMARK VINA RESULT:      -7.9      5.873      8.157
REMARK  Name = 
REMARK  8 active torsions:
REMARK  status: ('A' for Active; 'I' for Inactive)
REMARK    1  A    between atoms: C_1  and  O_2
REMARK    2  A    between atoms: O_2  and  C_3
REMARK    3  A    between atoms: C_8  and  C_9
REMARK    4  A    between atoms: N_13  and  C_14
REMARK    5  A    between atoms: C_14  and  C_15
REMARK    6  A    between atoms: C_15  and  C_16
REMARK    7  A    between atoms: N_19  and  C_20
REMARK    8  A    between atoms: C_20  and  C_21
REMARK                            x       y       z     vdW  Elec       q    Type
REMARK                         _______ _______ _______ _____ _____    ______ ____
ROOT
ATOM      1  C   UNL     1       0.753   9.863  19.886  0.00  0.00    +0.000 A 
ATOM      2  C   UNL     1       0.230   9.339  21.084  0.00  0.00    +0.000 A 
ATOM      3  C   UNL     1       0.643   8.080  21.522  0.00  0.00    +0.000 A 
ATOM      4  C   UNL     1       1.552   7.350  20.752  0.00  0.00    +0.000 A 
ATOM      5  N   UNL     1       2.022   6.081  21.181  0.00  0.00    +0.000 N 
ATOM      6  N   UNL     1       2.013   7.890  19.595  0.00  0.00    +0.000 NA
ATOM      7  N   UNL     1       1.635   9.099  19.187  0.00  0.00    +0.000 NA
ATOM      8  H   UNL     1       1.712   5.699  22.087  0.00  0.00    +0.000 HD
ENDROOT
BRANCH   1  14
ATOM      9  C   UNL     1      -0.744  11.386  18.520  0.00  0.00    +0.000 A 
ATOM     10  C   UNL     1      -1.072  12.669  18.041  0.00  0.00    +0.000 A 
ATOM     11  C   UNL     1      -0.293  13.773  18.379  0.00  0.00    +0.000 A 
ATOM     12  C   UNL     1       0.828  13.614  19.193  0.00  0.00    +0.000 A 
ATOM     13  C   UNL     1       1.170  12.352  19.683  0.00  0.00    +0.000 A 
ATOM     14  C   UNL     1       0.389  11.218  19.365  0.00  0.00    +0.000 A 
BRANCH   9  16
ATOM     15  C   UNL     1      -2.083  10.101  16.933  0.00  0.00    +0.000 C 
ATOM     16  O   UNL     1      -1.457  10.289  18.146  0.00  0.00    +0.000 OA
ENDBRANCH   9  16
ENDBRANCH   1  14
BRANCH   5  17
ATOM     17  C   UNL     1       2.987   5.356  20.372  0.00  0.00    +0.000 C 
BRANCH  17  18
ATOM     18  C   UNL     1       2.532   3.919  20.094  0.00  0.00    +0.000 C 
BRANCH  18  19
ATOM     19  C   UNL     1       1.810   3.774  18.720  0.00  0.00    +0.000 C 
ATOM     20  C   UNL     1       2.184   2.455  18.022  0.00  0.00    +0.000 C 
ATOM     21  C   UNL     1       3.654   2.465  17.566  0.00  0.00    +0.000 C 
ATOM     22  N   UNL     1       3.933   3.605  16.657  0.00  0.00    +0.000 NA
ATOM     23  C   UNL     1       3.570   4.900  17.281  0.00  0.00    +0.000 C 
ATOM     24  C   UNL     1       2.099   4.914  17.719  0.00  0.00    +0.000 C 
BRANCH  22  25
ATOM     25  C   UNL     1       5.364   3.641  16.278  0.00  0.00    +0.000 C 
BRANCH  25  26
ATOM     26  C   UNL     1       6.131   4.691  17.042  0.00  0.00    +0.000 A 
ATOM     27  C   UNL     1       6.661   5.809  16.379  0.00  0.00    +0.000 A 
ATOM     28  C   UNL     1       7.365   6.785  17.095  0.00  0.00    +0.000 A 
ATOM     29  C   UNL     1       7.544   6.649  18.475  0.00  0.00    +0.000 A 
ATOM     30  C   UNL     1       7.020   5.539  19.142  0.00  0.00    +0.000 A 
ATOM     31  C   UNL     1       6.315   4.564  18.431  0.00  0.00    +0.000 A 
ENDBRANCH  25  26
ENDBRANCH  22  25
ENDBRANCH  18  19
ENDBRANCH  17  18
ENDBRANCH   5  17
TORSDOF 7
ENDMDL
