MODEL 1
REMARK VINA RESULT:      -8.5      0.000      0.000
REMARK  Name = 
REMARK  8 active torsions:
REMARK  status: ('A' for Active; 'I' for Inactive)
REMARK    1  A    between atoms: C_2  and  C_3
REMARK    2  A    between atoms: C_3  and  S_4
REMARK    3  A    between atoms: S_4  and  C_5
REMARK    4  A    between atoms: C_8  and  C_9
REMARK    5  A    between atoms: C_9  and  N_10
REMARK    6  A    between atoms: C_11  and  C_13
REMARK    7  A    between atoms: N_22  and  C_23
REMARK    8  A    between atoms: C_23  and  C_24
REMARK                            x       y       z     vdW  Elec       q    Type
REMARK                         _______ _______ _______ _____ _____    ______ ____
ROOT
ATOM      1  C   UNL     1       7.859   8.190  17.924  0.00  0.00    +0.000 A 
ATOM      2  N   UNL     1       8.420   7.368  18.788  0.00  0.00    +0.000 NA
ATOM      3  N   UNL     1       7.873   6.122  18.566  0.00  0.00    +0.000 NA
ATOM      4  C   UNL     1       7.001   6.272  17.589  0.00  0.00    +0.000 A 
ATOM      5  O   UNL     1       6.917   7.566  17.149  0.00  0.00    +0.000 OA
ENDROOT
BRANCH   1   6
ATOM      6  S   UNL     1       8.321   9.847  17.701  0.00  0.00    +0.000 S 
BRANCH   6   7
ATOM      7  C   UNL     1       9.275  10.128  19.222  0.00  0.00    +0.000 C 
BRANCH   7   9
ATOM      8  O   UNL     1      10.969  11.685  19.949  0.00  0.00    +0.000 OA
ATOM      9  C   UNL     1      10.153  11.364  19.088  0.00  0.00    +0.000 C 
ATOM     10  N   UNL     1       9.941  12.088  17.937  0.00  0.00    +0.000 N 
ATOM     11  H   UNL     1       9.149  11.855  17.345  0.00  0.00    +0.000 HD
BRANCH  10  12
ATOM     12  C   UNL     1      10.605  13.342  17.672  0.00  0.00    +0.000 C 
BRANCH  12  13
ATOM     13  C   UNL     1       9.669  14.492  17.930  0.00  0.00    +0.000 A 
ATOM     14  C   UNL     1      10.177  15.810  17.977  0.00  0.00    +0.000 A 
ATOM     15  C   UNL     1       9.331  16.900  18.202  0.00  0.00    +0.000 A 
ATOM     16  C   UNL     1       7.988  16.645  18.373  0.00  0.00    +0.000 A 
ATOM     17  C   UNL     1       7.481  15.367  18.312  0.00  0.00    +0.000 A 
ATOM     18  C   UNL     1       8.289  14.273  18.085  0.00  0.00    +0.000 A 
ATOM     19  O   UNL     1       6.135  15.337  18.499  0.00  0.00    +0.000 OA
ATOM     20  C   UNL     1       5.864  16.732  18.745  0.00  0.00    +0.000 C 
ATOM     21  O   UNL     1       7.027  17.575  18.609  0.00  0.00    +0.000 OA
ENDBRANCH  12  13
ENDBRANCH  10  12
ENDBRANCH   7   9
ENDBRANCH   6   7
ENDBRANCH   1   6
BRANCH   4  22
ATOM     22  C   UNL     1       6.201   5.253  16.867  0.00  0.00    +0.000 C 
BRANCH  22  23
ATOM     23  N   UNL     1       4.907   5.044  17.485  0.00  0.00    +0.000 N 
ATOM     24  C   UNL     1       4.821   4.250  18.614  0.00  0.00    +0.000 C 
ATOM     25  O   UNL     1       5.818   3.729  19.099  0.00  0.00    +0.000 OA
ATOM     26  H   UNL     1       4.066   5.335  16.999  0.00  0.00    +0.000 HD
BRANCH  24  27
ATOM     27  C   UNL     1       3.472   4.038  19.206  0.00  0.00    +0.000 A 
ATOM     28  C   UNL     1       2.829   5.094  19.865  0.00  0.00    +0.000 A 
ATOM     29  F   UNL     1       3.426   6.290  19.992  0.00  0.00    +0.000 F 
ATOM     30  C   UNL     1       1.554   4.950  20.412  0.00  0.00    +0.000 A 
ATOM     31  C   UNL     1       0.889   3.735  20.306  0.00  0.00    +0.000 A 
ATOM     32  C   UNL     1       1.509   2.669  19.656  0.00  0.00    +0.000 A 
ATOM     33  C   UNL     1       2.794   2.812  19.108  0.00  0.00    +0.000 A 
ATOM     34 CL   UNL     1       3.468   1.391  18.388  0.00  0.00    +0.000 Cl
ENDBRANCH  24  27
ENDBRANCH  22  23
ENDBRANCH   4  22
TORSDOF 8
ENDMDL
MODEL 2
REMARK VINA RESULT:      -8.3      1.800      2.310
REMARK  Name = 
REMARK  8 active torsions:
REMARK  status: ('A' for Active; 'I' for Inactive)
REMARK    1  A    between atoms: C_2  and  C_3
REMARK    2  A    between atoms: C_3  and  S_4
REMARK    3  A    between atoms: S_4  and  C_5
REMARK    4  A    between atoms: C_8  and  C_9
REMARK    5  A    between atoms: C_9  and  N_10
REMARK    6  A    between atoms: C_11  and  C_13
REMARK    7  A    between atoms: N_22  and  C_23
REMARK    8  A    between atoms: C_23  and  C_24
REMARK                            x       y       z     vdW  Elec       q    Type
REMARK                         _______ _______ _______ _____ _____    ______ ____
ROOT
ATOM      1  C   UNL     1       7.345   6.279  17.292  0.00  0.00    +0.000 A 
ATOM      2  N   UNL     1       7.684   6.261  16.018  0.00  0.00    +0.000 NA
ATOM      3  N   UNL     1       6.752   5.480  15.368  0.00  0.00    +0.000 NA
ATOM      4  C   UNL     1       5.913   5.061  16.294  0.00  0.00    +0.000 A 
ATOM      5  O   UNL     1       6.243   5.506  17.546  0.00  0.00    +0.000 OA
ENDROOT
BRANCH   1   6
ATOM      6  S   UNL     1       8.121   7.249  18.502  0.00  0.00    +0.000 S 
BRANCH   6   7
ATOM      7  C   UNL     1       7.940   8.900  17.764  0.00  0.00    +0.000 C 
BRANCH   7   9
ATOM      8  O   UNL     1       9.201   9.778  19.623  0.00  0.00    +0.000 OA
ATOM      9  C   UNL     1       8.857   9.902  18.451  0.00  0.00    +0.000 C 
ATOM     10  N   UNL     1       9.247  10.953  17.653  0.00  0.00    +0.000 N 
ATOM     11  H   UNL     1       8.805  11.077  16.746  0.00  0.00    +0.000 HD
BRANCH  10  12
ATOM     12  C   UNL     1      10.036  12.055  18.146  0.00  0.00    +0.000 C 
BRANCH  12  13
ATOM     13  C   UNL     1       9.205  13.310  18.197  0.00  0.00    +0.000 A 
ATOM     14  C   UNL     1       7.909  13.312  17.634  0.00  0.00    +0.000 A 
ATOM     15  C   UNL     1       7.107  14.458  17.677  0.00  0.00    +0.000 A 
ATOM     16  C   UNL     1       7.624  15.579  18.289  0.00  0.00    +0.000 A 
ATOM     17  C   UNL     1       8.878  15.581  18.855  0.00  0.00    +0.000 A 
ATOM     18  C   UNL     1       9.689  14.465  18.835  0.00  0.00    +0.000 A 
ATOM     19  O   UNL     1       9.191  16.781  19.412  0.00  0.00    +0.000 OA
ATOM     20  C   UNL     1       8.017  17.550  19.076  0.00  0.00    +0.000 C 
ATOM     21  O   UNL     1       6.995  16.776  18.415  0.00  0.00    +0.000 OA
ENDBRANCH  12  13
ENDBRANCH  10  12
ENDBRANCH   7   9
ENDBRANCH   6   7
ENDBRANCH   1   6
BRANCH   4  22
ATOM     22  C   UNL     1       4.658   4.283  16.155  0.00  0.00    +0.000 C 
BRANCH  22  23
ATOM     23  N   UNL     1       3.906   4.245  17.393  0.00  0.00    +0.000 N 
ATOM     24  C   UNL     1       3.567   3.020  17.936  0.00  0.00    +0.000 C 
ATOM     25  O   UNL     1       3.896   1.972  17.393  0.00  0.00    +0.000 OA
ATOM     26  H   UNL     1       3.494   5.097  17.756  0.00  0.00    +0.000 HD
BRANCH  24  27
ATOM     27  C   UNL     1       2.772   3.021  19.195  0.00  0.00    +0.000 A 
ATOM     28  C   UNL     1       1.462   3.516  19.189  0.00  0.00    +0.000 A 
ATOM     29  F   UNL     1       0.921   4.014  18.066  0.00  0.00    +0.000 F 
ATOM     30  C   UNL     1       0.670   3.512  20.338  0.00  0.00    +0.000 A 
ATOM     31  C   UNL     1       1.179   3.005  21.527  0.00  0.00    +0.000 A 
ATOM     32  C   UNL     1       2.482   2.508  21.558  0.00  0.00    +0.000 A 
ATOM     33  C   UNL     1       3.280   2.514  20.403  0.00  0.00    +0.000 A 
ATOM     34 CL   UNL     1       4.895   1.929  20.602  0.00  0.00    +0.000 Cl
ENDBRANCH  24  27
ENDBRANCH  22  23
ENDBRANCH   4  22
TORSDOF 8
ENDMDL
MODEL 3
REMARK VINA RESULT:      -8.2      5.482      8.757
REMARK  Name = 
REMARK  8 active torsions:
REMARK  status: ('A' for Active; 'I' for Inactive)
REMARK    1  A    between atoms: C_2  and  C_3
REMARK    2  A    between atoms: C_3  and  S_4
REMARK    3  A    between atoms: S_4  and  C_5
REMARK    4  A    between atoms: C_8  and  C_9
REMARK    5  A    between atoms: C_9  and  N_10
REMARK    6  A    between atoms: C_11  and  C_13
REMARK    7  A    between atoms: N_22  and  C_23
REMARK    8  A    between atoms: C_23  and  C_24
REMARK                            x       y       z     vdW  Elec       q    Type
REMARK                         _______ _______ _______ _____ _____    ______ ____
ROOT
ATOM      1  C   UNL     1       2.459   4.410  19.619  0.00  0.00    +0.000 A 
ATOM      2  N   UNL     1       3.589   4.846  20.142  0.00  0.00    +0.000 NA
ATOM      3  N   UNL     1       3.749   6.147  19.716  0.00  0.00    +0.000 NA
ATOM      4  C   UNL     1       2.713   6.414  18.947  0.00  0.00    +0.000 A 
ATOM      5  O   UNL     1       1.864   5.347  18.816  0.00  0.00    +0.000 OA
ENDROOT
BRANCH   1   6
ATOM      6  S   UNL     1       1.737   2.875  19.979  0.00  0.00    +0.000 S 
BRANCH   6   7
ATOM      7  C   UNL     1       2.539   1.834  18.724  0.00  0.00    +0.000 C 
BRANCH   7   9
ATOM      8  O   UNL     1       2.308   2.908  16.577  0.00  0.00    +0.000 OA
ATOM      9  C   UNL     1       3.020   2.675  17.551  0.00  0.00    +0.000 C 
ATOM     10  N   UNL     1       4.312   3.132  17.672  0.00  0.00    +0.000 N 
ATOM     11  H   UNL     1       4.895   2.776  18.425  0.00  0.00    +0.000 HD
BRANCH  10  12
ATOM     12  C   UNL     1       4.982   3.864  16.624  0.00  0.00    +0.000 C 
BRANCH  12  13
ATOM     13  C   UNL     1       5.932   4.870  17.216  0.00  0.00    +0.000 A 
ATOM     14  C   UNL     1       6.793   4.484  18.268  0.00  0.00    +0.000 A 
ATOM     15  C   UNL     1       7.696   5.391  18.830  0.00  0.00    +0.000 A 
ATOM     16  C   UNL     1       7.719   6.671  18.321  0.00  0.00    +0.000 A 
ATOM     17  C   UNL     1       6.897   7.053  17.285  0.00  0.00    +0.000 A 
ATOM     18  C   UNL     1       6.001   6.178  16.706  0.00  0.00    +0.000 A 
ATOM     19  O   UNL     1       7.083   8.352  16.930  0.00  0.00    +0.000 OA
ATOM     20  C   UNL     1       8.070   8.759  17.900  0.00  0.00    +0.000 C 
ATOM     21  O   UNL     1       8.520   7.682  18.748  0.00  0.00    +0.000 OA
ENDBRANCH  12  13
ENDBRANCH  10  12
ENDBRANCH   7   9
ENDBRANCH   6   7
ENDBRANCH   1   6
BRANCH   4  22
ATOM     22  C   UNL     1       2.308   7.690  18.308  0.00  0.00    +0.000 C 
BRANCH  22  23
ATOM     23  N   UNL     1       1.864   8.665  19.283  0.00  0.00    +0.000 N 
ATOM     24  C   UNL     1       0.890   9.578  18.925  0.00  0.00    +0.000 C 
ATOM     25  O   UNL     1       0.395   9.571  17.804  0.00  0.00    +0.000 OA
ATOM     26  H   UNL     1       2.380   8.781  20.148  0.00  0.00    +0.000 HD
BRANCH  24  27
ATOM     27  C   UNL     1       0.477  10.581  19.944  0.00  0.00    +0.000 A 
ATOM     28  C   UNL     1      -0.277  10.175  21.052  0.00  0.00    +0.000 A 
ATOM     29  F   UNL     1      -0.655   8.895  21.194  0.00  0.00    +0.000 F 
ATOM     30  C   UNL     1      -0.664  11.074  22.047  0.00  0.00    +0.000 A 
ATOM     31  C   UNL     1      -0.296  12.411  21.952  0.00  0.00    +0.000 A 
ATOM     32  C   UNL     1       0.453  12.839  20.857  0.00  0.00    +0.000 A 
ATOM     33  C   UNL     1       0.840  11.935  19.854  0.00  0.00    +0.000 A 
ATOM     34 CL   UNL     1       1.709  12.616  18.523  0.00  0.00    +0.000 Cl
ENDBRANCH  24  27
ENDBRANCH  22  23
ENDBRANCH   4  22
TORSDOF 8
ENDMDL
MODEL 4
REMARK VINA RESULT:      -8.2      4.320      9.602
REMARK  Name = 
REMARK  8 active torsions:
REMARK  status: ('A' for Active; 'I' for Inactive)
REMARK    1  A    between atoms: C_2  and  C_3
REMARK    2  A    between atoms: C_3  and  S_4
REMARK    3  A    between atoms: S_4  and  C_5
REMARK    4  A    between atoms: C_8  and  C_9
REMARK    5  A    between atoms: C_9  and  N_10
REMARK    6  A    between atoms: C_11  and  C_13
REMARK    7  A    between atoms: N_22  and  C_23
REMARK    8  A    between atoms: C_23  and  C_24
REMARK                            x       y       z     vdW  Elec       q    Type
REMARK                         _______ _______ _______ _____ _____    ______ ____
ROOT
ATOM      1  C   UNL     1       7.615   6.793  17.830  0.00  0.00    +0.000 A 
ATOM      2  N   UNL     1       7.159   7.665  16.953  0.00  0.00    +0.000 NA
ATOM      3  N   UNL     1       7.663   8.896  17.315  0.00  0.00    +0.000 NA
ATOM      4  C   UNL     1       8.384   8.694  18.400  0.00  0.00    +0.000 A 
ATOM      5  O   UNL     1       8.377   7.386  18.803  0.00  0.00    +0.000 OA
ENDROOT
BRANCH   1   6
ATOM      6  S   UNL     1       7.384   5.078  17.722  0.00  0.00    +0.000 S 
BRANCH   6   7
ATOM      7  C   UNL     1       5.965   4.868  18.837  0.00  0.00    +0.000 C 
BRANCH   7   9
ATOM      8  O   UNL     1       3.992   4.321  17.561  0.00  0.00    +0.000 OA
ATOM      9  C   UNL     1       4.662   5.187  18.118  0.00  0.00    +0.000 C 
ATOM     10  N   UNL     1       4.315   6.519  18.137  0.00  0.00    +0.000 N 
ATOM     11  H   UNL     1       4.987   7.200  18.479  0.00  0.00    +0.000 HD
BRANCH  10  12
ATOM     12  C   UNL     1       3.168   7.035  17.430  0.00  0.00    +0.000 C 
BRANCH  12  13
ATOM     13  C   UNL     1       2.351   7.918  18.337  0.00  0.00    +0.000 A 
ATOM     14  C   UNL     1       1.716   9.064  17.809  0.00  0.00    +0.000 A 
ATOM     15  C   UNL     1       0.940   9.896  18.623  0.00  0.00    +0.000 A 
ATOM     16  C   UNL     1       0.815   9.557  19.952  0.00  0.00    +0.000 A 
ATOM     17  C   UNL     1       1.416   8.433  20.472  0.00  0.00    +0.000 A 
ATOM     18  C   UNL     1       2.181   7.590  19.693  0.00  0.00    +0.000 A 
ATOM     19  O   UNL     1       1.162   8.279  21.798  0.00  0.00    +0.000 OA
ATOM     20  C   UNL     1       0.385   9.464  22.065  0.00  0.00    +0.000 C 
ATOM     21  O   UNL     1       0.113  10.250  20.886  0.00  0.00    +0.000 OA
ENDBRANCH  12  13
ENDBRANCH  10  12
ENDBRANCH   7   9
ENDBRANCH   6   7
ENDBRANCH   1   6
BRANCH   4  22
ATOM     22  C   UNL     1       9.242   9.637  19.158  0.00  0.00    +0.000 C 
BRANCH  22  23
ATOM     23  N   UNL     1       9.210  10.971  18.594  0.00  0.00    +0.000 N 
ATOM     24  C   UNL     1       9.895  11.988  19.232  0.00  0.00    +0.000 C 
ATOM     25  O   UNL     1      10.529  11.778  20.259  0.00  0.00    +0.000 OA
ATOM     26  H   UNL     1       8.561  11.183  17.844  0.00  0.00    +0.000 HD
BRANCH  24  27
ATOM     27  C   UNL     1       9.818  13.350  18.637  0.00  0.00    +0.000 A 
ATOM     28  C   UNL     1       8.771  14.208  18.999  0.00  0.00    +0.000 A 
ATOM     29  F   UNL     1       7.822  13.809  19.859  0.00  0.00    +0.000 F 
ATOM     30  C   UNL     1       8.673  15.502  18.487  0.00  0.00    +0.000 A 
ATOM     31  C   UNL     1       9.631  15.969  17.596  0.00  0.00    +0.000 A 
ATOM     32  C   UNL     1      10.681  15.132  17.219  0.00  0.00    +0.000 A 
ATOM     33  C   UNL     1      10.779  13.828  17.731  0.00  0.00    +0.000 A 
ATOM     34 CL   UNL     1      12.093  12.879  17.128  0.00  0.00    +0.000 Cl
ENDBRANCH  24  27
ENDBRANCH  22  23
ENDBRANCH   4  22
TORSDOF 8
ENDMDL
MODEL 5
REMARK VINA RESULT:      -8.1      1.916      2.293
REMARK  Name = 
REMARK  8 active torsions:
REMARK  status: ('A' for Active; 'I' for Inactive)
REMARK    1  A    between atoms: C_2  and  C_3
REMARK    2  A    between atoms: C_3  and  S_4
REMARK    3  A    between atoms: S_4  and  C_5
REMARK    4  A    between atoms: C_8  and  C_9
REMARK    5  A    between atoms: C_9  and  N_10
REMARK    6  A    between atoms: C_11  and  C_13
REMARK    7  A    between atoms: N_22  and  C_23
REMARK    8  A    between atoms: C_23  and  C_24
REMARK                            x       y       z     vdW  Elec       q    Type
REMARK                         _______ _______ _______ _____ _____    ______ ____
ROOT
ATOM      1  C   UNL     1       7.740   7.544  17.826  0.00  0.00    +0.000 A 
ATOM      2  N   UNL     1       6.911   8.028  16.922  0.00  0.00    +0.000 NA
ATOM      3  N   UNL     1       6.303   6.947  16.320  0.00  0.00    +0.000 NA
ATOM      4  C   UNL     1       6.813   5.873  16.888  0.00  0.00    +0.000 A 
ATOM      5  O   UNL     1       7.755   6.174  17.836  0.00  0.00    +0.000 OA
ENDROOT
BRANCH   1   6
ATOM      6  S   UNL     1       8.634   8.509  18.957  0.00  0.00    +0.000 S 
BRANCH   6   7
ATOM      7  C   UNL     1       8.778  10.060  18.020  0.00  0.00    +0.000 C 
BRANCH   7   9
ATOM      8  O   UNL     1      10.195  11.005  19.729  0.00  0.00    +0.000 OA
ATOM      9  C   UNL     1       9.946  10.892  18.531  0.00  0.00    +0.000 C 
ATOM     10  N   UNL     1      10.677  11.510  17.542  0.00  0.00    +0.000 N 
ATOM     11  H   UNL     1      10.327  11.501  16.588  0.00  0.00    +0.000 HD
BRANCH  10  12
ATOM     12  C   UNL     1      11.762  12.418  17.827  0.00  0.00    +0.000 C 
BRANCH  12  13
ATOM     13  C   UNL     1      11.223  13.739  18.307  0.00  0.00    +0.000 A 
ATOM     14  C   UNL     1      11.836  14.388  19.403  0.00  0.00    +0.000 A 
ATOM     15  C   UNL     1      11.367  15.622  19.864  0.00  0.00    +0.000 A 
ATOM     16  C   UNL     1      10.292  16.183  19.211  0.00  0.00    +0.000 A 
ATOM     17  C   UNL     1       9.699  15.568  18.132  0.00  0.00    +0.000 A 
ATOM     18  C   UNL     1      10.143  14.355  17.650  0.00  0.00    +0.000 A 
ATOM     19  O   UNL     1       8.662  16.291  17.631  0.00  0.00    +0.000 OA
ATOM     20  C   UNL     1       8.633  17.399  18.555  0.00  0.00    +0.000 C 
ATOM     21  O   UNL     1       9.701  17.365  19.525  0.00  0.00    +0.000 OA
ENDBRANCH  12  13
ENDBRANCH  10  12
ENDBRANCH   7   9
ENDBRANCH   6   7
ENDBRANCH   1   6
BRANCH   4  22
ATOM     22  C   UNL     1       6.453   4.445  16.715  0.00  0.00    +0.000 C 
BRANCH  22  23
ATOM     23  N   UNL     1       5.094   4.175  17.139  0.00  0.00    +0.000 N 
ATOM     24  C   UNL     1       4.850   3.879  18.467  0.00  0.00    +0.000 C 
ATOM     25  O   UNL     1       5.760   3.847  19.287  0.00  0.00    +0.000 OA
ATOM     26  H   UNL     1       4.368   4.040  16.443  0.00  0.00    +0.000 HD
BRANCH  24  27
ATOM     27  C   UNL     1       3.445   3.583  18.860  0.00  0.00    +0.000 A 
ATOM     28  C   UNL     1       2.943   2.282  18.717  0.00  0.00    +0.000 A 
ATOM     29  F   UNL     1       3.707   1.304  18.205  0.00  0.00    +0.000 F 
ATOM     30  C   UNL     1       1.642   1.952  19.097  0.00  0.00    +0.000 A 
ATOM     31  C   UNL     1       0.810   2.925  19.636  0.00  0.00    +0.000 A 
ATOM     32  C   UNL     1       1.287   4.227  19.786  0.00  0.00    +0.000 A 
ATOM     33  C   UNL     1       2.595   4.561  19.401  0.00  0.00    +0.000 A 
ATOM     34 CL   UNL     1       3.031   6.225  19.583  0.00  0.00    +0.000 Cl
ENDBRANCH  24  27
ENDBRANCH  22  23
ENDBRANCH   4  22
TORSDOF 8
ENDMDL
MODEL 6
REMARK VINA RESULT:      -8.1      7.434      9.829
REMARK  Name = 
REMARK  8 active torsions:
REMARK  status: ('A' for Active; 'I' for Inactive)
REMARK    1  A    between atoms: C_2  and  C_3
REMARK    2  A    between atoms: C_3  and  S_4
REMARK    3  A    between atoms: S_4  and  C_5
REMARK    4  A    between atoms: C_8  and  C_9
REMARK    5  A    between atoms: C_9  and  N_10
REMARK    6  A    between atoms: C_11  and  C_13
REMARK    7  A    between atoms: N_22  and  C_23
REMARK    8  A    between atoms: C_23  and  C_24
REMARK                            x       y       z     vdW  Elec       q    Type
REMARK                         _______ _______ _______ _____ _____    ______ ____
ROOT
ATOM      1  C   UNL     1      -0.306  10.064  22.704  0.00  0.00    +0.000 A 
ATOM      2  N   UNL     1       0.763   9.792  23.426  0.00  0.00    +0.000 NA
ATOM      3  N   UNL     1       1.646   9.134  22.597  0.00  0.00    +0.000 NA
ATOM      4  C   UNL     1       1.049   9.036  21.426  0.00  0.00    +0.000 A 
ATOM      5  O   UNL     1      -0.207   9.580  21.426  0.00  0.00    +0.000 OA
ENDROOT
BRANCH   1   6
ATOM      6  S   UNL     1      -1.646  11.019  23.252  0.00  0.00    +0.000 S 
BRANCH   6   7
ATOM      7  C   UNL     1      -1.080  12.680  22.781  0.00  0.00    +0.000 C 
BRANCH   7   9
ATOM      8  O   UNL     1      -1.987  14.534  21.532  0.00  0.00    +0.000 OA
ATOM      9  C   UNL     1      -2.093  13.358  21.869  0.00  0.00    +0.000 C 
ATOM     10  N   UNL     1      -3.132  12.547  21.475  0.00  0.00    +0.000 N 
ATOM     11  H   UNL     1      -3.243  11.635  21.911  0.00  0.00    +0.000 HD
BRANCH  10  12
ATOM     12  C   UNL     1      -4.243  13.029  20.690  0.00  0.00    +0.000 C 
BRANCH  12  13
ATOM     13  C   UNL     1      -4.237  12.387  19.329  0.00  0.00    +0.000 A 
ATOM     14  C   UNL     1      -5.432  12.333  18.576  0.00  0.00    +0.000 A 
ATOM     15  C   UNL     1      -5.456  11.755  17.303  0.00  0.00    +0.000 A 
ATOM     16  C   UNL     1      -4.275  11.244  16.809  0.00  0.00    +0.000 A 
ATOM     17  C   UNL     1      -3.103  11.308  17.527  0.00  0.00    +0.000 A 
ATOM     18  C   UNL     1      -3.046  11.878  18.781  0.00  0.00    +0.000 A 
ATOM     19  O   UNL     1      -2.057  10.755  16.857  0.00  0.00    +0.000 OA
ATOM     20  C   UNL     1      -2.718  10.283  15.664  0.00  0.00    +0.000 C 
ATOM     21  O   UNL     1      -4.114  10.642  15.602  0.00  0.00    +0.000 OA
ENDBRANCH  12  13
ENDBRANCH  10  12
ENDBRANCH   7   9
ENDBRANCH   6   7
ENDBRANCH   1   6
BRANCH   4  22
ATOM     22  C   UNL     1       1.570   8.521  20.136  0.00  0.00    +0.000 C 
BRANCH  22  23
ATOM     23  N   UNL     1       2.216   7.233  20.289  0.00  0.00    +0.000 N 
ATOM     24  C   UNL     1       2.494   6.482  19.162  0.00  0.00    +0.000 C 
ATOM     25  O   UNL     1       2.210   6.890  18.042  0.00  0.00    +0.000 OA
ATOM     26  H   UNL     1       2.304   6.822  21.212  0.00  0.00    +0.000 HD
BRANCH  24  27
ATOM     27  C   UNL     1       3.136   5.154  19.361  0.00  0.00    +0.000 A 
ATOM     28  C   UNL     1       4.474   4.966  18.991  0.00  0.00    +0.000 A 
ATOM     29  F   UNL     1       5.179   5.964  18.436  0.00  0.00    +0.000 F 
ATOM     30  C   UNL     1       5.124   3.747  19.183  0.00  0.00    +0.000 A 
ATOM     31  C   UNL     1       4.442   2.682  19.757  0.00  0.00    +0.000 A 
ATOM     32  C   UNL     1       3.109   2.844  20.131  0.00  0.00    +0.000 A 
ATOM     33  C   UNL     1       2.453   4.070  19.936  0.00  0.00    +0.000 A 
ATOM     34 CL   UNL     1       0.783   4.109  20.385  0.00  0.00    +0.000 Cl
ENDBRANCH  24  27
ENDBRANCH  22  23
ENDBRANCH   4  22
TORSDOF 8
ENDMDL
MODEL 7
REMARK VINA RESULT:      -8.0      5.768      9.405
REMARK  Name = 
REMARK  8 active torsions:
REMARK  status: ('A' for Active; 'I' for Inactive)
REMARK    1  A    between atoms: C_2  and  C_3
REMARK    2  A    between atoms: C_3  and  S_4
REMARK    3  A    between atoms: S_4  and  C_5
REMARK    4  A    between atoms: C_8  and  C_9
REMARK    5  A    between atoms: C_9  and  N_10
REMARK    6  A    between atoms: C_11  and  C_13
REMARK    7  A    between atoms: N_22  and  C_23
REMARK    8  A    between atoms: C_23  and  C_24
REMARK                            x       y       z     vdW  Elec       q    Type
REMARK                         _______ _______ _______ _____ _____    ______ ____
ROOT
ATOM      1  C   UNL     1       1.659   4.867  20.197  0.00  0.00    +0.000 A 
ATOM      2  N   UNL     1       2.486   5.388  19.312  0.00  0.00    +0.000 NA
ATOM      3  N   UNL     1       2.527   6.745  19.556  0.00  0.00    +0.000 NA
ATOM      4  C   UNL     1       1.708   6.963  20.565  0.00  0.00    +0.000 A 
ATOM      5  O   UNL     1       1.099   5.819  21.008  0.00  0.00    +0.000 OA
ENDROOT
BRANCH   1   6
ATOM      6  S   UNL     1       1.383   3.167  20.402  0.00  0.00    +0.000 S 
BRANCH   6   7
ATOM      7  C   UNL     1       1.353   2.629  18.666  0.00  0.00    +0.000 C 
BRANCH   7   9
ATOM      8  O   UNL     1       3.343   1.271  18.542  0.00  0.00    +0.000 OA
ATOM      9  C   UNL     1       2.755   2.288  18.182  0.00  0.00    +0.000 C 
ATOM     10  N   UNL     1       3.303   3.218  17.328  0.00  0.00    +0.000 N 
ATOM     11  H   UNL     1       2.828   4.107  17.194  0.00  0.00    +0.000 HD
BRANCH  10  12
ATOM     12  C   UNL     1       4.656   3.124  16.837  0.00  0.00    +0.000 C 
BRANCH  12  13
ATOM     13  C   UNL     1       5.342   4.460  16.940  0.00  0.00    +0.000 A 
ATOM     14  C   UNL     1       4.929   5.524  16.106  0.00  0.00    +0.000 A 
ATOM     15  C   UNL     1       5.537   6.781  16.187  0.00  0.00    +0.000 A 
ATOM     16  C   UNL     1       6.548   6.945  17.108  0.00  0.00    +0.000 A 
ATOM     17  C   UNL     1       6.945   5.921  17.937  0.00  0.00    +0.000 A 
ATOM     18  C   UNL     1       6.360   4.673  17.886  0.00  0.00    +0.000 A 
ATOM     19  O   UNL     1       7.949   6.295  18.774  0.00  0.00    +0.000 OA
ATOM     20  C   UNL     1       8.178   7.650  18.335  0.00  0.00    +0.000 C 
ATOM     21  O   UNL     1       7.253   8.087  17.318  0.00  0.00    +0.000 OA
ENDBRANCH  12  13
ENDBRANCH  10  12
ENDBRANCH   7   9
ENDBRANCH   6   7
ENDBRANCH   1   6
BRANCH   4  22
ATOM     22  C   UNL     1       1.441   8.212  21.318  0.00  0.00    +0.000 C 
BRANCH  22  23
ATOM     23  N   UNL     1       1.150   9.323  20.434  0.00  0.00    +0.000 N 
ATOM     24  C   UNL     1       0.704  10.514  20.976  0.00  0.00    +0.000 C 
ATOM     25  O   UNL     1       0.558  10.645  22.185  0.00  0.00    +0.000 OA
ATOM     26  H   UNL     1       1.113   9.171  19.432  0.00  0.00    +0.000 HD
BRANCH  24  27
ATOM     27  C   UNL     1       0.392  11.625  20.035  0.00  0.00    +0.000 A 
ATOM     28  C   UNL     1       1.154  12.800  20.070  0.00  0.00    +0.000 A 
ATOM     29  F   UNL     1       2.148  12.948  20.960  0.00  0.00    +0.000 F 
ATOM     30  C   UNL     1       0.915  13.856  19.190  0.00  0.00    +0.000 A 
ATOM     31  C   UNL     1      -0.099  13.755  18.247  0.00  0.00    +0.000 A 
ATOM     32  C   UNL     1      -0.872  12.595  18.194  0.00  0.00    +0.000 A 
ATOM     33  C   UNL     1      -0.635  11.533  19.081  0.00  0.00    +0.000 A 
ATOM     34 CL   UNL     1      -1.711  10.186  18.946  0.00  0.00    +0.000 Cl
ENDBRANCH  24  27
ENDBRANCH  22  23
ENDBRANCH   4  22
TORSDOF 8
ENDMDL
MODEL 8
REMARK VINA RESULT:      -8.0      4.247      9.839
REMARK  Name = 
REMARK  8 active torsions:
REMARK  status: ('A' for Active; 'I' for Inactive)
REMARK    1  A    between atoms: C_2  and  C_3
REMARK    2  A    between atoms: C_3  and  S_4
REMARK    3  A    between atoms: S_4  and  C_5
REMARK    4  A    between atoms: C_8  and  C_9
REMARK    5  A    between atoms: C_9  and  N_10
REMARK    6  A    between atoms: C_11  and  C_13
REMARK    7  A    between atoms: N_22  and  C_23
REMARK    8  A    between atoms: C_23  and  C_24
REMARK                            x       y       z     vdW  Elec       q    Type
REMARK                         _______ _______ _______ _____ _____    ______ ____
ROOT
ATOM      1  C   UNL     1       7.699   6.981  17.914  0.00  0.00    +0.000 A 
ATOM      2  N   UNL     1       7.262   7.852  17.026  0.00  0.00    +0.000 NA
ATOM      3  N   UNL     1       7.772   9.081  17.390  0.00  0.00    +0.000 NA
ATOM      4  C   UNL     1       8.475   8.879  18.486  0.00  0.00    +0.000 A 
ATOM      5  O   UNL     1       8.451   7.572  18.895  0.00  0.00    +0.000 OA
ENDROOT
BRANCH   1   6
ATOM      6  S   UNL     1       7.455   5.267  17.812  0.00  0.00    +0.000 S 
BRANCH   6   7
ATOM      7  C   UNL     1       5.882   5.214  16.905  0.00  0.00    +0.000 C 
BRANCH   7   9
ATOM      8  O   UNL     1       4.421   3.602  17.948  0.00  0.00    +0.000 OA
ATOM      9  C   UNL     1       4.745   4.780  17.819  0.00  0.00    +0.000 C 
ATOM     10  N   UNL     1       4.112   5.816  18.468  0.00  0.00    +0.000 N 
ATOM     11  H   UNL     1       4.327   6.773  18.200  0.00  0.00    +0.000 HD
BRANCH  10  12
ATOM     12  C   UNL     1       2.951   5.620  19.302  0.00  0.00    +0.000 C 
BRANCH  12  13
ATOM     13  C   UNL     1       2.263   6.935  19.554  0.00  0.00    +0.000 A 
ATOM     14  C   UNL     1       1.603   7.154  20.784  0.00  0.00    +0.000 A 
ATOM     15  C   UNL     1       0.966   8.369  21.053  0.00  0.00    +0.000 A 
ATOM     16  C   UNL     1       1.006   9.343  20.080  0.00  0.00    +0.000 A 
ATOM     17  C   UNL     1       1.661   9.146  18.886  0.00  0.00    +0.000 A 
ATOM     18  C   UNL     1       2.304   7.962  18.594  0.00  0.00    +0.000 A 
ATOM     19  O   UNL     1       1.587  10.232  18.071  0.00  0.00    +0.000 OA
ATOM     20  C   UNL     1       0.761  11.110  18.864  0.00  0.00    +0.000 C 
ATOM     21  O   UNL     1       0.438  10.574  20.164  0.00  0.00    +0.000 OA
ENDBRANCH  12  13
ENDBRANCH  10  12
ENDBRANCH   7   9
ENDBRANCH   6   7
ENDBRANCH   1   6
BRANCH   4  22
ATOM     22  C   UNL     1       9.330   9.818  19.251  0.00  0.00    +0.000 C 
BRANCH  22  23
ATOM     23  N   UNL     1       9.458  11.098  18.584  0.00  0.00    +0.000 N 
ATOM     24  C   UNL     1      10.178  12.107  19.197  0.00  0.00    +0.000 C 
ATOM     25  O   UNL     1      10.711  11.933  20.286  0.00  0.00    +0.000 OA
ATOM     26  H   UNL     1       8.889  11.298  17.769  0.00  0.00    +0.000 HD
BRANCH  24  27
ATOM     27  C   UNL     1      10.266  13.415  18.493  0.00  0.00    +0.000 A 
ATOM     28  C   UNL     1      11.322  13.657  17.605  0.00  0.00    +0.000 A 
ATOM     29  F   UNL     1      12.271  12.730  17.399  0.00  0.00    +0.000 F 
ATOM     30  C   UNL     1      11.432  14.858  16.903  0.00  0.00    +0.000 A 
ATOM     31  C   UNL     1      10.474  15.849  17.076  0.00  0.00    +0.000 A 
ATOM     32  C   UNL     1       9.415  15.633  17.956  0.00  0.00    +0.000 A 
ATOM     33  C   UNL     1       9.306  14.426  18.665  0.00  0.00    +0.000 A 
ATOM     34 CL   UNL     1       7.979  14.320  19.770  0.00  0.00    +0.000 Cl
ENDBRANCH  24  27
ENDBRANCH  22  23
ENDBRANCH   4  22
TORSDOF 8
ENDMDL
MODEL 9
REMARK VINA RESULT:      -8.0      1.549      1.655
REMARK  Name = 
REMARK  8 active torsions:
REMARK  status: ('A' for Active; 'I' for Inactive)
REMARK    1  A    between atoms: C_2  and  C_3
REMARK    2  A    between atoms: C_3  and  S_4
REMARK    3  A    between atoms: S_4  and  C_5
REMARK    4  A    between atoms: C_8  and  C_9
REMARK    5  A    between atoms: C_9  and  N_10
REMARK    6  A    between atoms: C_11  and  C_13
REMARK    7  A    between atoms: N_22  and  C_23
REMARK    8  A    between atoms: C_23  and  C_24
REMARK                            x       y       z     vdW  Elec       q    Type
REMARK                         _______ _______ _______ _____ _____    ______ ____
ROOT
ATOM      1  C   UNL     1       7.934   8.194  17.664  0.00  0.00    +0.000 A 
ATOM      2  N   UNL     1       7.529   7.688  16.516  0.00  0.00    +0.000 NA
ATOM      3  N   UNL     1       7.349   6.336  16.718  0.00  0.00    +0.000 NA
ATOM      4  C   UNL     1       7.671   6.106  17.975  0.00  0.00    +0.000 A 
ATOM      5  O   UNL     1       8.080   7.236  18.632  0.00  0.00    +0.000 OA
ENDROOT
BRANCH   1   6
ATOM      6  S   UNL     1       8.156   9.887  17.969  0.00  0.00    +0.000 S 
BRANCH   6   7
ATOM      7  C   UNL     1       9.261   9.819  19.410  0.00  0.00    +0.000 C 
BRANCH   7   9
ATOM      8  O   UNL     1      10.653  11.498  20.442  0.00  0.00    +0.000 OA
ATOM      9  C   UNL     1      10.228  10.994  19.405  0.00  0.00    +0.000 C 
ATOM     10  N   UNL     1      10.567  11.444  18.149  0.00  0.00    +0.000 N 
ATOM     11  H   UNL     1      10.064  11.086  17.342  0.00  0.00    +0.000 HD
BRANCH  10  12
ATOM     12  C   UNL     1      11.394  12.608  17.936  0.00  0.00    +0.000 C 
BRANCH  12  13
ATOM     13  C   UNL     1      10.650  13.856  18.330  0.00  0.00    +0.000 A 
ATOM     14  C   UNL     1      11.272  14.803  19.173  0.00  0.00    +0.000 A 
ATOM     15  C   UNL     1      10.612  15.979  19.546  0.00  0.00    +0.000 A 
ATOM     16  C   UNL     1       9.339  16.180  19.061  0.00  0.00    +0.000 A 
ATOM     17  C   UNL     1       8.731  15.271  18.225  0.00  0.00    +0.000 A 
ATOM     18  C   UNL     1       9.359  14.107  17.834  0.00  0.00    +0.000 A 
ATOM     19  O   UNL     1       7.483  15.664  17.856  0.00  0.00    +0.000 OA
ATOM     20  C   UNL     1       7.352  16.891  18.603  0.00  0.00    +0.000 C 
ATOM     21  O   UNL     1       8.549  17.253  19.324  0.00  0.00    +0.000 OA
ENDBRANCH  12  13
ENDBRANCH  10  12
ENDBRANCH   7   9
ENDBRANCH   6   7
ENDBRANCH   1   6
BRANCH   4  22
ATOM     22  C   UNL     1       7.564   4.857  18.768  0.00  0.00    +0.000 C 
BRANCH  22  23
ATOM     23  N   UNL     1       6.308   4.174  18.534  0.00  0.00    +0.000 N 
ATOM     24  C   UNL     1       5.154   4.673  19.110  0.00  0.00    +0.000 C 
ATOM     25  O   UNL     1       5.177   5.681  19.805  0.00  0.00    +0.000 OA
ATOM     26  H   UNL     1       6.308   3.258  18.100  0.00  0.00    +0.000 HD
BRANCH  24  27
ATOM     27  C   UNL     1       3.887   3.930  18.868  0.00  0.00    +0.000 A 
ATOM     28  C   UNL     1       2.903   4.486  18.041  0.00  0.00    +0.000 A 
ATOM     29  F   UNL     1       3.077   5.694  17.482  0.00  0.00    +0.000 F 
ATOM     30  C   UNL     1       1.711   3.815  17.764  0.00  0.00    +0.000 A 
ATOM     31  C   UNL     1       1.480   2.560  18.313  0.00  0.00    +0.000 A 
ATOM     32  C   UNL     1       2.445   1.987  19.141  0.00  0.00    +0.000 A 
ATOM     33  C   UNL     1       3.643   2.663  19.422  0.00  0.00    +0.000 A 
ATOM     34 CL   UNL     1       4.719   1.863  20.516  0.00  0.00    +0.000 Cl
ENDBRANCH  24  27
ENDBRANCH  22  23
ENDBRANCH   4  22
TORSDOF 8
ENDMDL
