MODEL 1
REMARK VINA RESULT:      -7.5      0.000      0.000
REMARK  Name = 
REMARK  4 active torsions:
REMARK  status: ('A' for Active; 'I' for Inactive)
REMARK    1  A    between atoms: C_1  and  C_2
REMARK    2  A    between atoms: C_9  and  O_10
REMARK    3  A    between atoms: C_12  and  S_13
REMARK    4  A    between atoms: S_13  and  C_14
REMARK                            x       y       z     vdW  Elec       q    Type
REMARK                         _______ _______ _______ _____ _____    ______ ____
ROOT
ATOM      1  C   UNL     1       2.464   7.870  17.834  0.00  0.00    +0.000 C 
ATOM      2  C   UNL     1       2.666   6.580  18.541  0.00  0.00    +0.000 A 
ATOM      3  N   UNL     1       1.870   6.214  19.605  0.00  0.00    +0.000 N 
ATOM      4  C   UNL     1       2.228   4.976  20.054  0.00  0.00    +0.000 A 
ATOM      5  N   UNL     1       1.613   4.318  21.047  0.00  0.00    +0.000 NA
ATOM      6  C   UNL     1       2.147   3.112  21.276  0.00  0.00    +0.000 A 
ATOM      7  N   UNL     1       1.539   2.337  22.244  0.00  0.00    +0.000 N 
ATOM      8  N   UNL     1       3.228   2.589  20.680  0.00  0.00    +0.000 NA
ATOM      9  C   UNL     1       3.799   3.298  19.693  0.00  0.00    +0.000 A 
ATOM     10  C   UNL     1       3.306   4.536  19.305  0.00  0.00    +0.000 A 
ATOM     11  C   UNL     1       3.549   5.536  18.323  0.00  0.00    +0.000 A 
ATOM     12  H   UNL     1       1.104   6.749  19.990  0.00  0.00    +0.000 HD
ATOM     13  H   UNL     1       1.026   2.921  22.890  0.00  0.00    +0.000 HD
ATOM     14  H   UNL     1       2.195   1.672  22.629  0.00  0.00    +0.000 HD
ENDROOT
BRANCH   9  15
ATOM     15  O   UNL     1       4.904   2.715  19.146  0.00  0.00    +0.000 OA
ATOM     16  H   UNL     1       4.683   1.774  19.267  0.00  0.00    +0.000 HD
ENDBRANCH   9  15
BRANCH  11  17
ATOM     17  S   UNL     1       4.674   5.408  16.986  0.00  0.00    +0.000 S 
BRANCH  17  18
ATOM     18  C   UNL     1       6.174   6.093  17.657  0.00  0.00    +0.000 A 
ATOM     19  C   UNL     1       6.929   5.347  18.573  0.00  0.00    +0.000 A 
ATOM     20  C   UNL     1       8.078   5.891  19.151  0.00  0.00    +0.000 A 
ATOM     21  C   UNL     1       8.475   7.187  18.822  0.00  0.00    +0.000 A 
ATOM     22  C   UNL     1       7.717   7.933  17.921  0.00  0.00    +0.000 A 
ATOM     23 CL   UNL     1       8.197   9.539  17.529  0.00  0.00    +0.000 Cl
ATOM     24  C   UNL     1       6.568   7.395  17.343  0.00  0.00    +0.000 A 
ENDBRANCH  17  18
ENDBRANCH  11  17
TORSDOF 3
ENDMDL
MODEL 2
REMARK VINA RESULT:      -7.2      3.942      5.875
REMARK  Name = 
REMARK  4 active torsions:
REMARK  status: ('A' for Active; 'I' for Inactive)
REMARK    1  A    between atoms: C_1  and  C_2
REMARK    2  A    between atoms: C_9  and  O_10
REMARK    3  A    between atoms: C_12  and  S_13
REMARK    4  A    between atoms: S_13  and  C_14
REMARK                            x       y       z     vdW  Elec       q    Type
REMARK                         _______ _______ _______ _____ _____    ______ ____
ROOT
ATOM      1  C   UNL     1       1.965   3.280  17.812  0.00  0.00    +0.000 C 
ATOM      2  C   UNL     1       3.270   3.886  17.446  0.00  0.00    +0.000 A 
ATOM      3  N   UNL     1       3.839   3.671  16.210  0.00  0.00    +0.000 N 
ATOM      4  C   UNL     1       5.010   4.364  16.105  0.00  0.00    +0.000 A 
ATOM      5  N   UNL     1       5.779   4.401  15.007  0.00  0.00    +0.000 NA
ATOM      6  C   UNL     1       6.862   5.173  15.161  0.00  0.00    +0.000 A 
ATOM      7  N   UNL     1       7.682   5.318  14.060  0.00  0.00    +0.000 N 
ATOM      8  N   UNL     1       7.245   5.799  16.283  0.00  0.00    +0.000 NA
ATOM      9  C   UNL     1       6.433   5.721  17.349  0.00  0.00    +0.000 A 
ATOM     10  C   UNL     1       5.241   5.011  17.307  0.00  0.00    +0.000 A 
ATOM     11  C   UNL     1       4.117   4.739  18.134  0.00  0.00    +0.000 A 
ATOM     12  H   UNL     1       3.448   3.116  15.461  0.00  0.00    +0.000 HD
ATOM     13  H   UNL     1       7.559   4.542  13.426  0.00  0.00    +0.000 HD
ATOM     14  H   UNL     1       8.623   5.548  14.347  0.00  0.00    +0.000 HD
ENDROOT
BRANCH   9  15
ATOM     15  O   UNL     1       6.896   6.365  18.459  0.00  0.00    +0.000 OA
ATOM     16  H   UNL     1       7.780   6.631  18.151  0.00  0.00    +0.000 HD
ENDBRANCH   9  15
BRANCH  11  17
ATOM     17  S   UNL     1       3.790   5.468  19.694  0.00  0.00    +0.000 S 
BRANCH  17  18
ATOM     18  C   UNL     1       2.818   6.898  19.272  0.00  0.00    +0.000 A 
ATOM     19  C   UNL     1       2.943   7.473  18.001  0.00  0.00    +0.000 A 
ATOM     20  C   UNL     1       2.229   8.629  17.674  0.00  0.00    +0.000 A 
ATOM     21  C   UNL     1       1.390   9.219  18.620  0.00  0.00    +0.000 A 
ATOM     22  C   UNL     1       1.276   8.654  19.888  0.00  0.00    +0.000 A 
ATOM     23 CL   UNL     1       0.255   9.392  21.061  0.00  0.00    +0.000 Cl
ATOM     24  C   UNL     1       1.988   7.502  20.221  0.00  0.00    +0.000 A 
ENDBRANCH  17  18
ENDBRANCH  11  17
TORSDOF 3
ENDMDL
MODEL 3
REMARK VINA RESULT:      -7.2      3.994      6.034
REMARK  Name = 
REMARK  4 active torsions:
REMARK  status: ('A' for Active; 'I' for Inactive)
REMARK    1  A    between atoms: C_1  and  C_2
REMARK    2  A    between atoms: C_9  and  O_10
REMARK    3  A    between atoms: C_12  and  S_13
REMARK    4  A    between atoms: S_13  and  C_14
REMARK                            x       y       z     vdW  Elec       q    Type
REMARK                         _______ _______ _______ _____ _____    ______ ____
ROOT
ATOM      1  C   UNL     1       5.225   4.070  13.775  0.00  0.00    +0.000 C 
ATOM      2  C   UNL     1       5.744   4.547  15.081  0.00  0.00    +0.000 A 
ATOM      3  N   UNL     1       6.624   5.604  15.160  0.00  0.00    +0.000 N 
ATOM      4  C   UNL     1       6.920   5.873  16.465  0.00  0.00    +0.000 A 
ATOM      5  N   UNL     1       7.709   6.875  16.877  0.00  0.00    +0.000 NA
ATOM      6  C   UNL     1       7.817   6.933  18.210  0.00  0.00    +0.000 A 
ATOM      7  N   UNL     1       8.565   7.971  18.729  0.00  0.00    +0.000 N 
ATOM      8  N   UNL     1       7.293   6.070  19.093  0.00  0.00    +0.000 NA
ATOM      9  C   UNL     1       6.512   5.088  18.616  0.00  0.00    +0.000 A 
ATOM     10  C   UNL     1       6.259   4.952  17.259  0.00  0.00    +0.000 A 
ATOM     11  C   UNL     1       5.485   4.144  16.381  0.00  0.00    +0.000 A 
ATOM     12  H   UNL     1       6.984   6.141  14.383  0.00  0.00    +0.000 HD
ATOM     13  H   UNL     1       9.220   8.310  18.038  0.00  0.00    +0.000 HD
ATOM     14  H   UNL     1       8.924   7.728  19.641  0.00  0.00    +0.000 HD
ENDROOT
BRANCH   9  15
ATOM     15  O   UNL     1       6.031   4.238  19.569  0.00  0.00    +0.000 OA
ATOM     16  H   UNL     1       6.848   4.044  20.060  0.00  0.00    +0.000 HD
ENDBRANCH   9  15
BRANCH  11  17
ATOM     17  S   UNL     1       4.303   2.944  16.864  0.00  0.00    +0.000 S 
BRANCH  17  18
ATOM     18  C   UNL     1       3.309   3.817  18.055  0.00  0.00    +0.000 A 
ATOM     19  C   UNL     1       2.995   5.166  17.842  0.00  0.00    +0.000 A 
ATOM     20  C   UNL     1       2.263   5.880  18.794  0.00  0.00    +0.000 A 
ATOM     21  C   UNL     1       1.847   5.251  19.967  0.00  0.00    +0.000 A 
ATOM     22  C   UNL     1       2.171   3.913  20.184  0.00  0.00    +0.000 A 
ATOM     23 CL   UNL     1       1.674   3.142  21.641  0.00  0.00    +0.000 Cl
ATOM     24  C   UNL     1       2.903   3.196  19.239  0.00  0.00    +0.000 A 
ENDBRANCH  17  18
ENDBRANCH  11  17
TORSDOF 3
ENDMDL
MODEL 4
REMARK VINA RESULT:      -7.1      3.715      6.081
REMARK  Name = 
REMARK  4 active torsions:
REMARK  status: ('A' for Active; 'I' for Inactive)
REMARK    1  A    between atoms: C_1  and  C_2
REMARK    2  A    between atoms: C_9  and  O_10
REMARK    3  A    between atoms: C_12  and  S_13
REMARK    4  A    between atoms: S_13  and  C_14
REMARK                            x       y       z     vdW  Elec       q    Type
REMARK                         _______ _______ _______ _____ _____    ______ ____
ROOT
ATOM      1  C   UNL     1       3.717   3.764  16.343  0.00  0.00    +0.000 C 
ATOM      2  C   UNL     1       4.806   4.562  16.962  0.00  0.00    +0.000 A 
ATOM      3  N   UNL     1       5.301   5.694  16.352  0.00  0.00    +0.000 N 
ATOM      4  C   UNL     1       6.262   6.267  17.133  0.00  0.00    +0.000 A 
ATOM      5  N   UNL     1       6.902   7.408  16.841  0.00  0.00    +0.000 NA
ATOM      6  C   UNL     1       7.782   7.763  17.785  0.00  0.00    +0.000 A 
ATOM      7  N   UNL     1       8.447   8.958  17.598  0.00  0.00    +0.000 N 
ATOM      8  N   UNL     1       8.103   7.063  18.883  0.00  0.00    +0.000 NA
ATOM      9  C   UNL     1       7.427   5.927  19.118  0.00  0.00    +0.000 A 
ATOM     10  C   UNL     1       6.437   5.476  18.256  0.00  0.00    +0.000 A 
ATOM     11  C   UNL     1       5.484   4.425  18.161  0.00  0.00    +0.000 A 
ATOM     12  H   UNL     1       4.988   6.084  15.473  0.00  0.00    +0.000 HD
ATOM     13  H   UNL     1       8.455   9.205  16.618  0.00  0.00    +0.000 HD
ATOM     14  H   UNL     1       9.328   8.955  18.091  0.00  0.00    +0.000 HD
ENDROOT
BRANCH   9  15
ATOM     15  O   UNL     1       7.820   5.258  20.240  0.00  0.00    +0.000 OA
ATOM     16  H   UNL     1       7.377   5.789  20.925  0.00  0.00    +0.000 HD
ENDBRANCH   9  15
BRANCH  11  17
ATOM     17  S   UNL     1       5.132   3.244  19.408  0.00  0.00    +0.000 S 
BRANCH  17  18
ATOM     18  C   UNL     1       3.468   3.655  19.890  0.00  0.00    +0.000 A 
ATOM     19  C   UNL     1       2.487   2.656  19.921  0.00  0.00    +0.000 A 
ATOM     20  C   UNL     1       1.165   2.973  20.243  0.00  0.00    +0.000 A 
ATOM     21  C   UNL     1       0.816   4.292  20.529  0.00  0.00    +0.000 A 
ATOM     22  C   UNL     1       1.790   5.288  20.485  0.00  0.00    +0.000 A 
ATOM     23 CL   UNL     1       1.355   6.919  20.820  0.00  0.00    +0.000 Cl
ATOM     24  C   UNL     1       3.110   4.978  20.162  0.00  0.00    +0.000 A 
ENDBRANCH  17  18
ENDBRANCH  11  17
TORSDOF 3
ENDMDL
MODEL 5
REMARK VINA RESULT:      -7.1      4.304      6.238
REMARK  Name = 
REMARK  4 active torsions:
REMARK  status: ('A' for Active; 'I' for Inactive)
REMARK    1  A    between atoms: C_1  and  C_2
REMARK    2  A    between atoms: C_9  and  O_10
REMARK    3  A    between atoms: C_12  and  S_13
REMARK    4  A    between atoms: S_13  and  C_14
REMARK                            x       y       z     vdW  Elec       q    Type
REMARK                         _______ _______ _______ _____ _____    ______ ____
ROOT
ATOM      1  C   UNL     1       7.996   7.797  18.150  0.00  0.00    +0.000 C 
ATOM      2  C   UNL     1       7.404   6.697  17.347  0.00  0.00    +0.000 A 
ATOM      3  N   UNL     1       7.630   6.597  15.992  0.00  0.00    +0.000 N 
ATOM      4  C   UNL     1       7.013   5.487  15.493  0.00  0.00    +0.000 A 
ATOM      5  N   UNL     1       7.084   5.083  14.216  0.00  0.00    +0.000 NA
ATOM      6  C   UNL     1       6.406   3.950  13.994  0.00  0.00    +0.000 A 
ATOM      7  N   UNL     1       6.471   3.427  12.718  0.00  0.00    +0.000 N 
ATOM      8  N   UNL     1       5.648   3.285  14.879  0.00  0.00    +0.000 NA
ATOM      9  C   UNL     1       5.618   3.741  16.141  0.00  0.00    +0.000 A 
ATOM     10  C   UNL     1       6.331   4.868  16.526  0.00  0.00    +0.000 A 
ATOM     11  C   UNL     1       6.618   5.614  17.703  0.00  0.00    +0.000 A 
ATOM     12  H   UNL     1       8.197   7.221  15.433  0.00  0.00    +0.000 HD
ATOM     13  H   UNL     1       6.702   4.152  12.054  0.00  0.00    +0.000 HD
ATOM     14  H   UNL     1       5.661   2.855  12.529  0.00  0.00    +0.000 HD
ENDROOT
BRANCH   9  15
ATOM     15  O   UNL     1       4.813   3.027  16.979  0.00  0.00    +0.000 OA
ATOM     16  H   UNL     1       5.386   2.967  17.764  0.00  0.00    +0.000 HD
ENDBRANCH   9  15
BRANCH  11  17
ATOM     17  S   UNL     1       6.173   5.165  19.337  0.00  0.00    +0.000 S 
BRANCH  17  18
ATOM     18  C   UNL     1       4.393   5.207  19.294  0.00  0.00    +0.000 A 
ATOM     19  C   UNL     1       3.740   6.197  18.548  0.00  0.00    +0.000 A 
ATOM     20  C   UNL     1       2.345   6.278  18.549  0.00  0.00    +0.000 A 
ATOM     21  C   UNL     1       1.597   5.373  19.301  0.00  0.00    +0.000 A 
ATOM     22  C   UNL     1       2.248   4.397  20.053  0.00  0.00    +0.000 A 
ATOM     23 CL   UNL     1       1.324   3.292  20.995  0.00  0.00    +0.000 Cl
ATOM     24  C   UNL     1       3.639   4.313  20.057  0.00  0.00    +0.000 A 
ENDBRANCH  17  18
ENDBRANCH  11  17
TORSDOF 3
ENDMDL
MODEL 6
REMARK VINA RESULT:      -7.1      2.716      3.226
REMARK  Name = 
REMARK  4 active torsions:
REMARK  status: ('A' for Active; 'I' for Inactive)
REMARK    1  A    between atoms: C_1  and  C_2
REMARK    2  A    between atoms: C_9  and  O_10
REMARK    3  A    between atoms: C_12  and  S_13
REMARK    4  A    between atoms: S_13  and  C_14
REMARK                            x       y       z     vdW  Elec       q    Type
REMARK                         _______ _______ _______ _____ _____    ______ ____
ROOT
ATOM      1  C   UNL     1       4.863   7.351  17.047  0.00  0.00    +0.000 C 
ATOM      2  C   UNL     1       4.404   6.199  17.864  0.00  0.00    +0.000 A 
ATOM      3  N   UNL     1       3.114   6.129  18.343  0.00  0.00    +0.000 N 
ATOM      4  C   UNL     1       2.929   4.963  19.028  0.00  0.00    +0.000 A 
ATOM      5  N   UNL     1       1.768   4.575  19.574  0.00  0.00    +0.000 NA
ATOM      6  C   UNL     1       1.852   3.379  20.169  0.00  0.00    +0.000 A 
ATOM      7  N   UNL     1       0.688   2.871  20.710  0.00  0.00    +0.000 N 
ATOM      8  N   UNL     1       2.958   2.635  20.318  0.00  0.00    +0.000 NA
ATOM      9  C   UNL     1       4.090   3.080  19.748  0.00  0.00    +0.000 A 
ATOM     10  C   UNL     1       4.129   4.272  19.039  0.00  0.00    +0.000 A 
ATOM     11  C   UNL     1       5.044   5.039  18.266  0.00  0.00    +0.000 A 
ATOM     12  H   UNL     1       2.382   6.811  18.191  0.00  0.00    +0.000 HD
ATOM     13  H   UNL     1       0.038   3.619  20.909  0.00  0.00    +0.000 HD
ATOM     14  H   UNL     1       0.897   2.218  21.452  0.00  0.00    +0.000 HD
ENDROOT
BRANCH   9  15
ATOM     15  O   UNL     1       5.177   2.283  19.956  0.00  0.00    +0.000 OA
ATOM     16  H   UNL     1       5.863   2.957  20.102  0.00  0.00    +0.000 HD
ENDBRANCH   9  15
BRANCH  11  17
ATOM     17  S   UNL     1       6.654   4.539  17.787  0.00  0.00    +0.000 S 
BRANCH  17  18
ATOM     18  C   UNL     1       6.532   4.442  16.014  0.00  0.00    +0.000 A 
ATOM     19  C   UNL     1       5.556   3.625  15.429  0.00  0.00    +0.000 A 
ATOM     20  C   UNL     1       5.484   3.494  14.039  0.00  0.00    +0.000 A 
ATOM     21  C   UNL     1       6.392   4.175  13.228  0.00  0.00    +0.000 A 
ATOM     22  C   UNL     1       7.370   4.977  13.812  0.00  0.00    +0.000 A 
ATOM     23 CL   UNL     1       8.502   5.802  12.812  0.00  0.00    +0.000 Cl
ATOM     24  C   UNL     1       7.448   5.109  15.198  0.00  0.00    +0.000 A 
ENDBRANCH  17  18
ENDBRANCH  11  17
TORSDOF 3
ENDMDL
MODEL 7
REMARK VINA RESULT:      -7.1      3.718      5.550
REMARK  Name = 
REMARK  4 active torsions:
REMARK  status: ('A' for Active; 'I' for Inactive)
REMARK    1  A    between atoms: C_1  and  C_2
REMARK    2  A    between atoms: C_9  and  O_10
REMARK    3  A    between atoms: C_12  and  S_13
REMARK    4  A    between atoms: S_13  and  C_14
REMARK                            x       y       z     vdW  Elec       q    Type
REMARK                         _______ _______ _______ _____ _____    ______ ____
ROOT
ATOM      1  C   UNL     1       1.149   3.551  17.980  0.00  0.00    +0.000 C 
ATOM      2  C   UNL     1       2.587   3.912  17.892  0.00  0.00    +0.000 A 
ATOM      3  N   UNL     1       3.334   3.612  16.773  0.00  0.00    +0.000 N 
ATOM      4  C   UNL     1       4.608   4.080  16.921  0.00  0.00    +0.000 A 
ATOM      5  N   UNL     1       5.566   3.990  15.987  0.00  0.00    +0.000 NA
ATOM      6  C   UNL     1       6.719   4.548  16.375  0.00  0.00    +0.000 A 
ATOM      7  N   UNL     1       7.747   4.554  15.454  0.00  0.00    +0.000 N 
ATOM      8  N   UNL     1       6.986   5.078  17.577  0.00  0.00    +0.000 NA
ATOM      9  C   UNL     1       5.984   5.138  18.469  0.00  0.00    +0.000 A 
ATOM     10  C   UNL     1       4.716   4.659  18.173  0.00  0.00    +0.000 A 
ATOM     11  C   UNL     1       3.424   4.587  18.764  0.00  0.00    +0.000 A 
ATOM     12  H   UNL     1       3.001   3.148  15.939  0.00  0.00    +0.000 HD
ATOM     13  H   UNL     1       7.611   3.822  14.771  0.00  0.00    +0.000 HD
ATOM     14  H   UNL     1       8.641   4.604  15.921  0.00  0.00    +0.000 HD
ENDROOT
BRANCH   9  15
ATOM     15  O   UNL     1       6.334   5.671  19.675  0.00  0.00    +0.000 OA
ATOM     16  H   UNL     1       7.007   5.029  19.962  0.00  0.00    +0.000 HD
ENDBRANCH   9  15
BRANCH  11  17
ATOM     17  S   UNL     1       2.940   5.343  20.269  0.00  0.00    +0.000 S 
BRANCH  17  18
ATOM     18  C   UNL     1       2.274   6.905  19.736  0.00  0.00    +0.000 A 
ATOM     19  C   UNL     1       2.518   7.357  18.433  0.00  0.00    +0.000 A 
ATOM     20  C   UNL     1       2.049   8.606  18.018  0.00  0.00    +0.000 A 
ATOM     21  C   UNL     1       1.339   9.412  18.906  0.00  0.00    +0.000 A 
ATOM     22  C   UNL     1       1.107   8.968  20.207  0.00  0.00    +0.000 A 
ATOM     23 CL   UNL     1       0.246   9.972  21.308  0.00  0.00    +0.000 Cl
ATOM     24  C   UNL     1       1.575   7.724  20.627  0.00  0.00    +0.000 A 
ENDBRANCH  17  18
ENDBRANCH  11  17
TORSDOF 3
ENDMDL
MODEL 8
REMARK VINA RESULT:      -7.1      1.195      1.602
REMARK  Name = 
REMARK  4 active torsions:
REMARK  status: ('A' for Active; 'I' for Inactive)
REMARK    1  A    between atoms: C_1  and  C_2
REMARK    2  A    between atoms: C_9  and  O_10
REMARK    3  A    between atoms: C_12  and  S_13
REMARK    4  A    between atoms: S_13  and  C_14
REMARK                            x       y       z     vdW  Elec       q    Type
REMARK                         _______ _______ _______ _____ _____    ______ ____
ROOT
ATOM      1  C   UNL     1       2.265   7.891  18.142  0.00  0.00    +0.000 C 
ATOM      2  C   UNL     1       2.473   6.567  18.782  0.00  0.00    +0.000 A 
ATOM      3  N   UNL     1       1.718   6.168  19.863  0.00  0.00    +0.000 N 
ATOM      4  C   UNL     1       2.071   4.905  20.242  0.00  0.00    +0.000 A 
ATOM      5  N   UNL     1       1.487   4.214  21.231  0.00  0.00    +0.000 NA
ATOM      6  C   UNL     1       2.007   2.990  21.383  0.00  0.00    +0.000 A 
ATOM      7  N   UNL     1       1.427   2.183  22.342  0.00  0.00    +0.000 N 
ATOM      8  N   UNL     1       3.050   2.476  20.716  0.00  0.00    +0.000 NA
ATOM      9  C   UNL     1       3.591   3.218  19.737  0.00  0.00    +0.000 A 
ATOM     10  C   UNL     1       3.105   4.480  19.426  0.00  0.00    +0.000 A 
ATOM     11  C   UNL     1       3.325   5.518  18.479  0.00  0.00    +0.000 A 
ATOM     12  H   UNL     1       0.980   6.699  20.306  0.00  0.00    +0.000 HD
ATOM     13  H   UNL     1       0.955   2.747  23.035  0.00  0.00    +0.000 HD
ATOM     14  H   UNL     1       2.086   1.490  22.668  0.00  0.00    +0.000 HD
ENDROOT
BRANCH   9  15
ATOM     15  O   UNL     1       4.660   2.640  19.116  0.00  0.00    +0.000 OA
ATOM     16  H   UNL     1       5.020   2.107  19.846  0.00  0.00    +0.000 HD
ENDBRANCH   9  15
BRANCH  11  17
ATOM     17  S   UNL     1       4.387   5.431  17.089  0.00  0.00    +0.000 S 
BRANCH  17  18
ATOM     18  C   UNL     1       5.907   6.127  17.701  0.00  0.00    +0.000 A 
ATOM     19  C   UNL     1       6.444   7.268  17.091  0.00  0.00    +0.000 A 
ATOM     20  C   UNL     1       7.664   7.794  17.524  0.00  0.00    +0.000 A 
ATOM     21  C   UNL     1       8.357   7.177  18.564  0.00  0.00    +0.000 A 
ATOM     22  C   UNL     1       7.829   6.034  19.162  0.00  0.00    +0.000 A 
ATOM     23 CL   UNL     1       8.694   5.262  20.434  0.00  0.00    +0.000 Cl
ATOM     24  C   UNL     1       6.613   5.504  18.733  0.00  0.00    +0.000 A 
ENDBRANCH  17  18
ENDBRANCH  11  17
TORSDOF 3
ENDMDL
MODEL 9
REMARK VINA RESULT:      -7.1      1.675      1.693
REMARK  Name = 
REMARK  4 active torsions:
REMARK  status: ('A' for Active; 'I' for Inactive)
REMARK    1  A    between atoms: C_1  and  C_2
REMARK    2  A    between atoms: C_9  and  O_10
REMARK    3  A    between atoms: C_12  and  S_13
REMARK    4  A    between atoms: S_13  and  C_14
REMARK                            x       y       z     vdW  Elec       q    Type
REMARK                         _______ _______ _______ _____ _____    ______ ____
ROOT
ATOM      1  C   UNL     1       2.885   8.216  17.760  0.00  0.00    +0.000 C 
ATOM      2  C   UNL     1       2.963   6.734  17.809  0.00  0.00    +0.000 A 
ATOM      3  N   UNL     1       2.013   5.987  18.471  0.00  0.00    +0.000 N 
ATOM      4  C   UNL     1       2.285   4.656  18.337  0.00  0.00    +0.000 A 
ATOM      5  N   UNL     1       1.520   3.669  18.825  0.00  0.00    +0.000 NA
ATOM      6  C   UNL     1       2.000   2.453  18.535  0.00  0.00    +0.000 A 
ATOM      7  N   UNL     1       1.245   1.373  18.948  0.00  0.00    +0.000 N 
ATOM      8  N   UNL     1       3.152   2.177  17.907  0.00  0.00    +0.000 NA
ATOM      9  C   UNL     1       3.873   3.210  17.443  0.00  0.00    +0.000 A 
ATOM     10  C   UNL     1       3.457   4.523  17.613  0.00  0.00    +0.000 A 
ATOM     11  C   UNL     1       3.857   5.838  17.246  0.00  0.00    +0.000 A 
ATOM     12  H   UNL     1       1.204   6.346  18.959  0.00  0.00    +0.000 HD
ATOM     13  H   UNL     1       0.648   1.637  19.719  0.00  0.00    +0.000 HD
ATOM     14  H   UNL     1       1.828   0.556  19.060  0.00  0.00    +0.000 HD
ENDROOT
BRANCH   9  15
ATOM     15  O   UNL     1       5.040   2.854  16.833  0.00  0.00    +0.000 OA
ATOM     16  H   UNL     1       4.814   3.035  15.904  0.00  0.00    +0.000 HD
ENDBRANCH   9  15
BRANCH  11  17
ATOM     17  S   UNL     1       5.167   6.246  16.157  0.00  0.00    +0.000 S 
BRANCH  17  18
ATOM     18  C   UNL     1       6.511   6.611  17.267  0.00  0.00    +0.000 A 
ATOM     19  C   UNL     1       6.924   5.650  18.198  0.00  0.00    +0.000 A 
ATOM     20  C   UNL     1       7.940   5.941  19.112  0.00  0.00    +0.000 A 
ATOM     21  C   UNL     1       8.543   7.199  19.105  0.00  0.00    +0.000 A 
ATOM     22  C   UNL     1       8.122   8.159  18.186  0.00  0.00    +0.000 A 
ATOM     23 CL   UNL     1       8.854   9.717  18.189  0.00  0.00    +0.000 Cl
ATOM     24  C   UNL     1       7.108   7.874  17.273  0.00  0.00    +0.000 A 
ENDBRANCH  17  18
ENDBRANCH  11  17
TORSDOF 3
ENDMDL
