MODEL 1
REMARK VINA RESULT:      -7.9      0.000      0.000
REMARK  Name = 
REMARK  6 active torsions:
REMARK  status: ('A' for Active; 'I' for Inactive)
REMARK    1  A    between atoms: C_1  and  C_2
REMARK    2  A    between atoms: C_2  and  O_3
REMARK    3  A    between atoms: O_3  and  C_4
REMARK    4  A    between atoms: C_9  and  C_10
REMARK    5  A    between atoms: C_10  and  N_11
REMARK    6  A    between atoms: C_12  and  C_14
REMARK                            x       y       z     vdW  Elec       q    Type
REMARK                         _______ _______ _______ _____ _____    ______ ____
ROOT
ATOM      1  C   UNL     1       0.358  10.862  20.821  0.00  0.00    +0.000 A 
ATOM      2  C   UNL     1       0.634  11.171  19.541  0.00  0.00    +0.000 A 
ATOM      3  N   UNL     1       1.244  10.349  18.625  0.00  0.00    +0.000 NA
ATOM      4  C   UNL     1       1.567   9.183  19.069  0.00  0.00    +0.000 A 
ATOM      5  S   UNL     1       2.417   8.017  18.132  0.00  0.00    +0.000 S 
ATOM      6  C   UNL     1       2.378   6.940  19.528  0.00  0.00    +0.000 A 
ATOM      7  N   UNL     1       2.969   5.688  19.416  0.00  0.00    +0.000 N 
ATOM      8  C   UNL     1       4.152   5.452  18.585  0.00  0.00    +0.000 C 
ATOM      9  C   UNL     1       3.752   4.822  17.252  0.00  0.00    +0.000 C 
ATOM     10  C   UNL     1       3.366   3.348  17.348  0.00  0.00    +0.000 C 
ATOM     11  C   UNL     1       2.301   3.020  18.398  0.00  0.00    +0.000 C 
ATOM     12  C   UNL     1       2.795   3.218  19.834  0.00  0.00    +0.000 C 
ATOM     13  C   UNL     1       2.619   4.641  20.379  0.00  0.00    +0.000 C 
ATOM     14  N   UNL     1       1.755   7.409  20.570  0.00  0.00    +0.000 NA
ATOM     15  N   UNL     1       1.316   8.701  20.317  0.00  0.00    +0.000 N 
ATOM     16  C   UNL     1       0.680   9.477  21.280  0.00  0.00    +0.000 A 
ATOM     17  O   UNL     1       0.398   9.114  22.421  0.00  0.00    +0.000 OA
ENDROOT
BRANCH   1  19
ATOM     18  N   UNL     1      -1.354  11.680  22.349  0.00  0.00    +0.000 N 
ATOM     19  C   UNL     1      -0.202  11.958  21.666  0.00  0.00    +0.000 C 
ATOM     20  O   UNL     1       0.371  13.043  21.758  0.00  0.00    +0.000 OA
ATOM     21  H   UNL     1      -1.797  10.769  22.250  0.00  0.00    +0.000 HD
BRANCH  18  22
ATOM     22  C   UNL     1      -1.947  12.618  23.282  0.00  0.00    +0.000 C 
BRANCH  22  28
ATOM     23  C   UNL     1      -4.178  12.861  22.060  0.00  0.00    +0.000 A 
ATOM     24  C   UNL     1      -5.580  12.860  22.077  0.00  0.00    +0.000 A 
ATOM     25  C   UNL     1      -6.275  12.729  23.279  0.00  0.00    +0.000 A 
ATOM     26  C   UNL     1      -5.574  12.553  24.465  0.00  0.00    +0.000 A 
ATOM     27  C   UNL     1      -4.179  12.482  24.446  0.00  0.00    +0.000 A 
ATOM     28  C   UNL     1      -3.460  12.633  23.246  0.00  0.00    +0.000 A 
BRANCH  23  29
ATOM     29  O   UNL     1      -3.440  13.095  20.927  0.00  0.00    +0.000 OA
BRANCH  29  31
ATOM     30  C   UNL     1      -2.929  11.802  18.980  0.00  0.00    +0.000 C 
ATOM     31  C   UNL     1      -4.002  12.583  19.715  0.00  0.00    +0.000 C 
ENDBRANCH  29  31
ENDBRANCH  23  29
ENDBRANCH  22  28
ENDBRANCH  18  22
ENDBRANCH   1  19
TORSDOF 5
ENDMDL
MODEL 2
REMARK VINA RESULT:      -7.9      0.939      1.018
REMARK  Name = 
REMARK  6 active torsions:
REMARK  status: ('A' for Active; 'I' for Inactive)
REMARK    1  A    between atoms: C_1  and  C_2
REMARK    2  A    between atoms: C_2  and  O_3
REMARK    3  A    between atoms: O_3  and  C_4
REMARK    4  A    between atoms: C_9  and  C_10
REMARK    5  A    between atoms: C_10  and  N_11
REMARK    6  A    between atoms: C_12  and  C_14
REMARK                            x       y       z     vdW  Elec       q    Type
REMARK                         _______ _______ _______ _____ _____    ______ ____
ROOT
ATOM      1  C   UNL     1       0.855  10.330  20.295  0.00  0.00    +0.000 A 
ATOM      2  C   UNL     1       1.259  10.444  19.018  0.00  0.00    +0.000 A 
ATOM      3  N   UNL     1       1.832   9.452  18.258  0.00  0.00    +0.000 NA
ATOM      4  C   UNL     1       1.979   8.322  18.860  0.00  0.00    +0.000 A 
ATOM      5  S   UNL     1       2.750   6.962  18.142  0.00  0.00    +0.000 S 
ATOM      6  C   UNL     1       2.480   6.079  19.644  0.00  0.00    +0.000 A 
ATOM      7  N   UNL     1       2.923   4.765  19.729  0.00  0.00    +0.000 N 
ATOM      8  C   UNL     1       4.127   4.298  19.037  0.00  0.00    +0.000 C 
ATOM      9  C   UNL     1       3.753   3.555  17.756  0.00  0.00    +0.000 C 
ATOM     10  C   UNL     1       3.187   2.156  17.987  0.00  0.00    +0.000 C 
ATOM     11  C   UNL     1       2.016   2.081  18.972  0.00  0.00    +0.000 C 
ATOM     12  C   UNL     1       2.424   2.400  20.413  0.00  0.00    +0.000 C 
ATOM     13  C   UNL     1       2.381   3.891  20.772  0.00  0.00    +0.000 C 
ATOM     14  N   UNL     1       1.843   6.740  20.567  0.00  0.00    +0.000 NA
ATOM     15  N   UNL     1       1.582   8.030  20.129  0.00  0.00    +0.000 N 
ATOM     16  C   UNL     1       0.975   8.985  20.937  0.00  0.00    +0.000 A 
ATOM     17  O   UNL     1       0.568   8.801  22.084  0.00  0.00    +0.000 OA
ENDROOT
BRANCH   1  19
ATOM     18  N   UNL     1      -0.650  11.439  21.856  0.00  0.00    +0.000 N 
ATOM     19  C   UNL     1       0.370  11.577  20.956  0.00  0.00    +0.000 C 
ATOM     20  O   UNL     1       0.893  12.665  20.717  0.00  0.00    +0.000 OA
ATOM     21  H   UNL     1      -1.055  10.521  22.030  0.00  0.00    +0.000 HD
BRANCH  18  22
ATOM     22  C   UNL     1      -1.147  12.552  22.641  0.00  0.00    +0.000 C 
BRANCH  22  28
ATOM     23  C   UNL     1      -3.405  12.802  21.472  0.00  0.00    +0.000 A 
ATOM     24  C   UNL     1      -4.803  12.893  21.536  0.00  0.00    +0.000 A 
ATOM     25  C   UNL     1      -5.457  12.939  22.766  0.00  0.00    +0.000 A 
ATOM     26  C   UNL     1      -4.722  12.849  23.941  0.00  0.00    +0.000 A 
ATOM     27  C   UNL     1      -3.336  12.686  23.885  0.00  0.00    +0.000 A 
ATOM     28  C   UNL     1      -2.656  12.660  22.653  0.00  0.00    +0.000 A 
BRANCH  23  29
ATOM     29  O   UNL     1      -2.700  12.864  20.297  0.00  0.00    +0.000 OA
BRANCH  29  31
ATOM     30  C   UNL     1      -2.099  11.856  18.213  0.00  0.00    +0.000 C 
ATOM     31  C   UNL     1      -3.199  12.040  19.241  0.00  0.00    +0.000 C 
ENDBRANCH  29  31
ENDBRANCH  23  29
ENDBRANCH  22  28
ENDBRANCH  18  22
ENDBRANCH   1  19
TORSDOF 5
ENDMDL
MODEL 3
REMARK VINA RESULT:      -7.9      1.405      1.705
REMARK  Name = 
REMARK  6 active torsions:
REMARK  status: ('A' for Active; 'I' for Inactive)
REMARK    1  A    between atoms: C_1  and  C_2
REMARK    2  A    between atoms: C_2  and  O_3
REMARK    3  A    between atoms: O_3  and  C_4
REMARK    4  A    between atoms: C_9  and  C_10
REMARK    5  A    between atoms: C_10  and  N_11
REMARK    6  A    between atoms: C_12  and  C_14
REMARK                            x       y       z     vdW  Elec       q    Type
REMARK                         _______ _______ _______ _____ _____    ______ ____
ROOT
ATOM      1  C   UNL     1       0.971  10.371  19.472  0.00  0.00    +0.000 A 
ATOM      2  C   UNL     1       1.518  10.348  18.244  0.00  0.00    +0.000 A 
ATOM      3  N   UNL     1       2.174   9.286  17.669  0.00  0.00    +0.000 NA
ATOM      4  C   UNL     1       2.253   8.232  18.407  0.00  0.00    +0.000 A 
ATOM      5  S   UNL     1       3.102   6.812  17.937  0.00  0.00    +0.000 S 
ATOM      6  C   UNL     1       2.663   6.097  19.488  0.00  0.00    +0.000 A 
ATOM      7  N   UNL     1       3.095   4.807  19.768  0.00  0.00    +0.000 N 
ATOM      8  C   UNL     1       4.370   4.282  19.274  0.00  0.00    +0.000 C 
ATOM      9  C   UNL     1       4.146   3.397  18.050  0.00  0.00    +0.000 C 
ATOM     10  C   UNL     1       3.558   2.025  18.370  0.00  0.00    +0.000 C 
ATOM     11  C   UNL     1       2.283   2.043  19.218  0.00  0.00    +0.000 C 
ATOM     12  C   UNL     1       2.524   2.526  20.651  0.00  0.00    +0.000 C 
ATOM     13  C   UNL     1       2.438   4.046  20.835  0.00  0.00    +0.000 C 
ATOM     14  N   UNL     1       1.925   6.847  20.253  0.00  0.00    +0.000 NA
ATOM     15  N   UNL     1       1.714   8.078  19.647  0.00  0.00    +0.000 N 
ATOM     16  C   UNL     1       1.018   9.108  20.269  0.00  0.00    +0.000 A 
ATOM     17  O   UNL     1       0.483   9.046  21.376  0.00  0.00    +0.000 OA
ENDROOT
BRANCH   1  19
ATOM     18  N   UNL     1      -0.772  11.634  20.612  0.00  0.00    +0.000 N 
ATOM     19  C   UNL     1       0.413  11.677  19.930  0.00  0.00    +0.000 C 
ATOM     20  O   UNL     1       1.015  12.731  19.725  0.00  0.00    +0.000 OA
ATOM     21  H   UNL     1      -1.238  10.742  20.766  0.00  0.00    +0.000 HD
BRANCH  18  22
ATOM     22  C   UNL     1      -1.372  12.816  21.199  0.00  0.00    +0.000 C 
BRANCH  22  28
ATOM     23  C   UNL     1      -3.631  12.479  20.054  0.00  0.00    +0.000 A 
ATOM     24  C   UNL     1      -5.032  12.463  20.110  0.00  0.00    +0.000 A 
ATOM     25  C   UNL     1      -5.700  12.843  21.273  0.00  0.00    +0.000 A 
ATOM     26  C   UNL     1      -4.972  13.200  22.401  0.00  0.00    +0.000 A 
ATOM     27  C   UNL     1      -3.577  13.150  22.375  0.00  0.00    +0.000 A 
ATOM     28  C   UNL     1      -2.885  12.789  21.204  0.00  0.00    +0.000 A 
BRANCH  23  29
ATOM     29  O   UNL     1      -2.921  12.223  18.908  0.00  0.00    +0.000 OA
BRANCH  29  31
ATOM     30  C   UNL     1      -2.352  10.251  17.679  0.00  0.00    +0.000 C 
ATOM     31  C   UNL     1      -3.467  11.203  18.067  0.00  0.00    +0.000 C 
ENDBRANCH  29  31
ENDBRANCH  23  29
ENDBRANCH  22  28
ENDBRANCH  18  22
ENDBRANCH   1  19
TORSDOF 5
ENDMDL
MODEL 4
REMARK VINA RESULT:      -7.8      2.726     10.019
REMARK  Name = 
REMARK  6 active torsions:
REMARK  status: ('A' for Active; 'I' for Inactive)
REMARK    1  A    between atoms: C_1  and  C_2
REMARK    2  A    between atoms: C_2  and  O_3
REMARK    3  A    between atoms: O_3  and  C_4
REMARK    4  A    between atoms: C_9  and  C_10
REMARK    5  A    between atoms: C_10  and  N_11
REMARK    6  A    between atoms: C_12  and  C_14
REMARK                            x       y       z     vdW  Elec       q    Type
REMARK                         _______ _______ _______ _____ _____    ______ ____
ROOT
ATOM      1  C   UNL     1       1.136   9.103  19.523  0.00  0.00    +0.000 A 
ATOM      2  C   UNL     1       1.316   8.726  20.801  0.00  0.00    +0.000 A 
ATOM      3  N   UNL     1       0.655   9.231  21.895  0.00  0.00    +0.000 NA
ATOM      4  C   UNL     1      -0.211  10.149  21.631  0.00  0.00    +0.000 A 
ATOM      5  S   UNL     1      -1.096  10.989  22.844  0.00  0.00    +0.000 S 
ATOM      6  C   UNL     1      -1.866  11.925  21.563  0.00  0.00    +0.000 A 
ATOM      7  N   UNL     1      -2.797  12.893  21.917  0.00  0.00    +0.000 N 
ATOM      8  C   UNL     1      -2.692  13.662  23.160  0.00  0.00    +0.000 C 
ATOM      9  C   UNL     1      -3.633  13.094  24.220  0.00  0.00    +0.000 C 
ATOM     10  C   UNL     1      -5.106  13.422  23.990  0.00  0.00    +0.000 C 
ATOM     11  C   UNL     1      -5.643  13.067  22.601  0.00  0.00    +0.000 C 
ATOM     12  C   UNL     1      -5.043  13.931  21.488  0.00  0.00    +0.000 C 
ATOM     13  C   UNL     1      -3.728  13.398  20.905  0.00  0.00    +0.000 C 
ATOM     14  N   UNL     1      -1.510  11.602  20.353  0.00  0.00    +0.000 NA
ATOM     15  N   UNL     1      -0.544  10.607  20.394  0.00  0.00    +0.000 N 
ATOM     16  C   UNL     1       0.073  10.117  19.248  0.00  0.00    +0.000 A 
ATOM     17  O   UNL     1      -0.181  10.460  18.094  0.00  0.00    +0.000 OA
ENDROOT
BRANCH   1  19
ATOM     18  N   UNL     1       2.579   7.273  18.816  0.00  0.00    +0.000 N 
ATOM     19  C   UNL     1       2.055   8.499  18.513  0.00  0.00    +0.000 C 
ATOM     20  O   UNL     1       2.295   9.073  17.452  0.00  0.00    +0.000 OA
ATOM     21  H   UNL     1       2.354   6.828  19.703  0.00  0.00    +0.000 HD
BRANCH  18  22
ATOM     22  C   UNL     1       3.403   6.531  17.881  0.00  0.00    +0.000 C 
BRANCH  22  28
ATOM     23  C   UNL     1       4.137   4.097  17.622  0.00  0.00    +0.000 A 
ATOM     24  C   UNL     1       3.836   2.727  17.642  0.00  0.00    +0.000 A 
ATOM     25  C   UNL     1       2.525   2.292  17.827  0.00  0.00    +0.000 A 
ATOM     26  C   UNL     1       1.513   3.220  18.039  0.00  0.00    +0.000 A 
ATOM     27  C   UNL     1       1.817   4.582  18.091  0.00  0.00    +0.000 A 
ATOM     28  C   UNL     1       3.131   5.042  17.885  0.00  0.00    +0.000 A 
BRANCH  23  29
ATOM     29  O   UNL     1       5.386   4.588  17.335  0.00  0.00    +0.000 OA
BRANCH  29  31
ATOM     30  C   UNL     1       5.559   4.943  14.975  0.00  0.00    +0.000 C 
ATOM     31  C   UNL     1       5.986   4.074  16.143  0.00  0.00    +0.000 C 
ENDBRANCH  29  31
ENDBRANCH  23  29
ENDBRANCH  22  28
ENDBRANCH  18  22
ENDBRANCH   1  19
TORSDOF 5
ENDMDL
MODEL 5
REMARK VINA RESULT:      -7.8      3.105     10.371
REMARK  Name = 
REMARK  6 active torsions:
REMARK  status: ('A' for Active; 'I' for Inactive)
REMARK    1  A    between atoms: C_1  and  C_2
REMARK    2  A    between atoms: C_2  and  O_3
REMARK    3  A    between atoms: O_3  and  C_4
REMARK    4  A    between atoms: C_9  and  C_10
REMARK    5  A    between atoms: C_10  and  N_11
REMARK    6  A    between atoms: C_12  and  C_14
REMARK                            x       y       z     vdW  Elec       q    Type
REMARK                         _______ _______ _______ _____ _____    ______ ____
ROOT
ATOM      1  C   UNL     1       2.265   7.696  18.830  0.00  0.00    +0.000 A 
ATOM      2  C   UNL     1       2.368   8.535  17.784  0.00  0.00    +0.000 A 
ATOM      3  N   UNL     1       1.831   9.797  17.704  0.00  0.00    +0.000 NA
ATOM      4  C   UNL     1       1.175  10.177  18.746  0.00  0.00    +0.000 A 
ATOM      5  S   UNL     1       0.342  11.680  18.843  0.00  0.00    +0.000 S 
ATOM      6  C   UNL     1      -0.174  11.231  20.468  0.00  0.00    +0.000 A 
ATOM      7  N   UNL     1      -0.972  12.119  21.178  0.00  0.00    +0.000 N 
ATOM      8  C   UNL     1      -1.950  12.991  20.521  0.00  0.00    +0.000 C 
ATOM      9  C   UNL     1      -1.390  14.404  20.371  0.00  0.00    +0.000 C 
ATOM     10  C   UNL     1      -1.357  15.204  21.671  0.00  0.00    +0.000 C 
ATOM     11  C   UNL     1      -0.662  14.511  22.846  0.00  0.00    +0.000 C 
ATOM     12  C   UNL     1      -1.426  13.285  23.355  0.00  0.00    +0.000 C 
ATOM     13  C   UNL     1      -1.087  11.976  22.632  0.00  0.00    +0.000 C 
ATOM     14  N   UNL     1       0.271  10.085  20.893  0.00  0.00    +0.000 NA
ATOM     15  N   UNL     1       1.019   9.470  19.898  0.00  0.00    +0.000 N 
ATOM     16  C   UNL     1       1.560   8.198  20.048  0.00  0.00    +0.000 A 
ATOM     17  O   UNL     1       1.484   7.501  21.059  0.00  0.00    +0.000 OA
ENDROOT
BRANCH   1  19
ATOM     18  N   UNL     1       4.163   6.245  18.355  0.00  0.00    +0.000 N 
ATOM     19  C   UNL     1       2.829   6.326  18.645  0.00  0.00    +0.000 C 
ATOM     20  O   UNL     1       2.124   5.327  18.779  0.00  0.00    +0.000 OA
ATOM     21  H   UNL     1       4.715   7.095  18.256  0.00  0.00    +0.000 HD
BRANCH  18  22
ATOM     22  C   UNL     1       4.858   4.976  18.251  0.00  0.00    +0.000 C 
BRANCH  22  28
ATOM     23  C   UNL     1       6.797   5.445  16.655  0.00  0.00    +0.000 A 
ATOM     24  C   UNL     1       7.437   5.236  15.424  0.00  0.00    +0.000 A 
ATOM     25  C   UNL     1       6.836   4.459  14.435  0.00  0.00    +0.000 A 
ATOM     26  C   UNL     1       5.614   3.848  14.686  0.00  0.00    +0.000 A 
ATOM     27  C   UNL     1       5.005   3.993  15.934  0.00  0.00    +0.000 A 
ATOM     28  C   UNL     1       5.586   4.791  16.937  0.00  0.00    +0.000 A 
BRANCH  23  29
ATOM     29  O   UNL     1       7.285   6.286  17.623  0.00  0.00    +0.000 OA
BRANCH  29  31
ATOM     30  C   UNL     1       8.273   8.405  18.132  0.00  0.00    +0.000 C 
ATOM     31  C   UNL     1       7.227   7.680  17.306  0.00  0.00    +0.000 C 
ENDBRANCH  29  31
ENDBRANCH  23  29
ENDBRANCH  22  28
ENDBRANCH  18  22
ENDBRANCH   1  19
TORSDOF 5
ENDMDL
MODEL 6
REMARK VINA RESULT:      -7.7      2.417      3.624
REMARK  Name = 
REMARK  6 active torsions:
REMARK  status: ('A' for Active; 'I' for Inactive)
REMARK    1  A    between atoms: C_1  and  C_2
REMARK    2  A    between atoms: C_2  and  O_3
REMARK    3  A    between atoms: O_3  and  C_4
REMARK    4  A    between atoms: C_9  and  C_10
REMARK    5  A    between atoms: C_10  and  N_11
REMARK    6  A    between atoms: C_12  and  C_14
REMARK                            x       y       z     vdW  Elec       q    Type
REMARK                         _______ _______ _______ _____ _____    ______ ____
ROOT
ATOM      1  C   UNL     1       0.302   9.845  20.357  0.00  0.00    +0.000 A 
ATOM      2  C   UNL     1       0.360   8.895  21.307  0.00  0.00    +0.000 A 
ATOM      3  N   UNL     1       1.095   7.735  21.247  0.00  0.00    +0.000 NA
ATOM      4  C   UNL     1       1.779   7.579  20.167  0.00  0.00    +0.000 A 
ATOM      5  S   UNL     1       2.705   6.168  19.829  0.00  0.00    +0.000 S 
ATOM      6  C   UNL     1       3.147   6.890  18.282  0.00  0.00    +0.000 A 
ATOM      7  N   UNL     1       3.977   6.173  17.430  0.00  0.00    +0.000 N 
ATOM      8  C   UNL     1       3.946   4.710  17.355  0.00  0.00    +0.000 C 
ATOM      9  C   UNL     1       5.097   4.109  18.158  0.00  0.00    +0.000 C 
ATOM     10  C   UNL     1       6.463   4.243  17.490  0.00  0.00    +0.000 C 
ATOM     11  C   UNL     1       6.841   5.662  17.056  0.00  0.00    +0.000 C 
ATOM     12  C   UNL     1       5.975   6.188  15.908  0.00  0.00    +0.000 C 
ATOM     13  C   UNL     1       4.676   6.874  16.350  0.00  0.00    +0.000 C 
ATOM     14  N   UNL     1       2.671   8.083  18.072  0.00  0.00    +0.000 NA
ATOM     15  N   UNL     1       1.866   8.464  19.136  0.00  0.00    +0.000 N 
ATOM     16  C   UNL     1       1.165   9.666  19.150  0.00  0.00    +0.000 A 
ATOM     17  O   UNL     1       1.203  10.528  18.274  0.00  0.00    +0.000 OA
ENDROOT
BRANCH   1  19
ATOM     18  N   UNL     1      -1.192  11.557  19.479  0.00  0.00    +0.000 N 
ATOM     19  C   UNL     1      -0.659  10.964  20.590  0.00  0.00    +0.000 C 
ATOM     20  O   UNL     1      -0.971  11.304  21.730  0.00  0.00    +0.000 OA
ATOM     21  H   UNL     1      -0.912  11.244  18.551  0.00  0.00    +0.000 HD
BRANCH  18  22
ATOM     22  C   UNL     1      -2.211  12.584  19.562  0.00  0.00    +0.000 C 
BRANCH  22  28
ATOM     23  C   UNL     1      -3.827  11.469  17.926  0.00  0.00    +0.000 A 
ATOM     24  C   UNL     1      -5.121  11.039  17.598  0.00  0.00    +0.000 A 
ATOM     25  C   UNL     1      -6.196  11.319  18.439  0.00  0.00    +0.000 A 
ATOM     26  C   UNL     1      -5.980  11.991  19.635  0.00  0.00    +0.000 A 
ATOM     27  C   UNL     1      -4.684  12.360  20.002  0.00  0.00    +0.000 A 
ATOM     28  C   UNL     1      -3.588  12.105  19.156  0.00  0.00    +0.000 A 
BRANCH  23  29
ATOM     29  O   UNL     1      -2.750  11.321  17.088  0.00  0.00    +0.000 OA
BRANCH  29  31
ATOM     30  C   UNL     1      -2.881  10.256  14.950  0.00  0.00    +0.000 C 
ATOM     31  C   UNL     1      -2.654  10.052  16.436  0.00  0.00    +0.000 C 
ENDBRANCH  29  31
ENDBRANCH  23  29
ENDBRANCH  22  28
ENDBRANCH  18  22
ENDBRANCH   1  19
TORSDOF 5
ENDMDL
MODEL 7
REMARK VINA RESULT:      -7.7      2.496      9.513
REMARK  Name = 
REMARK  6 active torsions:
REMARK  status: ('A' for Active; 'I' for Inactive)
REMARK    1  A    between atoms: C_1  and  C_2
REMARK    2  A    between atoms: C_2  and  O_3
REMARK    3  A    between atoms: O_3  and  C_4
REMARK    4  A    between atoms: C_9  and  C_10
REMARK    5  A    between atoms: C_10  and  N_11
REMARK    6  A    between atoms: C_12  and  C_14
REMARK                            x       y       z     vdW  Elec       q    Type
REMARK                         _______ _______ _______ _____ _____    ______ ____
ROOT
ATOM      1  C   UNL     1       1.272   9.080  19.112  0.00  0.00    +0.000 A 
ATOM      2  C   UNL     1       0.700   9.614  18.019  0.00  0.00    +0.000 A 
ATOM      3  N   UNL     1      -0.290  10.567  18.007  0.00  0.00    +0.000 NA
ATOM      4  C   UNL     1      -0.680  10.961  19.170  0.00  0.00    +0.000 A 
ATOM      5  S   UNL     1      -1.965  12.081  19.407  0.00  0.00    +0.000 S 
ATOM      6  C   UNL     1      -1.723  11.913  21.145  0.00  0.00    +0.000 A 
ATOM      7  N   UNL     1      -2.542  12.640  22.001  0.00  0.00    +0.000 N 
ATOM      8  C   UNL     1      -3.937  12.947  21.677  0.00  0.00    +0.000 C 
ATOM      9  C   UNL     1      -4.063  14.379  21.161  0.00  0.00    +0.000 C 
ATOM     10  C   UNL     1      -3.945  15.447  22.245  0.00  0.00    +0.000 C 
ATOM     11  C   UNL     1      -2.702  15.340  23.133  0.00  0.00    +0.000 C 
ATOM     12  C   UNL     1      -2.714  14.103  24.035  0.00  0.00    +0.000 C 
ATOM     13  C   UNL     1      -2.129  12.839  23.393  0.00  0.00    +0.000 C 
ATOM     14  N   UNL     1      -0.750  11.123  21.494  0.00  0.00    +0.000 NA
ATOM     15  N   UNL     1      -0.173  10.557  20.366  0.00  0.00    +0.000 N 
ATOM     16  C   UNL     1       0.846   9.614  20.442  0.00  0.00    +0.000 A 
ATOM     17  O   UNL     1       1.374   9.209  21.477  0.00  0.00    +0.000 OA
ENDROOT
BRANCH   1  19
ATOM     18  N   UNL     1       2.423   7.088  19.912  0.00  0.00    +0.000 N 
ATOM     19  C   UNL     1       2.244   7.971  18.883  0.00  0.00    +0.000 C 
ATOM     20  O   UNL     1       2.827   7.852  17.806  0.00  0.00    +0.000 OA
ATOM     21  H   UNL     1       1.920   7.218  20.787  0.00  0.00    +0.000 HD
BRANCH  18  22
ATOM     22  C   UNL     1       3.260   5.910  19.786  0.00  0.00    +0.000 C 
BRANCH  22  28
ATOM     23  C   UNL     1       2.655   4.022  18.174  0.00  0.00    +0.000 A 
ATOM     24  C   UNL     1       1.924   2.861  17.881  0.00  0.00    +0.000 A 
ATOM     25  C   UNL     1       0.964   2.383  18.771  0.00  0.00    +0.000 A 
ATOM     26  C   UNL     1       0.760   3.034  19.981  0.00  0.00    +0.000 A 
ATOM     27  C   UNL     1       1.534   4.149  20.311  0.00  0.00    +0.000 A 
ATOM     28  C   UNL     1       2.492   4.659  19.416  0.00  0.00    +0.000 A 
BRANCH  23  29
ATOM     29  O   UNL     1       3.531   4.602  17.292  0.00  0.00    +0.000 OA
BRANCH  29  31
ATOM     30  C   UNL     1       5.285   4.290  15.696  0.00  0.00    +0.000 C 
ATOM     31  C   UNL     1       4.725   3.858  17.038  0.00  0.00    +0.000 C 
ENDBRANCH  29  31
ENDBRANCH  23  29
ENDBRANCH  22  28
ENDBRANCH  18  22
ENDBRANCH   1  19
TORSDOF 5
ENDMDL
MODEL 8
REMARK VINA RESULT:      -7.7      2.659      9.780
REMARK  Name = 
REMARK  6 active torsions:
REMARK  status: ('A' for Active; 'I' for Inactive)
REMARK    1  A    between atoms: C_1  and  C_2
REMARK    2  A    between atoms: C_2  and  O_3
REMARK    3  A    between atoms: O_3  and  C_4
REMARK    4  A    between atoms: C_9  and  C_10
REMARK    5  A    between atoms: C_10  and  N_11
REMARK    6  A    between atoms: C_12  and  C_14
REMARK                            x       y       z     vdW  Elec       q    Type
REMARK                         _______ _______ _______ _____ _____    ______ ____
ROOT
ATOM      1  C   UNL     1       0.897   9.215  20.379  0.00  0.00    +0.000 A 
ATOM      2  C   UNL     1       1.115   9.263  21.705  0.00  0.00    +0.000 A 
ATOM      3  N   UNL     1       0.453  10.062  22.605  0.00  0.00    +0.000 NA
ATOM      4  C   UNL     1      -0.453  10.823  22.095  0.00  0.00    +0.000 A 
ATOM      5  S   UNL     1      -1.349  11.971  23.010  0.00  0.00    +0.000 S 
ATOM      6  C   UNL     1      -2.178  12.434  21.524  0.00  0.00    +0.000 A 
ATOM      7  N   UNL     1      -3.140  13.434  21.587  0.00  0.00    +0.000 N 
ATOM      8  C   UNL     1      -3.045  14.556  22.524  0.00  0.00    +0.000 C 
ATOM      9  C   UNL     1      -3.942  14.318  23.736  0.00  0.00    +0.000 C 
ATOM     10  C   UNL     1      -5.431  14.510  23.459  0.00  0.00    +0.000 C 
ATOM     11  C   UNL     1      -5.979  13.722  22.265  0.00  0.00    +0.000 C 
ATOM     12  C   UNL     1      -5.433  14.213  20.921  0.00  0.00    +0.000 C 
ATOM     13  C   UNL     1      -4.109  13.567  20.496  0.00  0.00    +0.000 C 
ATOM     14  N   UNL     1      -1.831  11.762  20.466  0.00  0.00    +0.000 NA
ATOM     15  N   UNL     1      -0.826  10.861  20.786  0.00  0.00    +0.000 N 
ATOM     16  C   UNL     1      -0.210  10.057  19.832  0.00  0.00    +0.000 A 
ATOM     17  O   UNL     1      -0.499  10.014  18.637  0.00  0.00    +0.000 OA
ENDROOT
BRANCH   1  19
ATOM     18  N   UNL     1       2.205   7.173  20.150  0.00  0.00    +0.000 N 
ATOM     19  C   UNL     1       1.821   8.356  19.581  0.00  0.00    +0.000 C 
ATOM     20  O   UNL     1       2.186   8.693  18.455  0.00  0.00    +0.000 OA
ATOM     21  H   UNL     1       1.878   6.927  21.082  0.00  0.00    +0.000 HD
BRANCH  18  22
ATOM     22  C   UNL     1       3.016   6.200  19.443  0.00  0.00    +0.000 C 
BRANCH  22  28
ATOM     23  C   UNL     1       2.565   4.047  18.143  0.00  0.00    +0.000 A 
ATOM     24  C   UNL     1       1.915   2.810  18.028  0.00  0.00    +0.000 A 
ATOM     25  C   UNL     1       0.968   2.415  18.971  0.00  0.00    +0.000 A 
ATOM     26  C   UNL     1       0.697   3.234  20.061  0.00  0.00    +0.000 A 
ATOM     27  C   UNL     1       1.393   4.434  20.220  0.00  0.00    +0.000 A 
ATOM     28  C   UNL     1       2.336   4.859  19.267  0.00  0.00    +0.000 A 
BRANCH  23  29
ATOM     29  O   UNL     1       3.422   4.539  17.190  0.00  0.00    +0.000 OA
BRANCH  29  31
ATOM     30  C   UNL     1       5.281   4.191  15.725  0.00  0.00    +0.000 C 
ATOM     31  C   UNL     1       4.661   3.836  17.063  0.00  0.00    +0.000 C 
ENDBRANCH  29  31
ENDBRANCH  23  29
ENDBRANCH  22  28
ENDBRANCH  18  22
ENDBRANCH   1  19
TORSDOF 5
ENDMDL
MODEL 9
REMARK VINA RESULT:      -7.7      2.681     10.093
REMARK  Name = 
REMARK  6 active torsions:
REMARK  status: ('A' for Active; 'I' for Inactive)
REMARK    1  A    between atoms: C_1  and  C_2
REMARK    2  A    between atoms: C_2  and  O_3
REMARK    3  A    between atoms: O_3  and  C_4
REMARK    4  A    between atoms: C_9  and  C_10
REMARK    5  A    between atoms: C_10  and  N_11
REMARK    6  A    between atoms: C_12  and  C_14
REMARK                            x       y       z     vdW  Elec       q    Type
REMARK                         _______ _______ _______ _____ _____    ______ ____
ROOT
ATOM      1  C   UNL     1       1.323   8.875  19.361  0.00  0.00    +0.000 A 
ATOM      2  C   UNL     1       1.498   8.474  20.632  0.00  0.00    +0.000 A 
ATOM      3  N   UNL     1       0.852   8.976  21.736  0.00  0.00    +0.000 NA
ATOM      4  C   UNL     1       0.007   9.918  21.490  0.00  0.00    +0.000 A 
ATOM      5  S   UNL     1      -0.856  10.759  22.718  0.00  0.00    +0.000 S 
ATOM      6  C   UNL     1      -1.607  11.732  21.454  0.00  0.00    +0.000 A 
ATOM      7  N   UNL     1      -2.514  12.716  21.827  0.00  0.00    +0.000 N 
ATOM      8  C   UNL     1      -2.389  13.463  23.081  0.00  0.00    +0.000 C 
ATOM      9  C   UNL     1      -3.338  12.900  24.136  0.00  0.00    +0.000 C 
ATOM     10  C   UNL     1      -4.804  13.265  23.916  0.00  0.00    +0.000 C 
ATOM     11  C   UNL     1      -5.354  12.945  22.523  0.00  0.00    +0.000 C 
ATOM     12  C   UNL     1      -4.737  13.812  21.422  0.00  0.00    +0.000 C 
ATOM     13  C   UNL     1      -3.437  13.258  20.826  0.00  0.00    +0.000 C 
ATOM     14  N   UNL     1      -1.262  11.421  20.239  0.00  0.00    +0.000 NA
ATOM     15  N   UNL     1      -0.319  10.403  20.261  0.00  0.00    +0.000 N 
ATOM     16  C   UNL     1       0.283   9.917  19.105  0.00  0.00    +0.000 A 
ATOM     17  O   UNL     1       0.033  10.284  17.957  0.00  0.00    +0.000 OA
ENDROOT
BRANCH   1  19
ATOM     18  N   UNL     1       2.557   6.951  18.517  0.00  0.00    +0.000 N 
ATOM     19  C   UNL     1       2.224   8.266  18.338  0.00  0.00    +0.000 C 
ATOM     20  O   UNL     1       2.616   8.917  17.371  0.00  0.00    +0.000 OA
ATOM     21  H   UNL     1       2.209   6.444  19.329  0.00  0.00    +0.000 HD
BRANCH  18  22
ATOM     22  C   UNL     1       3.340   6.211  17.548  0.00  0.00    +0.000 C 
BRANCH  22  28
ATOM     23  C   UNL     1       5.312   5.334  18.916  0.00  0.00    +0.000 A 
ATOM     24  C   UNL     1       6.688   5.305  19.185  0.00  0.00    +0.000 A 
ATOM     25  C   UNL     1       7.563   6.147  18.500  0.00  0.00    +0.000 A 
ATOM     26  C   UNL     1       7.075   6.991  17.510  0.00  0.00    +0.000 A 
ATOM     27  C   UNL     1       5.716   6.974  17.187  0.00  0.00    +0.000 A 
ATOM     28  C   UNL     1       4.815   6.146  17.883  0.00  0.00    +0.000 A 
BRANCH  23  29
ATOM     29  O   UNL     1       4.391   4.612  19.632  0.00  0.00    +0.000 OA
BRANCH  29  31
ATOM     30  C   UNL     1       3.748   2.702  18.343  0.00  0.00    +0.000 C 
ATOM     31  C   UNL     1       4.529   3.191  19.547  0.00  0.00    +0.000 C 
ENDBRANCH  29  31
ENDBRANCH  23  29
ENDBRANCH  22  28
ENDBRANCH  18  22
ENDBRANCH   1  19
TORSDOF 5
ENDMDL
