MODEL 1
REMARK VINA RESULT:      -9.1      0.000      0.000
REMARK  Name = 
REMARK  10 active torsions:
REMARK  status: ('A' for Active; 'I' for Inactive)
REMARK    1  A    between atoms: C_1  and  C_2
REMARK    2  A    between atoms: C_8  and  C_9
REMARK    3  A    between atoms: C_13  and  C_14
REMARK    4  A    between atoms: C_18  and  C_19
REMARK    5  A    between atoms: C_19  and  N_20
REMARK    6  A    between atoms: N_20  and  C_21
REMARK    7  A    between atoms: C_21  and  C_22
REMARK    8  A    between atoms: C_22  and  N_23
REMARK    9  A    between atoms: C_24  and  C_26
REMARK   10  A    between atoms: N_30  and  C_31
REMARK                            x       y       z     vdW  Elec       q    Type
REMARK                         _______ _______ _______ _____ _____    ______ ____
ROOT
ATOM      1  C   UNL     1       1.597   8.524  19.765  0.00  0.00    +0.000 A 
ATOM      2  C   UNL     1       2.102   8.672  18.462  0.00  0.00    +0.000 A 
ATOM      3  C   UNL     1       2.674   7.595  17.790  0.00  0.00    +0.000 A 
ATOM      4  C   UNL     1       2.754   6.353  18.412  0.00  0.00    +0.000 A 
ATOM      5  C   UNL     1       2.292   6.179  19.721  0.00  0.00    +0.000 A 
ATOM      6  C   UNL     1       1.751   7.280  20.392  0.00  0.00    +0.000 A 
ENDROOT
BRANCH   1  11
ATOM      7  C   UNL     1       0.193  11.964  20.513  0.00  0.00    +0.000 A 
ATOM      8  C   UNL     1      -0.374  11.743  21.769  0.00  0.00    +0.000 A 
ATOM      9  C   UNL     1      -0.358  10.478  22.345  0.00  0.00    +0.000 A 
ATOM     10  C   UNL     1       0.235   9.418  21.667  0.00  0.00    +0.000 A 
ATOM     11  C   UNL     1       0.822   9.597  20.409  0.00  0.00    +0.000 A 
ATOM     12  C   UNL     1       0.764  10.882  19.834  0.00  0.00    +0.000 A 
BRANCH   7  20
ATOM     13  C   UNL     1       3.277  15.934  17.978  0.00  0.00    +0.000 C 
ATOM     14  C   UNL     1       1.846  16.132  18.371  0.00  0.00    +0.000 A 
ATOM     15  C   UNL     1       1.178  17.345  18.121  0.00  0.00    +0.000 A 
ATOM     16  C   UNL     1      -0.152  17.553  18.499  0.00  0.00    +0.000 A 
ATOM     17  C   UNL     1      -0.881  16.543  19.136  0.00  0.00    +0.000 A 
ATOM     18  C   UNL     1      -0.251  15.319  19.378  0.00  0.00    +0.000 A 
ATOM     19  N   UNL     1      -0.752  14.184  19.962  0.00  0.00    +0.000 NA
ATOM     20  C   UNL     1       0.238  13.311  19.961  0.00  0.00    +0.000 A 
ATOM     21  N   UNL     1       1.364  13.869  19.404  0.00  0.00    +0.000 N 
ATOM     22  C   UNL     1       1.076  15.148  19.005  0.00  0.00    +0.000 A 
ATOM     23  H   UNL     1       2.257  13.411  19.311  0.00  0.00    +0.000 HD
ENDBRANCH   7  20
ENDBRANCH   1  11
BRANCH   5  24
ATOM     24  C   UNL     1       2.313   4.819  20.367  0.00  0.00    +0.000 C 
BRANCH  24  25
ATOM     25  N   UNL     1       2.363   3.703  19.408  0.00  0.00    +0.000 NA
ATOM     26  H   UNL     1       2.825   4.020  18.560  0.00  0.00    +0.000 HD
BRANCH  25  27
ATOM     27  C   UNL     1       3.086   2.543  19.954  0.00  0.00    +0.000 C 
BRANCH  27  28
ATOM     28  C   UNL     1       4.600   2.776  19.952  0.00  0.00    +0.000 C 
BRANCH  28  29
ATOM     29  N   UNL     1       5.095   3.282  18.698  0.00  0.00    +0.000 N 
ATOM     30  C   UNL     1       5.885   4.428  18.664  0.00  0.00    +0.000 C 
ATOM     31  O   UNL     1       6.154   5.056  19.666  0.00  0.00    +0.000 OA
ATOM     32  H   UNL     1       5.134   2.639  17.927  0.00  0.00    +0.000 HD
BRANCH  30  33
ATOM     33  C   UNL     1       6.358   4.764  17.349  0.00  0.00    +0.000 A 
ATOM     34  C   UNL     1       6.194   4.084  16.162  0.00  0.00    +0.000 A 
ATOM     35  C   UNL     1       6.889   4.819  15.193  0.00  0.00    +0.000 A 
ATOM     36  N   UNL     1       7.433   5.920  15.699  0.00  0.00    +0.000 NA
ATOM     37  N   UNL     1       7.106   5.876  17.011  0.00  0.00    +0.000 N 
ATOM     38  C   UNL     1       7.612   6.924  17.872  0.00  0.00    +0.000 C 
ENDBRANCH  30  33
ENDBRANCH  28  29
ENDBRANCH  27  28
ENDBRANCH  25  27
ENDBRANCH  24  25
ENDBRANCH   5  24
TORSDOF 8
ENDMDL
MODEL 2
REMARK VINA RESULT:      -9.1      2.178      4.198
REMARK  Name = 
REMARK  10 active torsions:
REMARK  status: ('A' for Active; 'I' for Inactive)
REMARK    1  A    between atoms: C_1  and  C_2
REMARK    2  A    between atoms: C_8  and  C_9
REMARK    3  A    between atoms: C_13  and  C_14
REMARK    4  A    between atoms: C_18  and  C_19
REMARK    5  A    between atoms: C_19  and  N_20
REMARK    6  A    between atoms: N_20  and  C_21
REMARK    7  A    between atoms: C_21  and  C_22
REMARK    8  A    between atoms: C_22  and  N_23
REMARK    9  A    between atoms: C_24  and  C_26
REMARK   10  A    between atoms: N_30  and  C_31
REMARK                            x       y       z     vdW  Elec       q    Type
REMARK                         _______ _______ _______ _____ _____    ______ ____
ROOT
ATOM      1  C   UNL     1       2.235   5.741  19.743  0.00  0.00    +0.000 A 
ATOM      2  C   UNL     1       1.367   5.190  20.700  0.00  0.00    +0.000 A 
ATOM      3  C   UNL     1       1.588   3.916  21.216  0.00  0.00    +0.000 A 
ATOM      4  C   UNL     1       2.679   3.171  20.781  0.00  0.00    +0.000 A 
ATOM      5  C   UNL     1       3.543   3.675  19.804  0.00  0.00    +0.000 A 
ATOM      6  C   UNL     1       3.288   4.943  19.273  0.00  0.00    +0.000 A 
ENDROOT
BRANCH   1  11
ATOM      7  C   UNL     1       1.255   9.403  19.765  0.00  0.00    +0.000 A 
ATOM      8  C   UNL     1       1.606   9.771  18.465  0.00  0.00    +0.000 A 
ATOM      9  C   UNL     1       2.211   8.861  17.605  0.00  0.00    +0.000 A 
ATOM     10  C   UNL     1       2.466   7.564  18.041  0.00  0.00    +0.000 A 
ATOM     11  C   UNL     1       2.125   7.151  19.334  0.00  0.00    +0.000 A 
ATOM     12  C   UNL     1       1.541   8.102  20.195  0.00  0.00    +0.000 A 
BRANCH   7  20
ATOM     13  C   UNL     1       0.665  14.745  21.441  0.00  0.00    +0.000 C 
ATOM     14  C   UNL     1      -0.140  13.614  22.002  0.00  0.00    +0.000 A 
ATOM     15  C   UNL     1      -1.110  13.829  22.998  0.00  0.00    +0.000 A 
ATOM     16  C   UNL     1      -1.858  12.782  23.546  0.00  0.00    +0.000 A 
ATOM     17  C   UNL     1      -1.674  11.466  23.108  0.00  0.00    +0.000 A 
ATOM     18  C   UNL     1      -0.732  11.225  22.103  0.00  0.00    +0.000 A 
ATOM     19  N   UNL     1      -0.387  10.043  21.501  0.00  0.00    +0.000 NA
ATOM     20  C   UNL     1       0.551  10.344  20.624  0.00  0.00    +0.000 A 
ATOM     21  N   UNL     1       0.825  11.690  20.665  0.00  0.00    +0.000 N 
ATOM     22  C   UNL     1       0.006  12.284  21.590  0.00  0.00    +0.000 A 
ATOM     23  H   UNL     1       1.520  12.162  20.108  0.00  0.00    +0.000 HD
ENDBRANCH   7  20
ENDBRANCH   1  11
BRANCH   5  24
ATOM     24  C   UNL     1       4.764   2.898  19.386  0.00  0.00    +0.000 C 
BRANCH  24  25
ATOM     25  N   UNL     1       5.527   3.528  18.296  0.00  0.00    +0.000 NA
ATOM     26  H   UNL     1       4.875   3.923  17.624  0.00  0.00    +0.000 HD
BRANCH  25  27
ATOM     27  C   UNL     1       6.418   4.589  18.793  0.00  0.00    +0.000 C 
BRANCH  27  28
ATOM     28  C   UNL     1       7.573   4.852  17.821  0.00  0.00    +0.000 C 
BRANCH  28  29
ATOM     29  N   UNL     1       7.315   4.368  16.489  0.00  0.00    +0.000 N 
ATOM     30  C   UNL     1       6.758   5.209  15.531  0.00  0.00    +0.000 C 
ATOM     31  O   UNL     1       6.439   6.352  15.782  0.00  0.00    +0.000 OA
ATOM     32  H   UNL     1       7.825   3.556  16.190  0.00  0.00    +0.000 HD
BRANCH  30  33
ATOM     33  C   UNL     1       6.628   4.601  14.234  0.00  0.00    +0.000 A 
ATOM     34  C   UNL     1       5.749   3.629  13.810  0.00  0.00    +0.000 A 
ATOM     35  C   UNL     1       6.076   3.364  12.475  0.00  0.00    +0.000 A 
ATOM     36  N   UNL     1       7.067   4.136  12.043  0.00  0.00    +0.000 NA
ATOM     37  N   UNL     1       7.397   4.883  13.121  0.00  0.00    +0.000 N 
ATOM     38  C   UNL     1       8.509   5.801  12.996  0.00  0.00    +0.000 C 
ENDBRANCH  30  33
ENDBRANCH  28  29
ENDBRANCH  27  28
ENDBRANCH  25  27
ENDBRANCH  24  25
ENDBRANCH   5  24
TORSDOF 8
ENDMDL
MODEL 3
REMARK VINA RESULT:      -8.9      2.635      3.704
REMARK  Name = 
REMARK  10 active torsions:
REMARK  status: ('A' for Active; 'I' for Inactive)
REMARK    1  A    between atoms: C_1  and  C_2
REMARK    2  A    between atoms: C_8  and  C_9
REMARK    3  A    between atoms: C_13  and  C_14
REMARK    4  A    between atoms: C_18  and  C_19
REMARK    5  A    between atoms: C_19  and  N_20
REMARK    6  A    between atoms: N_20  and  C_21
REMARK    7  A    between atoms: C_21  and  C_22
REMARK    8  A    between atoms: C_22  and  N_23
REMARK    9  A    between atoms: C_24  and  C_26
REMARK   10  A    between atoms: N_30  and  C_31
REMARK                            x       y       z     vdW  Elec       q    Type
REMARK                         _______ _______ _______ _____ _____    ______ ____
ROOT
ATOM      1  C   UNL     1       1.272   9.101  18.846  0.00  0.00    +0.000 A 
ATOM      2  C   UNL     1       2.218   9.033  17.809  0.00  0.00    +0.000 A 
ATOM      3  C   UNL     1       3.106   7.964  17.721  0.00  0.00    +0.000 A 
ATOM      4  C   UNL     1       3.065   6.947  18.669  0.00  0.00    +0.000 A 
ATOM      5  C   UNL     1       2.158   7.001  19.733  0.00  0.00    +0.000 A 
ATOM      6  C   UNL     1       1.296   8.098  19.825  0.00  0.00    +0.000 A 
ENDROOT
BRANCH   1  11
ATOM      7  C   UNL     1      -1.122  11.773  20.068  0.00  0.00    +0.000 A 
ATOM      8  C   UNL     1      -2.008  11.837  18.992  0.00  0.00    +0.000 A 
ATOM      9  C   UNL     1      -1.801  11.068  17.852  0.00  0.00    +0.000 A 
ATOM     10  C   UNL     1      -0.702  10.219  17.783  0.00  0.00    +0.000 A 
ATOM     11  C   UNL     1       0.208  10.118  18.842  0.00  0.00    +0.000 A 
ATOM     12  C   UNL     1      -0.008  10.931  19.973  0.00  0.00    +0.000 A 
BRANCH   7  20
ATOM     13  C   UNL     1      -4.661  12.716  24.344  0.00  0.00    +0.000 C 
ATOM     14  C   UNL     1      -3.378  13.465  24.160  0.00  0.00    +0.000 A 
ATOM     15  C   UNL     1      -2.976  14.465  25.065  0.00  0.00    +0.000 A 
ATOM     16  C   UNL     1      -1.790  15.186  24.897  0.00  0.00    +0.000 A 
ATOM     17  C   UNL     1      -0.942  14.927  23.814  0.00  0.00    +0.000 A 
ATOM     18  C   UNL     1      -1.304  13.924  22.911  0.00  0.00    +0.000 A 
ATOM     19  N   UNL     1      -0.642  13.477  21.797  0.00  0.00    +0.000 NA
ATOM     20  C   UNL     1      -1.397  12.525  21.285  0.00  0.00    +0.000 A 
ATOM     21  N   UNL     1      -2.537  12.365  22.037  0.00  0.00    +0.000 N 
ATOM     22  C   UNL     1      -2.496  13.235  23.096  0.00  0.00    +0.000 A 
ATOM     23  H   UNL     1      -3.282  11.717  21.838  0.00  0.00    +0.000 HD
ENDBRANCH   7  20
ENDBRANCH   1  11
BRANCH   5  24
ATOM     24  C   UNL     1       2.065   5.866  20.719  0.00  0.00    +0.000 C 
BRANCH  24  25
ATOM     25  N   UNL     1       3.152   4.880  20.599  0.00  0.00    +0.000 NA
ATOM     26  H   UNL     1       3.424   4.578  21.530  0.00  0.00    +0.000 HD
BRANCH  25  27
ATOM     27  C   UNL     1       2.745   3.709  19.805  0.00  0.00    +0.000 C 
BRANCH  27  28
ATOM     28  C   UNL     1       3.957   2.877  19.373  0.00  0.00    +0.000 C 
BRANCH  28  29
ATOM     29  N   UNL     1       4.585   3.368  18.174  0.00  0.00    +0.000 N 
ATOM     30  C   UNL     1       5.659   4.248  18.252  0.00  0.00    +0.000 C 
ATOM     31  O   UNL     1       6.082   4.659  19.313  0.00  0.00    +0.000 OA
ATOM     32  H   UNL     1       4.452   2.832  17.335  0.00  0.00    +0.000 HD
BRANCH  30  33
ATOM     33  C   UNL     1       6.220   4.590  16.973  0.00  0.00    +0.000 A 
ATOM     34  C   UNL     1       6.179   3.890  15.787  0.00  0.00    +0.000 A 
ATOM     35  C   UNL     1       6.917   4.643  14.865  0.00  0.00    +0.000 A 
ATOM     36  N   UNL     1       7.372   5.773  15.396  0.00  0.00    +0.000 NA
ATOM     37  N   UNL     1       6.945   5.730  16.679  0.00  0.00    +0.000 N 
ATOM     38  C   UNL     1       7.336   6.808  17.561  0.00  0.00    +0.000 C 
ENDBRANCH  30  33
ENDBRANCH  28  29
ENDBRANCH  27  28
ENDBRANCH  25  27
ENDBRANCH  24  25
ENDBRANCH   5  24
TORSDOF 8
ENDMDL
MODEL 4
REMARK VINA RESULT:      -8.9      0.727      1.516
REMARK  Name = 
REMARK  10 active torsions:
REMARK  status: ('A' for Active; 'I' for Inactive)
REMARK    1  A    between atoms: C_1  and  C_2
REMARK    2  A    between atoms: C_8  and  C_9
REMARK    3  A    between atoms: C_13  and  C_14
REMARK    4  A    between atoms: C_18  and  C_19
REMARK    5  A    between atoms: C_19  and  N_20
REMARK    6  A    between atoms: N_20  and  C_21
REMARK    7  A    between atoms: C_21  and  C_22
REMARK    8  A    between atoms: C_22  and  N_23
REMARK    9  A    between atoms: C_24  and  C_26
REMARK   10  A    between atoms: N_30  and  C_31
REMARK                            x       y       z     vdW  Elec       q    Type
REMARK                         _______ _______ _______ _____ _____    ______ ____
ROOT
ATOM      1  C   UNL     1       1.569   7.849  20.071  0.00  0.00    +0.000 A 
ATOM      2  C   UNL     1       2.289   7.867  18.865  0.00  0.00    +0.000 A 
ATOM      3  C   UNL     1       2.724   6.685  18.273  0.00  0.00    +0.000 A 
ATOM      4  C   UNL     1       2.448   5.464  18.879  0.00  0.00    +0.000 A 
ATOM      5  C   UNL     1       1.763   5.410  20.097  0.00  0.00    +0.000 A 
ATOM      6  C   UNL     1       1.363   6.609  20.695  0.00  0.00    +0.000 A 
ENDROOT
BRANCH   1  11
ATOM      7  C   UNL     1       0.726  11.510  20.570  0.00  0.00    +0.000 A 
ATOM      8  C   UNL     1       0.028  11.452  21.776  0.00  0.00    +0.000 A 
ATOM      9  C   UNL     1      -0.224  10.233  22.396  0.00  0.00    +0.000 A 
ATOM     10  C   UNL     1       0.231   9.055  21.811  0.00  0.00    +0.000 A 
ATOM     11  C   UNL     1       0.941   9.068  20.605  0.00  0.00    +0.000 A 
ATOM     12  C   UNL     1       1.155  10.314  19.982  0.00  0.00    +0.000 A 
BRANCH   7  20
ATOM     13  C   UNL     1      -1.013  16.725  19.356  0.00  0.00    +0.000 C 
ATOM     14  C   UNL     1       0.340  16.204  18.984  0.00  0.00    +0.000 A 
ATOM     15  C   UNL     1       1.272  17.005  18.299  0.00  0.00    +0.000 A 
ATOM     16  C   UNL     1       2.533  16.527  17.928  0.00  0.00    +0.000 A 
ATOM     17  C   UNL     1       2.923  15.221  18.241  0.00  0.00    +0.000 A 
ATOM     18  C   UNL     1       2.026  14.408  18.941  0.00  0.00    +0.000 A 
ATOM     19  N   UNL     1       2.180  13.116  19.374  0.00  0.00    +0.000 NA
ATOM     20  C   UNL     1       1.050  12.800  19.976  0.00  0.00    +0.000 A 
ATOM     21  N   UNL     1       0.171  13.856  19.923  0.00  0.00    +0.000 N 
ATOM     22  C   UNL     1       0.776  14.906  19.282  0.00  0.00    +0.000 A 
ATOM     23  H   UNL     1      -0.767  13.854  20.291  0.00  0.00    +0.000 HD
ENDBRANCH   7  20
ENDBRANCH   1  11
BRANCH   5  24
ATOM     24  C   UNL     1       1.403   4.085  20.717  0.00  0.00    +0.000 C 
BRANCH  24  25
ATOM     25  N   UNL     1       2.564   3.305  21.175  0.00  0.00    +0.000 NA
ATOM     26  H   UNL     1       2.260   2.658  21.897  0.00  0.00    +0.000 HD
BRANCH  25  27
ATOM     27  C   UNL     1       3.185   2.550  20.074  0.00  0.00    +0.000 C 
BRANCH  27  28
ATOM     28  C   UNL     1       4.700   2.772  20.028  0.00  0.00    +0.000 C 
BRANCH  28  29
ATOM     29  N   UNL     1       5.162   3.268  18.757  0.00  0.00    +0.000 N 
ATOM     30  C   UNL     1       5.939   4.420  18.691  0.00  0.00    +0.000 C 
ATOM     31  O   UNL     1       6.224   5.064  19.680  0.00  0.00    +0.000 OA
ATOM     32  H   UNL     1       5.190   2.616  17.993  0.00  0.00    +0.000 HD
BRANCH  30  33
ATOM     33  C   UNL     1       6.380   4.746  17.362  0.00  0.00    +0.000 A 
ATOM     34  C   UNL     1       6.221   4.035  16.192  0.00  0.00    +0.000 A 
ATOM     35  C   UNL     1       6.875   4.773  15.197  0.00  0.00    +0.000 A 
ATOM     36  N   UNL     1       7.388   5.902  15.672  0.00  0.00    +0.000 NA
ATOM     37  N   UNL     1       7.084   5.875  16.990  0.00  0.00    +0.000 N 
ATOM     38  C   UNL     1       7.566   6.957  17.820  0.00  0.00    +0.000 C 
ENDBRANCH  30  33
ENDBRANCH  28  29
ENDBRANCH  27  28
ENDBRANCH  25  27
ENDBRANCH  24  25
ENDBRANCH   5  24
TORSDOF 8
ENDMDL
MODEL 5
REMARK VINA RESULT:      -8.8      1.484      2.129
REMARK  Name = 
REMARK  10 active torsions:
REMARK  status: ('A' for Active; 'I' for Inactive)
REMARK    1  A    between atoms: C_1  and  C_2
REMARK    2  A    between atoms: C_8  and  C_9
REMARK    3  A    between atoms: C_13  and  C_14
REMARK    4  A    between atoms: C_18  and  C_19
REMARK    5  A    between atoms: C_19  and  N_20
REMARK    6  A    between atoms: N_20  and  C_21
REMARK    7  A    between atoms: C_21  and  C_22
REMARK    8  A    between atoms: C_22  and  N_23
REMARK    9  A    between atoms: C_24  and  C_26
REMARK   10  A    between atoms: N_30  and  C_31
REMARK                            x       y       z     vdW  Elec       q    Type
REMARK                         _______ _______ _______ _____ _____    ______ ____
ROOT
ATOM      1  C   UNL     1       1.247   8.624  20.205  0.00  0.00    +0.000 A 
ATOM      2  C   UNL     1       1.618   8.895  18.877  0.00  0.00    +0.000 A 
ATOM      3  C   UNL     1       2.262   7.933  18.103  0.00  0.00    +0.000 A 
ATOM      4  C   UNL     1       2.549   6.685  18.646  0.00  0.00    +0.000 A 
ATOM      5  C   UNL     1       2.225   6.393  19.975  0.00  0.00    +0.000 A 
ATOM      6  C   UNL     1       1.608   7.382  20.747  0.00  0.00    +0.000 A 
ENDROOT
BRANCH   1  11
ATOM      7  C   UNL     1      -0.474  11.825  21.279  0.00  0.00    +0.000 A 
ATOM      8  C   UNL     1      -0.937  11.457  22.543  0.00  0.00    +0.000 A 
ATOM      9  C   UNL     1      -0.749  10.165  23.022  0.00  0.00    +0.000 A 
ATOM     10  C   UNL     1      -0.086   9.227  22.237  0.00  0.00    +0.000 A 
ATOM     11  C   UNL     1       0.400   9.556  20.967  0.00  0.00    +0.000 A 
ATOM     12  C   UNL     1       0.169  10.863  20.492  0.00  0.00    +0.000 A 
BRANCH   7  20
ATOM     13  C   UNL     1      -2.286  17.027  22.439  0.00  0.00    +0.000 C 
ATOM     14  C   UNL     1      -1.639  16.654  21.142  0.00  0.00    +0.000 A 
ATOM     15  C   UNL     1      -1.442  17.602  20.122  0.00  0.00    +0.000 A 
ATOM     16  C   UNL     1      -0.857  17.264  18.897  0.00  0.00    +0.000 A 
ATOM     17  C   UNL     1      -0.428  15.957  18.644  0.00  0.00    +0.000 A 
ATOM     18  C   UNL     1      -0.591  14.998  19.649  0.00  0.00    +0.000 A 
ATOM     19  N   UNL     1      -0.240  13.673  19.650  0.00  0.00    +0.000 NA
ATOM     20  C   UNL     1      -0.609  13.202  20.826  0.00  0.00    +0.000 A 
ATOM     21  N   UNL     1      -1.204  14.194  21.569  0.00  0.00    +0.000 N 
ATOM     22  C   UNL     1      -1.189  15.360  20.849  0.00  0.00    +0.000 A 
ATOM     23  H   UNL     1      -1.591  14.079  22.493  0.00  0.00    +0.000 HD
ENDBRANCH   7  20
ENDBRANCH   1  11
BRANCH   5  24
ATOM     24  C   UNL     1       2.471   5.019  20.541  0.00  0.00    +0.000 C 
BRANCH  24  25
ATOM     25  N   UNL     1       1.975   3.925  19.689  0.00  0.00    +0.000 NA
ATOM     26  H   UNL     1       2.178   4.148  18.718  0.00  0.00    +0.000 HD
BRANCH  25  27
ATOM     27  C   UNL     1       2.596   2.637  20.034  0.00  0.00    +0.000 C 
BRANCH  27  28
ATOM     28  C   UNL     1       3.077   1.894  18.783  0.00  0.00    +0.000 C 
BRANCH  28  29
ATOM     29  N   UNL     1       4.241   2.491  18.180  0.00  0.00    +0.000 N 
ATOM     30  C   UNL     1       4.103   3.467  17.198  0.00  0.00    +0.000 C 
ATOM     31  O   UNL     1       3.017   3.824  16.791  0.00  0.00    +0.000 OA
ATOM     32  H   UNL     1       5.103   2.430  18.692  0.00  0.00    +0.000 HD
BRANCH  30  33
ATOM     33  C   UNL     1       5.354   4.014  16.747  0.00  0.00    +0.000 A 
ATOM     34  C   UNL     1       5.972   3.884  15.523  0.00  0.00    +0.000 A 
ATOM     35  C   UNL     1       7.186   4.575  15.624  0.00  0.00    +0.000 A 
ATOM     36  N   UNL     1       7.333   5.150  16.812  0.00  0.00    +0.000 NA
ATOM     37  N   UNL     1       6.215   4.801  17.489  0.00  0.00    +0.000 N 
ATOM     38  C   UNL     1       6.094   5.226  18.867  0.00  0.00    +0.000 C 
ENDBRANCH  30  33
ENDBRANCH  28  29
ENDBRANCH  27  28
ENDBRANCH  25  27
ENDBRANCH  24  25
ENDBRANCH   5  24
TORSDOF 8
ENDMDL
MODEL 6
REMARK VINA RESULT:      -8.8      0.967      1.891
REMARK  Name = 
REMARK  10 active torsions:
REMARK  status: ('A' for Active; 'I' for Inactive)
REMARK    1  A    between atoms: C_1  and  C_2
REMARK    2  A    between atoms: C_8  and  C_9
REMARK    3  A    between atoms: C_13  and  C_14
REMARK    4  A    between atoms: C_18  and  C_19
REMARK    5  A    between atoms: C_19  and  N_20
REMARK    6  A    between atoms: N_20  and  C_21
REMARK    7  A    between atoms: C_21  and  C_22
REMARK    8  A    between atoms: C_22  and  N_23
REMARK    9  A    between atoms: C_24  and  C_26
REMARK   10  A    between atoms: N_30  and  C_31
REMARK                            x       y       z     vdW  Elec       q    Type
REMARK                         _______ _______ _______ _____ _____    ______ ____
ROOT
ATOM      1  C   UNL     1       1.463   8.854  19.796  0.00  0.00    +0.000 A 
ATOM      2  C   UNL     1       1.929   8.850  18.471  0.00  0.00    +0.000 A 
ATOM      3  C   UNL     1       2.437   7.689  17.895  0.00  0.00    +0.000 A 
ATOM      4  C   UNL     1       2.491   6.513  18.635  0.00  0.00    +0.000 A 
ATOM      5  C   UNL     1       2.068   6.490  19.969  0.00  0.00    +0.000 A 
ATOM      6  C   UNL     1       1.591   7.672  20.541  0.00  0.00    +0.000 A 
ENDROOT
BRANCH   1  11
ATOM      7  C   UNL     1       0.339  12.433  20.339  0.00  0.00    +0.000 A 
ATOM      8  C   UNL     1      -0.328  12.310  21.559  0.00  0.00    +0.000 A 
ATOM      9  C   UNL     1      -0.468  11.071  22.174  0.00  0.00    +0.000 A 
ATOM     10  C   UNL     1       0.067   9.937  21.572  0.00  0.00    +0.000 A 
ATOM     11  C   UNL     1       0.750  10.015  20.352  0.00  0.00    +0.000 A 
ATOM     12  C   UNL     1       0.851  11.278  19.735  0.00  0.00    +0.000 A 
BRANCH   7  20
ATOM     13  C   UNL     1      -1.910  17.414  18.988  0.00  0.00    +0.000 C 
ATOM     14  C   UNL     1      -0.490  17.046  18.690  0.00  0.00    +0.000 A 
ATOM     15  C   UNL     1       0.380  17.944  18.044  0.00  0.00    +0.000 A 
ATOM     16  C   UNL     1       1.703  17.609  17.741  0.00  0.00    +0.000 A 
ATOM     17  C   UNL     1       2.221  16.356  18.085  0.00  0.00    +0.000 A 
ATOM     18  C   UNL     1       1.387  15.450  18.748  0.00  0.00    +0.000 A 
ATOM     19  N   UNL     1       1.662  14.186  19.201  0.00  0.00    +0.000 NA
ATOM     20  C   UNL     1       0.545  13.748  19.750  0.00  0.00    +0.000 A 
ATOM     21  N   UNL     1      -0.442  14.698  19.642  0.00  0.00    +0.000 N 
ATOM     22  C   UNL     1       0.073  15.807  19.022  0.00  0.00    +0.000 A 
ATOM     23  H   UNL     1      -1.392  14.592  19.964  0.00  0.00    +0.000 HD
ENDBRANCH   7  20
ENDBRANCH   1  11
BRANCH   5  24
ATOM     24  C   UNL     1       2.060   5.201  20.748  0.00  0.00    +0.000 C 
BRANCH  24  25
ATOM     25  N   UNL     1       3.336   4.468  20.702  0.00  0.00    +0.000 NA
ATOM     26  H   UNL     1       3.806   4.572  21.598  0.00  0.00    +0.000 HD
BRANCH  25  27
ATOM     27  C   UNL     1       3.136   3.037  20.420  0.00  0.00    +0.000 C 
BRANCH  27  28
ATOM     28  C   UNL     1       4.148   2.523  19.392  0.00  0.00    +0.000 C 
BRANCH  28  29
ATOM     29  N   UNL     1       5.087   3.529  18.967  0.00  0.00    +0.000 N 
ATOM     30  C   UNL     1       5.053   4.018  17.665  0.00  0.00    +0.000 C 
ATOM     31  O   UNL     1       4.269   3.600  16.839  0.00  0.00    +0.000 OA
ATOM     32  H   UNL     1       5.526   4.078  19.684  0.00  0.00    +0.000 HD
BRANCH  30  33
ATOM     33  C   UNL     1       6.006   5.066  17.416  0.00  0.00    +0.000 A 
ATOM     34  C   UNL     1       6.387   6.110  18.231  0.00  0.00    +0.000 A 
ATOM     35  C   UNL     1       7.308   6.863  17.493  0.00  0.00    +0.000 A 
ATOM     36  N   UNL     1       7.544   6.330  16.300  0.00  0.00    +0.000 NA
ATOM     37  N   UNL     1       6.746   5.238  16.262  0.00  0.00    +0.000 N 
ATOM     38  C   UNL     1       6.722   4.456  15.045  0.00  0.00    +0.000 C 
ENDBRANCH  30  33
ENDBRANCH  28  29
ENDBRANCH  27  28
ENDBRANCH  25  27
ENDBRANCH  24  25
ENDBRANCH   5  24
TORSDOF 8
ENDMDL
MODEL 7
REMARK VINA RESULT:      -8.7      3.107      4.307
REMARK  Name = 
REMARK  10 active torsions:
REMARK  status: ('A' for Active; 'I' for Inactive)
REMARK    1  A    between atoms: C_1  and  C_2
REMARK    2  A    between atoms: C_8  and  C_9
REMARK    3  A    between atoms: C_13  and  C_14
REMARK    4  A    between atoms: C_18  and  C_19
REMARK    5  A    between atoms: C_19  and  N_20
REMARK    6  A    between atoms: N_20  and  C_21
REMARK    7  A    between atoms: C_21  and  C_22
REMARK    8  A    between atoms: C_22  and  N_23
REMARK    9  A    between atoms: C_24  and  C_26
REMARK   10  A    between atoms: N_30  and  C_31
REMARK                            x       y       z     vdW  Elec       q    Type
REMARK                         _______ _______ _______ _____ _____    ______ ____
ROOT
ATOM      1  C   UNL     1       1.768   9.278  18.775  0.00  0.00    +0.000 A 
ATOM      2  C   UNL     1       2.500   8.921  17.630  0.00  0.00    +0.000 A 
ATOM      3  C   UNL     1       2.995   7.629  17.471  0.00  0.00    +0.000 A 
ATOM      4  C   UNL     1       2.768   6.673  18.456  0.00  0.00    +0.000 A 
ATOM      5  C   UNL     1       2.073   7.004  19.624  0.00  0.00    +0.000 A 
ATOM      6  C   UNL     1       1.611   8.314  19.782  0.00  0.00    +0.000 A 
ENDROOT
BRANCH   1  11
ATOM      7  C   UNL     1      -1.018  11.847  18.870  0.00  0.00    +0.000 A 
ATOM      8  C   UNL     1      -0.286  13.025  18.719  0.00  0.00    +0.000 A 
ATOM      9  C   UNL     1       1.103  12.998  18.649  0.00  0.00    +0.000 A 
ATOM     10  C   UNL     1       1.774  11.782  18.723  0.00  0.00    +0.000 A 
ATOM     11  C   UNL     1       1.079  10.575  18.867  0.00  0.00    +0.000 A 
ATOM     12  C   UNL     1      -0.326  10.633  18.967  0.00  0.00    +0.000 A 
BRANCH   7  20
ATOM     13  C   UNL     1      -5.725  13.204  21.642  0.00  0.00    +0.000 C 
ATOM     14  C   UNL     1      -5.725  12.575  20.284  0.00  0.00    +0.000 A 
ATOM     15  C   UNL     1      -6.926  12.283  19.611  0.00  0.00    +0.000 A 
ATOM     16  C   UNL     1      -6.943  11.678  18.350  0.00  0.00    +0.000 A 
ATOM     17  C   UNL     1      -5.750  11.347  17.699  0.00  0.00    +0.000 A 
ATOM     18  C   UNL     1      -4.540  11.645  18.334  0.00  0.00    +0.000 A 
ATOM     19  N   UNL     1      -3.257  11.439  17.899  0.00  0.00    +0.000 NA
ATOM     20  C   UNL     1      -2.473  11.886  18.862  0.00  0.00    +0.000 A 
ATOM     21  N   UNL     1      -3.228  12.357  19.909  0.00  0.00    +0.000 N 
ATOM     22  C   UNL     1      -4.556  12.233  19.592  0.00  0.00    +0.000 A 
ATOM     23  H   UNL     1      -2.863  12.728  20.772  0.00  0.00    +0.000 HD
ENDBRANCH   7  20
ENDBRANCH   1  11
BRANCH   5  24
ATOM     24  C   UNL     1       1.766   5.951  20.657  0.00  0.00    +0.000 C 
BRANCH  24  25
ATOM     25  N   UNL     1       1.684   4.586  20.112  0.00  0.00    +0.000 NA
ATOM     26  H   UNL     1       1.936   4.611  19.128  0.00  0.00    +0.000 HD
BRANCH  25  27
ATOM     27  C   UNL     1       2.580   3.659  20.822  0.00  0.00    +0.000 C 
BRANCH  27  28
ATOM     28  C   UNL     1       3.597   3.023  19.868  0.00  0.00    +0.000 C 
BRANCH  28  29
ATOM     29  N   UNL     1       4.667   3.915  19.502  0.00  0.00    +0.000 N 
ATOM     30  C   UNL     1       5.042   4.054  18.169  0.00  0.00    +0.000 C 
ATOM     31  O   UNL     1       4.517   3.415  17.281  0.00  0.00    +0.000 OA
ATOM     32  H   UNL     1       4.900   4.642  20.153  0.00  0.00    +0.000 HD
BRANCH  30  33
ATOM     33  C   UNL     1       6.075   5.032  17.958  0.00  0.00    +0.000 A 
ATOM     34  C   UNL     1       6.953   5.583  18.866  0.00  0.00    +0.000 A 
ATOM     35  C   UNL     1       7.718   6.513  18.151  0.00  0.00    +0.000 A 
ATOM     36  N   UNL     1       7.394   6.539  16.863  0.00  0.00    +0.000 NA
ATOM     37  N   UNL     1       6.392   5.636  16.756  0.00  0.00    +0.000 N 
ATOM     38  C   UNL     1       5.764   5.468  15.463  0.00  0.00    +0.000 C 
ENDBRANCH  30  33
ENDBRANCH  28  29
ENDBRANCH  27  28
ENDBRANCH  25  27
ENDBRANCH  24  25
ENDBRANCH   5  24
TORSDOF 8
ENDMDL
MODEL 8
REMARK VINA RESULT:      -8.6      1.342      1.558
REMARK  Name = 
REMARK  10 active torsions:
REMARK  status: ('A' for Active; 'I' for Inactive)
REMARK    1  A    between atoms: C_1  and  C_2
REMARK    2  A    between atoms: C_8  and  C_9
REMARK    3  A    between atoms: C_13  and  C_14
REMARK    4  A    between atoms: C_18  and  C_19
REMARK    5  A    between atoms: C_19  and  N_20
REMARK    6  A    between atoms: N_20  and  C_21
REMARK    7  A    between atoms: C_21  and  C_22
REMARK    8  A    between atoms: C_22  and  N_23
REMARK    9  A    between atoms: C_24  and  C_26
REMARK   10  A    between atoms: N_30  and  C_31
REMARK                            x       y       z     vdW  Elec       q    Type
REMARK                         _______ _______ _______ _____ _____    ______ ____
ROOT
ATOM      1  C   UNL     1       1.360   8.888  19.837  0.00  0.00    +0.000 A 
ATOM      2  C   UNL     1       1.766   8.887  18.492  0.00  0.00    +0.000 A 
ATOM      3  C   UNL     1       2.286   7.737  17.903  0.00  0.00    +0.000 A 
ATOM      4  C   UNL     1       2.412   6.571  18.651  0.00  0.00    +0.000 A 
ATOM      5  C   UNL     1       2.049   6.547  20.001  0.00  0.00    +0.000 A 
ATOM      6  C   UNL     1       1.559   7.719  20.585  0.00  0.00    +0.000 A 
ENDROOT
BRANCH   1  11
ATOM      7  C   UNL     1       0.129  12.431  20.387  0.00  0.00    +0.000 A 
ATOM      8  C   UNL     1      -0.462  12.305  21.645  0.00  0.00    +0.000 A 
ATOM      9  C   UNL     1      -0.518  11.073  22.287  0.00  0.00    +0.000 A 
ATOM     10  C   UNL     1       0.027   9.950  21.673  0.00  0.00    +0.000 A 
ATOM     11  C   UNL     1       0.635  10.032  20.414  0.00  0.00    +0.000 A 
ATOM     12  C   UNL     1       0.650  11.286  19.772  0.00  0.00    +0.000 A 
BRANCH   7  20
ATOM     13  C   UNL     1       3.526  16.251  18.030  0.00  0.00    +0.000 C 
ATOM     14  C   UNL     1       2.059  16.468  18.227  0.00  0.00    +0.000 A 
ATOM     15  C   UNL     1       1.434  17.662  17.823  0.00  0.00    +0.000 A 
ATOM     16  C   UNL     1       0.067  17.889  18.017  0.00  0.00    +0.000 A 
ATOM     17  C   UNL     1      -0.741  16.916  18.616  0.00  0.00    +0.000 A 
ATOM     18  C   UNL     1      -0.152  15.710  19.008  0.00  0.00    +0.000 A 
ATOM     19  N   UNL     1      -0.728  14.611  19.590  0.00  0.00    +0.000 NA
ATOM     20  C   UNL     1       0.249  13.742  19.766  0.00  0.00    +0.000 A 
ATOM     21  N   UNL     1       1.439  14.269  19.323  0.00  0.00    +0.000 N 
ATOM     22  C   UNL     1       1.210  15.521  18.815  0.00  0.00    +0.000 A 
ATOM     23  H   UNL     1       2.335  13.809  19.371  0.00  0.00    +0.000 HD
ENDBRANCH   7  20
ENDBRANCH   1  11
BRANCH   5  24
ATOM     24  C   UNL     1       2.118   5.266  20.791  0.00  0.00    +0.000 C 
BRANCH  24  25
ATOM     25  N   UNL     1       1.133   4.255  20.375  0.00  0.00    +0.000 NA
ATOM     26  H   UNL     1       0.899   4.407  19.398  0.00  0.00    +0.000 HD
BRANCH  25  27
ATOM     27  C   UNL     1       1.646   2.886  20.547  0.00  0.00    +0.000 C 
BRANCH  27  28
ATOM     28  C   UNL     1       2.022   2.256  19.202  0.00  0.00    +0.000 C 
BRANCH  28  29
ATOM     29  N   UNL     1       3.276   2.735  18.681  0.00  0.00    +0.000 N 
ATOM     30  C   UNL     1       3.329   3.366  17.442  0.00  0.00    +0.000 C 
ATOM     31  O   UNL     1       2.345   3.505  16.746  0.00  0.00    +0.000 OA
ATOM     32  H   UNL     1       4.016   2.892  19.342  0.00  0.00    +0.000 HD
BRANCH  30  33
ATOM     33  C   UNL     1       4.638   3.849  17.095  0.00  0.00    +0.000 A 
ATOM     34  C   UNL     1       5.282   3.824  15.877  0.00  0.00    +0.000 A 
ATOM     35  C   UNL     1       6.549   4.379  16.095  0.00  0.00    +0.000 A 
ATOM     36  N   UNL     1       6.708   4.777  17.353  0.00  0.00    +0.000 NA
ATOM     37  N   UNL     1       5.541   4.447  17.953  0.00  0.00    +0.000 N 
ATOM     38  C   UNL     1       5.414   4.697  19.373  0.00  0.00    +0.000 C 
ENDBRANCH  30  33
ENDBRANCH  28  29
ENDBRANCH  27  28
ENDBRANCH  25  27
ENDBRANCH  24  25
ENDBRANCH   5  24
TORSDOF 8
ENDMDL
MODEL 9
REMARK VINA RESULT:      -8.6      3.573     10.465
REMARK  Name = 
REMARK  10 active torsions:
REMARK  status: ('A' for Active; 'I' for Inactive)
REMARK    1  A    between atoms: C_1  and  C_2
REMARK    2  A    between atoms: C_8  and  C_9
REMARK    3  A    between atoms: C_13  and  C_14
REMARK    4  A    between atoms: C_18  and  C_19
REMARK    5  A    between atoms: C_19  and  N_20
REMARK    6  A    between atoms: N_20  and  C_21
REMARK    7  A    between atoms: C_21  and  C_22
REMARK    8  A    between atoms: C_22  and  N_23
REMARK    9  A    between atoms: C_24  and  C_26
REMARK   10  A    between atoms: N_30  and  C_31
REMARK                            x       y       z     vdW  Elec       q    Type
REMARK                         _______ _______ _______ _____ _____    ______ ____
ROOT
ATOM      1  C   UNL     1       2.271   6.930  19.422  0.00  0.00    +0.000 A 
ATOM      2  C   UNL     1       1.611   6.927  20.662  0.00  0.00    +0.000 A 
ATOM      3  C   UNL     1       0.973   8.070  21.137  0.00  0.00    +0.000 A 
ATOM      4  C   UNL     1       0.988   9.237  20.380  0.00  0.00    +0.000 A 
ATOM      5  C   UNL     1       1.665   9.285  19.156  0.00  0.00    +0.000 A 
ATOM      6  C   UNL     1       2.327   8.138  18.711  0.00  0.00    +0.000 A 
ENDROOT
BRANCH   1  11
ATOM      7  C   UNL     1       4.084   4.575  17.069  0.00  0.00    +0.000 A 
ATOM      8  C   UNL     1       3.525   3.354  17.447  0.00  0.00    +0.000 A 
ATOM      9  C   UNL     1       2.614   3.280  18.495  0.00  0.00    +0.000 A 
ATOM     10  C   UNL     1       2.248   4.438  19.174  0.00  0.00    +0.000 A 
ATOM     11  C   UNL     1       2.779   5.685  18.824  0.00  0.00    +0.000 A 
ATOM     12  C   UNL     1       3.724   5.727  17.779  0.00  0.00    +0.000 A 
BRANCH   7  20
ATOM     13  C   UNL     1       5.329   2.646  11.930  0.00  0.00    +0.000 C 
ATOM     14  C   UNL     1       6.146   3.680  12.638  0.00  0.00    +0.000 A 
ATOM     15  C   UNL     1       7.293   4.241  12.046  0.00  0.00    +0.000 A 
ATOM     16  C   UNL     1       8.078   5.195  12.702  0.00  0.00    +0.000 A 
ATOM     17  C   UNL     1       7.739   5.641  13.984  0.00  0.00    +0.000 A 
ATOM     18  C   UNL     1       6.592   5.118  14.589  0.00  0.00    +0.000 A 
ATOM     19  N   UNL     1       6.048   5.405  15.814  0.00  0.00    +0.000 NA
ATOM     20  C   UNL     1       4.975   4.645  15.920  0.00  0.00    +0.000 A 
ATOM     21  N   UNL     1       4.831   3.867  14.796  0.00  0.00    +0.000 N 
ATOM     22  C   UNL     1       5.842   4.161  13.918  0.00  0.00    +0.000 A 
ATOM     23  H   UNL     1       4.102   3.187  14.646  0.00  0.00    +0.000 HD
ENDBRANCH   7  20
ENDBRANCH   1  11
BRANCH   5  24
ATOM     24  C   UNL     1       1.620  10.526  18.304  0.00  0.00    +0.000 C 
BRANCH  24  25
ATOM     25  N   UNL     1       1.587  11.779  19.076  0.00  0.00    +0.000 NA
ATOM     26  H   UNL     1       2.542  12.065  19.278  0.00  0.00    +0.000 HD
BRANCH  25  27
ATOM     27  C   UNL     1       0.900  12.856  18.345  0.00  0.00    +0.000 C 
BRANCH  27  28
ATOM     28  C   UNL     1      -0.607  12.844  18.617  0.00  0.00    +0.000 C 
BRANCH  28  29
ATOM     29  N   UNL     1      -1.381  12.348  17.508  0.00  0.00    +0.000 N 
ATOM     30  C   UNL     1      -1.972  11.090  17.569  0.00  0.00    +0.000 C 
ATOM     31  O   UNL     1      -1.833  10.358  18.527  0.00  0.00    +0.000 OA
ATOM     32  H   UNL     1      -1.742  13.027  16.862  0.00  0.00    +0.000 HD
BRANCH  30  33
ATOM     33  C   UNL     1      -2.768  10.769  16.416  0.00  0.00    +0.000 A 
ATOM     34  C   UNL     1      -2.412  10.088  15.272  0.00  0.00    +0.000 A 
ATOM     35  C   UNL     1      -3.545  10.090  14.449  0.00  0.00    +0.000 A 
ATOM     36  N   UNL     1      -4.579  10.690  15.028  0.00  0.00    +0.000 NA
ATOM     37  N   UNL     1      -4.096  11.101  16.223  0.00  0.00    +0.000 N 
ATOM     38  C   UNL     1      -4.975  11.859  17.087  0.00  0.00    +0.000 C 
ENDBRANCH  30  33
ENDBRANCH  28  29
ENDBRANCH  27  28
ENDBRANCH  25  27
ENDBRANCH  24  25
ENDBRANCH   5  24
TORSDOF 8
ENDMDL
