MODEL 1
REMARK VINA RESULT:      -7.8      0.000      0.000
REMARK  Name = 
REMARK  10 active torsions:
REMARK  status: ('A' for Active; 'I' for Inactive)
REMARK    1  A    between atoms: C_1  and  C_2
REMARK    2  A    between atoms: C_2  and  C_3
REMARK    3  A    between atoms: C_3  and  C_4
REMARK    4  A    between atoms: C_3  and  N_6
REMARK    5  A    between atoms: C_4  and  C_5
REMARK    6  A    between atoms: N_6  and  C_7
REMARK    7  A    between atoms: N_10  and  C_11
REMARK    8  A    between atoms: C_13  and  N_14
REMARK    9  A    between atoms: N_20  and  C_21
REMARK   10  A    between atoms: C_28  and  C_29
REMARK                            x       y       z     vdW  Elec       q    Type
REMARK                         _______ _______ _______ _____ _____    ______ ____
ROOT
ATOM      1  C   UNL     1       0.029  10.364  20.168  0.00  0.00    +0.000 A 
ATOM      2  N   UNL     1       0.505   9.262  20.782  0.00  0.00    +0.000 NA
ATOM      3  C   UNL     1       1.351   8.472  20.106  0.00  0.00    +0.000 A 
ATOM      4  N   UNL     1       1.830   7.310  20.713  0.00  0.00    +0.000 N 
ATOM      5  N   UNL     1       1.759   8.737  18.853  0.00  0.00    +0.000 NA
ATOM      6  C   UNL     1       1.330   9.869  18.291  0.00  0.00    +0.000 A 
ATOM      7  C   UNL     1       0.495  10.762  18.920  0.00  0.00    +0.000 A 
ATOM      8  C   UNL     1       0.091  12.001  18.194  0.00  0.00    +0.000 C 
ATOM      9  H   UNL     1       2.251   7.514  21.609  0.00  0.00    +0.000 HD
ENDROOT
BRANCH   4  10
ATOM     10  C   UNL     1       2.319   6.204  19.997  0.00  0.00    +0.000 A 
ATOM     11  C   UNL     1       3.501   6.333  19.262  0.00  0.00    +0.000 A 
ATOM     12  C   UNL     1       4.093   5.274  18.569  0.00  0.00    +0.000 A 
ATOM     13  C   UNL     1       3.383   4.076  18.635  0.00  0.00    +0.000 A 
ATOM     14  N   UNL     1       2.223   3.877  19.321  0.00  0.00    +0.000 NA
ATOM     15  C   UNL     1       1.726   4.948  19.986  0.00  0.00    +0.000 A 
ATOM     16  F   UNL     1       0.598   4.758  20.690  0.00  0.00    +0.000 F 
BRANCH  12  17
ATOM     17  N   UNL     1       5.254   5.471  17.883  0.00  0.00    +0.000 N 
ATOM     18  C   UNL     1       6.165   4.368  17.506  0.00  0.00    +0.000 C 
ATOM     19  C   UNL     1       7.063   5.062  16.435  0.00  0.00    +0.000 C 
ATOM     20  C   UNL     1       7.182   6.452  17.064  0.00  0.00    +0.000 C 
ATOM     21  C   UNL     1       5.660   6.647  17.094  0.00  0.00    +0.000 C 
ATOM     22  C   UNL     1       5.318   6.403  15.607  0.00  0.00    +0.000 C 
ATOM     23  N   UNL     1       6.358   5.427  15.170  0.00  0.00    +0.000 NA
ATOM     24  C   UNL     1       5.780   4.291  14.466  0.00  0.00    +0.000 C 
ENDBRANCH  12  17
ENDBRANCH   4  10
BRANCH   1  25
ATOM     25  N   UNL     1      -0.931  11.168  20.820  0.00  0.00    +0.000 N 
ATOM     26  H   UNL     1      -1.183  11.910  20.172  0.00  0.00    +0.000 HD
BRANCH  25  27
ATOM     27  C   UNL     1      -0.582  11.683  22.161  0.00  0.00    +0.000 C 
BRANCH  27  29
ATOM     28  C   UNL     1       0.819  13.692  21.379  0.00  0.00    +0.000 C 
ATOM     29  C   UNL     1      -0.445  13.220  22.089  0.00  0.00    +0.000 C 
ENDBRANCH  27  29
BRANCH  27  30
ATOM     30  C   UNL     1      -1.618  11.205  23.205  0.00  0.00    +0.000 C 
ATOM     31  C   UNL     1      -2.855  12.081  23.376  0.00  0.00    +0.000 C 
ENDBRANCH  27  30
ENDBRANCH  25  27
ENDBRANCH   1  25
TORSDOF 6
ENDMDL
MODEL 2
REMARK VINA RESULT:      -7.8      1.089      1.671
REMARK  Name = 
REMARK  10 active torsions:
REMARK  status: ('A' for Active; 'I' for Inactive)
REMARK    1  A    between atoms: C_1  and  C_2
REMARK    2  A    between atoms: C_2  and  C_3
REMARK    3  A    between atoms: C_3  and  C_4
REMARK    4  A    between atoms: C_3  and  N_6
REMARK    5  A    between atoms: C_4  and  C_5
REMARK    6  A    between atoms: N_6  and  C_7
REMARK    7  A    between atoms: N_10  and  C_11
REMARK    8  A    between atoms: C_13  and  N_14
REMARK    9  A    between atoms: N_20  and  C_21
REMARK   10  A    between atoms: C_28  and  C_29
REMARK                            x       y       z     vdW  Elec       q    Type
REMARK                         _______ _______ _______ _____ _____    ______ ____
ROOT
ATOM      1  C   UNL     1       0.448   9.456  20.147  0.00  0.00    +0.000 A 
ATOM      2  N   UNL     1       0.835   8.349  20.814  0.00  0.00    +0.000 NA
ATOM      3  C   UNL     1       1.741   7.545  20.240  0.00  0.00    +0.000 A 
ATOM      4  N   UNL     1       2.131   6.377  20.900  0.00  0.00    +0.000 N 
ATOM      5  N   UNL     1       2.291   7.799  19.040  0.00  0.00    +0.000 NA
ATOM      6  C   UNL     1       1.946   8.934  18.431  0.00  0.00    +0.000 A 
ATOM      7  C   UNL     1       1.058   9.842  18.960  0.00  0.00    +0.000 A 
ATOM      8  C   UNL     1       0.758  11.084  18.190  0.00  0.00    +0.000 C 
ATOM      9  H   UNL     1       2.450   6.579  21.837  0.00  0.00    +0.000 HD
ENDROOT
BRANCH   4  10
ATOM     10  C   UNL     1       2.681   5.263  20.246  0.00  0.00    +0.000 A 
ATOM     11  C   UNL     1       3.520   5.460  19.144  0.00  0.00    +0.000 A 
ATOM     12  C   UNL     1       4.159   4.416  18.470  0.00  0.00    +0.000 A 
ATOM     13  C   UNL     1       3.859   3.147  18.961  0.00  0.00    +0.000 A 
ATOM     14  N   UNL     1       3.046   2.876  20.021  0.00  0.00    +0.000 NA
ATOM     15  C   UNL     1       2.483   3.944  20.635  0.00  0.00    +0.000 A 
ATOM     16  F   UNL     1       1.703   3.693  21.699  0.00  0.00    +0.000 F 
BRANCH  12  17
ATOM     17  N   UNL     1       4.972   4.685  17.411  0.00  0.00    +0.000 N 
ATOM     18  C   UNL     1       4.858   5.917  16.599  0.00  0.00    +0.000 C 
ATOM     19  C   UNL     1       6.219   5.911  15.837  0.00  0.00    +0.000 C 
ATOM     20  C   UNL     1       6.363   4.409  15.582  0.00  0.00    +0.000 C 
ATOM     21  C   UNL     1       6.271   4.076  17.077  0.00  0.00    +0.000 C 
ATOM     22  C   UNL     1       7.406   4.965  17.632  0.00  0.00    +0.000 C 
ATOM     23  N   UNL     1       7.419   6.128  16.698  0.00  0.00    +0.000 NA
ATOM     24  C   UNL     1       7.417   7.399  17.408  0.00  0.00    +0.000 C 
ENDBRANCH  12  17
ENDBRANCH   4  10
BRANCH   1  25
ATOM     25  N   UNL     1      -0.568  10.276  20.685  0.00  0.00    +0.000 N 
ATOM     26  H   UNL     1      -0.974  10.790  19.907  0.00  0.00    +0.000 HD
BRANCH  25  27
ATOM     27  C   UNL     1      -0.198  11.156  21.814  0.00  0.00    +0.000 C 
BRANCH  27  29
ATOM     28  C   UNL     1       1.060  13.309  21.190  0.00  0.00    +0.000 C 
ATOM     29  C   UNL     1      -0.293  12.629  21.355  0.00  0.00    +0.000 C 
ENDBRANCH  27  29
BRANCH  27  30
ATOM     30  C   UNL     1      -1.072  10.838  23.050  0.00  0.00    +0.000 C 
ATOM     31  C   UNL     1      -2.269  11.755  23.281  0.00  0.00    +0.000 C 
ENDBRANCH  27  30
ENDBRANCH  25  27
ENDBRANCH   1  25
TORSDOF 6
ENDMDL
MODEL 3
REMARK VINA RESULT:      -7.7      1.187      1.473
REMARK  Name = 
REMARK  10 active torsions:
REMARK  status: ('A' for Active; 'I' for Inactive)
REMARK    1  A    between atoms: C_1  and  C_2
REMARK    2  A    between atoms: C_2  and  C_3
REMARK    3  A    between atoms: C_3  and  C_4
REMARK    4  A    between atoms: C_3  and  N_6
REMARK    5  A    between atoms: C_4  and  C_5
REMARK    6  A    between atoms: N_6  and  C_7
REMARK    7  A    between atoms: N_10  and  C_11
REMARK    8  A    between atoms: C_13  and  N_14
REMARK    9  A    between atoms: N_20  and  C_21
REMARK   10  A    between atoms: C_28  and  C_29
REMARK                            x       y       z     vdW  Elec       q    Type
REMARK                         _______ _______ _______ _____ _____    ______ ____
ROOT
ATOM      1  C   UNL     1       0.538   9.306  20.097  0.00  0.00    +0.000 A 
ATOM      2  N   UNL     1       0.854   8.211  20.820  0.00  0.00    +0.000 NA
ATOM      3  C   UNL     1       1.756   7.356  20.318  0.00  0.00    +0.000 A 
ATOM      4  N   UNL     1       2.072   6.201  21.036  0.00  0.00    +0.000 N 
ATOM      5  N   UNL     1       2.369   7.547  19.137  0.00  0.00    +0.000 NA
ATOM      6  C   UNL     1       2.093   8.670  18.473  0.00  0.00    +0.000 A 
ATOM      7  C   UNL     1       1.215   9.626  18.927  0.00  0.00    +0.000 A 
ATOM      8  C   UNL     1       0.996  10.849  18.101  0.00  0.00    +0.000 C 
ATOM      9  H   UNL     1       2.355   6.426  21.979  0.00  0.00    +0.000 HD
ENDROOT
BRANCH   4  10
ATOM     10  C   UNL     1       2.611   5.045  20.448  0.00  0.00    +0.000 A 
ATOM     11  C   UNL     1       3.707   5.161  19.586  0.00  0.00    +0.000 A 
ATOM     12  C   UNL     1       4.345   4.063  19.004  0.00  0.00    +0.000 A 
ATOM     13  C   UNL     1       3.773   2.832  19.320  0.00  0.00    +0.000 A 
ATOM     14  N   UNL     1       2.702   2.640  20.142  0.00  0.00    +0.000 NA
ATOM     15  C   UNL     1       2.155   3.754  20.685  0.00  0.00    +0.000 A 
ATOM     16  F   UNL     1       1.117   3.578  21.520  0.00  0.00    +0.000 F 
BRANCH  12  17
ATOM     17  N   UNL     1       5.416   4.252  18.183  0.00  0.00    +0.000 N 
ATOM     18  C   UNL     1       5.443   3.798  16.775  0.00  0.00    +0.000 C 
ATOM     19  C   UNL     1       6.658   4.600  16.216  0.00  0.00    +0.000 C 
ATOM     20  C   UNL     1       7.585   4.540  17.432  0.00  0.00    +0.000 C 
ATOM     21  C   UNL     1       6.539   5.191  18.348  0.00  0.00    +0.000 C 
ATOM     22  C   UNL     1       6.241   6.484  17.558  0.00  0.00    +0.000 C 
ATOM     23  N   UNL     1       6.452   6.076  16.138  0.00  0.00    +0.000 NA
ATOM     24  C   UNL     1       5.341   6.474  15.285  0.00  0.00    +0.000 C 
ENDBRANCH  12  17
ENDBRANCH   4  10
BRANCH   1  25
ATOM     25  N   UNL     1      -0.471  10.180  20.558  0.00  0.00    +0.000 N 
ATOM     26  H   UNL     1      -0.793  10.708  19.751  0.00  0.00    +0.000 HD
BRANCH  25  27
ATOM     27  C   UNL     1      -0.140  11.047  21.708  0.00  0.00    +0.000 C 
BRANCH  27  29
ATOM     28  C   UNL     1      -1.349  12.692  20.146  0.00  0.00    +0.000 C 
ATOM     29  C   UNL     1      -0.383  12.521  21.312  0.00  0.00    +0.000 C 
ENDBRANCH  27  29
BRANCH  27  30
ATOM     30  C   UNL     1      -0.935  10.606  22.959  0.00  0.00    +0.000 C 
ATOM     31  C   UNL     1      -2.064  11.531  23.399  0.00  0.00    +0.000 C 
ENDBRANCH  27  30
ENDBRANCH  25  27
ENDBRANCH   1  25
TORSDOF 6
ENDMDL
MODEL 4
REMARK VINA RESULT:      -7.6      0.953      1.585
REMARK  Name = 
REMARK  10 active torsions:
REMARK  status: ('A' for Active; 'I' for Inactive)
REMARK    1  A    between atoms: C_1  and  C_2
REMARK    2  A    between atoms: C_2  and  C_3
REMARK    3  A    between atoms: C_3  and  C_4
REMARK    4  A    between atoms: C_3  and  N_6
REMARK    5  A    between atoms: C_4  and  C_5
REMARK    6  A    between atoms: N_6  and  C_7
REMARK    7  A    between atoms: N_10  and  C_11
REMARK    8  A    between atoms: C_13  and  N_14
REMARK    9  A    between atoms: N_20  and  C_21
REMARK   10  A    between atoms: C_28  and  C_29
REMARK                            x       y       z     vdW  Elec       q    Type
REMARK                         _______ _______ _______ _____ _____    ______ ____
ROOT
ATOM      1  C   UNL     1      -0.035  10.263  20.135  0.00  0.00    +0.000 A 
ATOM      2  N   UNL     1       0.712   9.306  20.723  0.00  0.00    +0.000 NA
ATOM      3  C   UNL     1       1.391   8.457  19.938  0.00  0.00    +0.000 A 
ATOM      4  N   UNL     1       2.143   7.439  20.527  0.00  0.00    +0.000 N 
ATOM      5  N   UNL     1       1.373   8.526  18.596  0.00  0.00    +0.000 NA
ATOM      6  C   UNL     1       0.685   9.523  18.038  0.00  0.00    +0.000 A 
ATOM      7  C   UNL     1      -0.007  10.467  18.760  0.00  0.00    +0.000 A 
ATOM      8  C   UNL     1      -0.732  11.544  18.025  0.00  0.00    +0.000 C 
ATOM      9  H   UNL     1       2.791   7.813  21.207  0.00  0.00    +0.000 HD
ENDROOT
BRANCH   4  10
ATOM     10  C   UNL     1       2.502   6.255  19.862  0.00  0.00    +0.000 A 
ATOM     11  C   UNL     1       3.662   6.232  19.082  0.00  0.00    +0.000 A 
ATOM     12  C   UNL     1       4.129   5.085  18.434  0.00  0.00    +0.000 A 
ATOM     13  C   UNL     1       3.316   3.964  18.596  0.00  0.00    +0.000 A 
ATOM     14  N   UNL     1       2.170   3.912  19.331  0.00  0.00    +0.000 NA
ATOM     15  C   UNL     1       1.798   5.060  19.947  0.00  0.00    +0.000 A 
ATOM     16  F   UNL     1       0.686   5.016  20.699  0.00  0.00    +0.000 F 
BRANCH  12  17
ATOM     17  N   UNL     1       5.274   5.135  17.699  0.00  0.00    +0.000 N 
ATOM     18  C   UNL     1       5.436   6.009  16.517  0.00  0.00    +0.000 C 
ATOM     19  C   UNL     1       6.985   5.987  16.326  0.00  0.00    +0.000 C 
ATOM     20  C   UNL     1       7.265   4.528  16.689  0.00  0.00    +0.000 C 
ATOM     21  C   UNL     1       6.622   4.675  18.075  0.00  0.00    +0.000 C 
ATOM     22  C   UNL     1       7.429   5.869  18.632  0.00  0.00    +0.000 C 
ATOM     23  N   UNL     1       7.758   6.661  17.411  0.00  0.00    +0.000 NA
ATOM     24  C   UNL     1       7.441   8.073  17.574  0.00  0.00    +0.000 C 
ENDBRANCH  12  17
ENDBRANCH   4  10
BRANCH   1  25
ATOM     25  N   UNL     1      -0.829  11.117  20.930  0.00  0.00    +0.000 N 
ATOM     26  H   UNL     1      -1.417  11.650  20.294  0.00  0.00    +0.000 HD
BRANCH  25  27
ATOM     27  C   UNL     1      -0.128  11.977  21.907  0.00  0.00    +0.000 C 
BRANCH  27  29
ATOM     28  C   UNL     1      -0.007  14.473  21.302  0.00  0.00    +0.000 C 
ATOM     29  C   UNL     1       0.622  13.094  21.145  0.00  0.00    +0.000 C 
ENDBRANCH  27  29
BRANCH  27  30
ATOM     30  C   UNL     1      -1.124  12.513  22.962  0.00  0.00    +0.000 C 
ATOM     31  C   UNL     1      -2.595  12.188  22.725  0.00  0.00    +0.000 C 
ENDBRANCH  27  30
ENDBRANCH  25  27
ENDBRANCH   1  25
TORSDOF 6
ENDMDL
MODEL 5
REMARK VINA RESULT:      -7.2      2.813      8.271
REMARK  Name = 
REMARK  10 active torsions:
REMARK  status: ('A' for Active; 'I' for Inactive)
REMARK    1  A    between atoms: C_1  and  C_2
REMARK    2  A    between atoms: C_2  and  C_3
REMARK    3  A    between atoms: C_3  and  C_4
REMARK    4  A    between atoms: C_3  and  N_6
REMARK    5  A    between atoms: C_4  and  C_5
REMARK    6  A    between atoms: N_6  and  C_7
REMARK    7  A    between atoms: N_10  and  C_11
REMARK    8  A    between atoms: C_13  and  N_14
REMARK    9  A    between atoms: N_20  and  C_21
REMARK   10  A    between atoms: C_28  and  C_29
REMARK                            x       y       z     vdW  Elec       q    Type
REMARK                         _______ _______ _______ _____ _____    ______ ____
ROOT
ATOM      1  C   UNL     1       2.891   6.890  19.341  0.00  0.00    +0.000 A 
ATOM      2  N   UNL     1       1.896   7.604  19.908  0.00  0.00    +0.000 NA
ATOM      3  C   UNL     1       1.379   8.631  19.220  0.00  0.00    +0.000 A 
ATOM      4  N   UNL     1       0.372   9.403  19.803  0.00  0.00    +0.000 N 
ATOM      5  N   UNL     1       1.795   8.972  17.988  0.00  0.00    +0.000 NA
ATOM      6  C   UNL     1       2.730   8.209  17.419  0.00  0.00    +0.000 A 
ATOM      7  C   UNL     1       3.289   7.111  18.029  0.00  0.00    +0.000 A 
ATOM      8  C   UNL     1       4.320   6.327  17.288  0.00  0.00    +0.000 C 
ATOM      9  H   UNL     1      -0.396   8.824  20.112  0.00  0.00    +0.000 HD
ENDROOT
BRANCH   4  10
ATOM     10  C   UNL     1       0.083  10.723  19.418  0.00  0.00    +0.000 A 
ATOM     11  C   UNL     1       0.921  11.759  19.842  0.00  0.00    +0.000 A 
ATOM     12  C   UNL     1       0.747  13.092  19.460  0.00  0.00    +0.000 A 
ATOM     13  C   UNL     1      -0.362  13.316  18.647  0.00  0.00    +0.000 A 
ATOM     14  N   UNL     1      -1.227  12.361  18.202  0.00  0.00    +0.000 NA
ATOM     15  C   UNL     1      -0.976  11.091  18.598  0.00  0.00    +0.000 A 
ATOM     16  F   UNL     1      -1.804  10.135  18.143  0.00  0.00    +0.000 F 
BRANCH  12  17
ATOM     17  N   UNL     1       1.611  14.047  19.904  0.00  0.00    +0.000 N 
ATOM     18  C   UNL     1       2.960  13.734  20.426  0.00  0.00    +0.000 C 
ATOM     19  C   UNL     1       3.636  15.140  20.394  0.00  0.00    +0.000 C 
ATOM     20  C   UNL     1       2.445  16.005  20.810  0.00  0.00    +0.000 C 
ATOM     21  C   UNL     1       1.580  15.497  19.648  0.00  0.00    +0.000 C 
ATOM     22  C   UNL     1       2.502  15.822  18.451  0.00  0.00    +0.000 C 
ATOM     23  N   UNL     1       3.872  15.690  19.027  0.00  0.00    +0.000 NA
ATOM     24  C   UNL     1       4.736  14.863  18.197  0.00  0.00    +0.000 C 
ENDBRANCH  12  17
ENDBRANCH   4  10
BRANCH   1  25
ATOM     25  N   UNL     1       3.515   5.857  20.074  0.00  0.00    +0.000 N 
ATOM     26  H   UNL     1       4.493   5.848  19.796  0.00  0.00    +0.000 HD
BRANCH  25  27
ATOM     27  C   UNL     1       2.897   4.515  20.013  0.00  0.00    +0.000 C 
BRANCH  27  29
ATOM     28  C   UNL     1       3.700   2.819  18.256  0.00  0.00    +0.000 C 
ATOM     29  C   UNL     1       3.972   3.486  19.599  0.00  0.00    +0.000 C 
ENDBRANCH  27  29
BRANCH  27  30
ATOM     30  C   UNL     1       2.207   4.181  21.356  0.00  0.00    +0.000 C 
ATOM     31  C   UNL     1       1.469   2.848  21.419  0.00  0.00    +0.000 C 
ENDBRANCH  27  30
ENDBRANCH  25  27
ENDBRANCH   1  25
TORSDOF 6
ENDMDL
MODEL 6
REMARK VINA RESULT:      -7.1      3.036      8.653
REMARK  Name = 
REMARK  10 active torsions:
REMARK  status: ('A' for Active; 'I' for Inactive)
REMARK    1  A    between atoms: C_1  and  C_2
REMARK    2  A    between atoms: C_2  and  C_3
REMARK    3  A    between atoms: C_3  and  C_4
REMARK    4  A    between atoms: C_3  and  N_6
REMARK    5  A    between atoms: C_4  and  C_5
REMARK    6  A    between atoms: N_6  and  C_7
REMARK    7  A    between atoms: N_10  and  C_11
REMARK    8  A    between atoms: C_13  and  N_14
REMARK    9  A    between atoms: N_20  and  C_21
REMARK   10  A    between atoms: C_28  and  C_29
REMARK                            x       y       z     vdW  Elec       q    Type
REMARK                         _______ _______ _______ _____ _____    ______ ____
ROOT
ATOM      1  C   UNL     1       2.304   6.201  18.492  0.00  0.00    +0.000 A 
ATOM      2  N   UNL     1       2.306   7.368  17.816  0.00  0.00    +0.000 NA
ATOM      3  C   UNL     1       2.021   8.493  18.487  0.00  0.00    +0.000 A 
ATOM      4  N   UNL     1       1.986   9.707  17.798  0.00  0.00    +0.000 N 
ATOM      5  N   UNL     1       1.750   8.512  19.804  0.00  0.00    +0.000 NA
ATOM      6  C   UNL     1       1.823   7.356  20.466  0.00  0.00    +0.000 A 
ATOM      7  C   UNL     1       2.149   6.159  19.872  0.00  0.00    +0.000 A 
ATOM      8  C   UNL     1       2.210   4.932  20.719  0.00  0.00    +0.000 C 
ATOM      9  H   UNL     1       2.846   9.862  17.291  0.00  0.00    +0.000 HD
ENDROOT
BRANCH   4  10
ATOM     10  C   UNL     1       1.278  10.834  18.247  0.00  0.00    +0.000 A 
ATOM     11  C   UNL     1       1.979  11.998  18.576  0.00  0.00    +0.000 A 
ATOM     12  C   UNL     1       1.355  13.184  18.973  0.00  0.00    +0.000 A 
ATOM     13  C   UNL     1      -0.033  13.102  19.056  0.00  0.00    +0.000 A 
ATOM     14  N   UNL     1      -0.784  12.003  18.762  0.00  0.00    +0.000 NA
ATOM     15  C   UNL     1      -0.105  10.901  18.362  0.00  0.00    +0.000 A 
ATOM     16  F   UNL     1      -0.835   9.819  18.041  0.00  0.00    +0.000 F 
BRANCH  12  17
ATOM     17  N   UNL     1       2.104  14.284  19.266  0.00  0.00    +0.000 N 
ATOM     18  C   UNL     1       3.316  14.231  20.114  0.00  0.00    +0.000 C 
ATOM     19  C   UNL     1       3.978  15.606  19.790  0.00  0.00    +0.000 C 
ATOM     20  C   UNL     1       2.723  16.474  19.680  0.00  0.00    +0.000 C 
ATOM     21  C   UNL     1       2.121  15.588  18.581  0.00  0.00    +0.000 C 
ATOM     22  C   UNL     1       3.271  15.603  17.548  0.00  0.00    +0.000 C 
ATOM     23  N   UNL     1       4.491  15.741  18.395  0.00  0.00    +0.000 NA
ATOM     24  C   UNL     1       5.512  14.764  18.043  0.00  0.00    +0.000 C 
ENDBRANCH  12  17
ENDBRANCH   4  10
BRANCH   1  25
ATOM     25  N   UNL     1       2.514   4.990  17.797  0.00  0.00    +0.000 N 
ATOM     26  H   UNL     1       1.843   4.320  18.164  0.00  0.00    +0.000 HD
BRANCH  25  27
ATOM     27  C   UNL     1       3.892   4.456  17.771  0.00  0.00    +0.000 C 
BRANCH  27  29
ATOM     28  C   UNL     1       2.457   2.328  17.932  0.00  0.00    +0.000 C 
ATOM     29  C   UNL     1       3.831   2.918  17.636  0.00  0.00    +0.000 C 
ENDBRANCH  27  29
BRANCH  27  30
ATOM     30  C   UNL     1       4.712   5.141  16.653  0.00  0.00    +0.000 C 
ATOM     31  C   UNL     1       5.504   4.215  15.736  0.00  0.00    +0.000 C 
ENDBRANCH  27  30
ENDBRANCH  25  27
ENDBRANCH   1  25
TORSDOF 6
ENDMDL
MODEL 7
REMARK VINA RESULT:      -7.1      1.572      2.315
REMARK  Name = 
REMARK  10 active torsions:
REMARK  status: ('A' for Active; 'I' for Inactive)
REMARK    1  A    between atoms: C_1  and  C_2
REMARK    2  A    between atoms: C_2  and  C_3
REMARK    3  A    between atoms: C_3  and  C_4
REMARK    4  A    between atoms: C_3  and  N_6
REMARK    5  A    between atoms: C_4  and  C_5
REMARK    6  A    between atoms: N_6  and  C_7
REMARK    7  A    between atoms: N_10  and  C_11
REMARK    8  A    between atoms: C_13  and  N_14
REMARK    9  A    between atoms: N_20  and  C_21
REMARK   10  A    between atoms: C_28  and  C_29
REMARK                            x       y       z     vdW  Elec       q    Type
REMARK                         _______ _______ _______ _____ _____    ______ ____
ROOT
ATOM      1  C   UNL     1       0.937  10.127  19.632  0.00  0.00    +0.000 A 
ATOM      2  N   UNL     1       1.039   8.924  20.236  0.00  0.00    +0.000 NA
ATOM      3  C   UNL     1       1.820   7.993  19.670  0.00  0.00    +0.000 A 
ATOM      4  N   UNL     1       1.913   6.732  20.262  0.00  0.00    +0.000 N 
ATOM      5  N   UNL     1       2.517   8.207  18.540  0.00  0.00    +0.000 NA
ATOM      6  C   UNL     1       2.456   9.426  18.000  0.00  0.00    +0.000 A 
ATOM      7  C   UNL     1       1.717  10.457  18.530  0.00  0.00    +0.000 A 
ATOM      8  C   UNL     1       1.735  11.781  17.842  0.00  0.00    +0.000 C 
ATOM      9  H   UNL     1       2.179   6.805  21.234  0.00  0.00    +0.000 HD
ENDROOT
BRANCH   4  10
ATOM     10  C   UNL     1       2.294   5.573  19.564  0.00  0.00    +0.000 A 
ATOM     11  C   UNL     1       3.323   5.648  18.621  0.00  0.00    +0.000 A 
ATOM     12  C   UNL     1       3.808   4.538  17.924  0.00  0.00    +0.000 A 
ATOM     13  C   UNL     1       3.151   3.345  18.217  0.00  0.00    +0.000 A 
ATOM     14  N   UNL     1       2.136   3.195  19.114  0.00  0.00    +0.000 NA
ATOM     15  C   UNL     1       1.740   4.315  19.765  0.00  0.00    +0.000 A 
ATOM     16  F   UNL     1       0.759   4.177  20.674  0.00  0.00    +0.000 F 
BRANCH  12  17
ATOM     17  N   UNL     1       4.823   4.686  17.027  0.00  0.00    +0.000 N 
ATOM     18  C   UNL     1       5.000   5.903  16.204  0.00  0.00    +0.000 C 
ATOM     19  C   UNL     1       6.465   5.721  15.698  0.00  0.00    +0.000 C 
ATOM     20  C   UNL     1       6.474   4.207  15.480  0.00  0.00    +0.000 C 
ATOM     21  C   UNL     1       6.080   3.924  16.935  0.00  0.00    +0.000 C 
ATOM     22  C   UNL     1       7.195   4.691  17.682  0.00  0.00    +0.000 C 
ATOM     23  N   UNL     1       7.510   5.821  16.760  0.00  0.00    +0.000 NA
ATOM     24  C   UNL     1       7.530   7.101  17.453  0.00  0.00    +0.000 C 
ENDBRANCH  12  17
ENDBRANCH   4  10
BRANCH   1  25
ATOM     25  N   UNL     1       0.056  11.098  20.155  0.00  0.00    +0.000 N 
ATOM     26  H   UNL     1       0.168  11.084  21.166  0.00  0.00    +0.000 HD
BRANCH  25  27
ATOM     27  C   UNL     1      -1.361  11.017  19.741  0.00  0.00    +0.000 C 
BRANCH  27  29
ATOM     28  C   UNL     1      -1.019  13.563  19.623  0.00  0.00    +0.000 C 
ATOM     29  C   UNL     1      -1.999  12.420  19.859  0.00  0.00    +0.000 C 
ENDBRANCH  27  29
BRANCH  27  30
ATOM     30  C   UNL     1      -1.472  10.406  18.325  0.00  0.00    +0.000 C 
ATOM     31  C   UNL     1      -2.885  10.127  17.822  0.00  0.00    +0.000 C 
ENDBRANCH  27  30
ENDBRANCH  25  27
ENDBRANCH   1  25
TORSDOF 6
ENDMDL
MODEL 8
REMARK VINA RESULT:      -7.1      2.170      9.501
REMARK  Name = 
REMARK  10 active torsions:
REMARK  status: ('A' for Active; 'I' for Inactive)
REMARK    1  A    between atoms: C_1  and  C_2
REMARK    2  A    between atoms: C_2  and  C_3
REMARK    3  A    between atoms: C_3  and  C_4
REMARK    4  A    between atoms: C_3  and  N_6
REMARK    5  A    between atoms: C_4  and  C_5
REMARK    6  A    between atoms: N_6  and  C_7
REMARK    7  A    between atoms: N_10  and  C_11
REMARK    8  A    between atoms: C_13  and  N_14
REMARK    9  A    between atoms: N_20  and  C_21
REMARK   10  A    between atoms: C_28  and  C_29
REMARK                            x       y       z     vdW  Elec       q    Type
REMARK                         _______ _______ _______ _____ _____    ______ ____
ROOT
ATOM      1  C   UNL     1       2.942   7.021  18.187  0.00  0.00    +0.000 A 
ATOM      2  N   UNL     1       2.584   8.236  17.721  0.00  0.00    +0.000 NA
ATOM      3  C   UNL     1       1.804   9.008  18.492  0.00  0.00    +0.000 A 
ATOM      4  N   UNL     1       1.396  10.255  18.014  0.00  0.00    +0.000 N 
ATOM      5  N   UNL     1       1.378   8.634  19.711  0.00  0.00    +0.000 NA
ATOM      6  C   UNL     1       1.802   7.460  20.180  0.00  0.00    +0.000 A 
ATOM      7  C   UNL     1       2.637   6.619  19.482  0.00  0.00    +0.000 A 
ATOM      8  C   UNL     1       3.053   5.334  20.115  0.00  0.00    +0.000 C 
ATOM      9  H   UNL     1       2.189  10.811  17.725  0.00  0.00    +0.000 HD
ENDROOT
BRANCH   4  10
ATOM     10  C   UNL     1       0.257  10.931  18.482  0.00  0.00    +0.000 A 
ATOM     11  C   UNL     1       0.413  12.015  19.351  0.00  0.00    +0.000 A 
ATOM     12  C   UNL     1      -0.656  12.783  19.820  0.00  0.00    +0.000 A 
ATOM     13  C   UNL     1      -1.907  12.353  19.381  0.00  0.00    +0.000 A 
ATOM     14  N   UNL     1      -2.139  11.303  18.544  0.00  0.00    +0.000 NA
ATOM     15  C   UNL     1      -1.048  10.624  18.116  0.00  0.00    +0.000 A 
ATOM     16  F   UNL     1      -1.259   9.604  17.267  0.00  0.00    +0.000 F 
BRANCH  12  17
ATOM     17  N   UNL     1      -0.427  13.833  20.657  0.00  0.00    +0.000 N 
ATOM     18  C   UNL     1      -1.030  15.169  20.458  0.00  0.00    +0.000 C 
ATOM     19  C   UNL     1      -0.788  15.828  21.851  0.00  0.00    +0.000 C 
ATOM     20  C   UNL     1       0.597  15.257  22.165  0.00  0.00    +0.000 C 
ATOM     21  C   UNL     1       0.109  13.809  22.029  0.00  0.00    +0.000 C 
ATOM     22  C   UNL     1      -1.066  13.814  23.032  0.00  0.00    +0.000 C 
ATOM     23  N   UNL     1      -1.562  15.220  22.974  0.00  0.00    +0.000 NA
ATOM     24  C   UNL     1      -3.006  15.282  22.799  0.00  0.00    +0.000 C 
ENDBRANCH  12  17
ENDBRANCH   4  10
BRANCH   1  25
ATOM     25  N   UNL     1       3.690   6.151  17.365  0.00  0.00    +0.000 N 
ATOM     26  H   UNL     1       3.711   5.248  17.835  0.00  0.00    +0.000 HD
BRANCH  25  27
ATOM     27  C   UNL     1       5.034   6.603  16.947  0.00  0.00    +0.000 C 
BRANCH  27  29
ATOM     28  C   UNL     1       7.424   6.793  17.873  0.00  0.00    +0.000 C 
ATOM     29  C   UNL     1       6.076   6.090  17.967  0.00  0.00    +0.000 C 
ENDBRANCH  27  29
BRANCH  27  30
ATOM     30  C   UNL     1       5.322   6.157  15.495  0.00  0.00    +0.000 C 
ATOM     31  C   UNL     1       5.487   4.657  15.271  0.00  0.00    +0.000 C 
ENDBRANCH  27  30
ENDBRANCH  25  27
ENDBRANCH   1  25
TORSDOF 6
ENDMDL
MODEL 9
REMARK VINA RESULT:      -7.1      2.094      9.206
REMARK  Name = 
REMARK  10 active torsions:
REMARK  status: ('A' for Active; 'I' for Inactive)
REMARK    1  A    between atoms: C_1  and  C_2
REMARK    2  A    between atoms: C_2  and  C_3
REMARK    3  A    between atoms: C_3  and  C_4
REMARK    4  A    between atoms: C_3  and  N_6
REMARK    5  A    between atoms: C_4  and  C_5
REMARK    6  A    between atoms: N_6  and  C_7
REMARK    7  A    between atoms: N_10  and  C_11
REMARK    8  A    between atoms: C_13  and  N_14
REMARK    9  A    between atoms: N_20  and  C_21
REMARK   10  A    between atoms: C_28  and  C_29
REMARK                            x       y       z     vdW  Elec       q    Type
REMARK                         _______ _______ _______ _____ _____    ______ ____
ROOT
ATOM      1  C   UNL     1       3.343   6.726  17.905  0.00  0.00    +0.000 A 
ATOM      2  N   UNL     1       2.916   7.938  17.495  0.00  0.00    +0.000 NA
ATOM      3  C   UNL     1       2.116   8.640  18.310  0.00  0.00    +0.000 A 
ATOM      4  N   UNL     1       1.637   9.883  17.891  0.00  0.00    +0.000 N 
ATOM      5  N   UNL     1       1.732   8.198  19.521  0.00  0.00    +0.000 NA
ATOM      6  C   UNL     1       2.223   7.028  19.934  0.00  0.00    +0.000 A 
ATOM      7  C   UNL     1       3.083   6.258  19.187  0.00  0.00    +0.000 A 
ATOM      8  C   UNL     1       3.574   4.971  19.761  0.00  0.00    +0.000 C 
ATOM      9  H   UNL     1       2.396  10.488  17.610  0.00  0.00    +0.000 HD
ENDROOT
BRANCH   4  10
ATOM     10  C   UNL     1       0.476  10.483  18.407  0.00  0.00    +0.000 A 
ATOM     11  C   UNL     1       0.594  11.466  19.394  0.00  0.00    +0.000 A 
ATOM     12  C   UNL     1      -0.499  12.159  19.922  0.00  0.00    +0.000 A 
ATOM     13  C   UNL     1      -1.732  11.759  19.412  0.00  0.00    +0.000 A 
ATOM     14  N   UNL     1      -1.927  10.804  18.459  0.00  0.00    +0.000 NA
ATOM     15  C   UNL     1      -0.815  10.196  17.981  0.00  0.00    +0.000 A 
ATOM     16  F   UNL     1      -0.989   9.273  17.021  0.00  0.00    +0.000 F 
BRANCH  12  17
ATOM     17  N   UNL     1      -0.306  13.114  20.874  0.00  0.00    +0.000 N 
ATOM     18  C   UNL     1       1.029  13.653  21.217  0.00  0.00    +0.000 C 
ATOM     19  C   UNL     1       0.647  14.939  22.013  0.00  0.00    +0.000 C 
ATOM     20  C   UNL     1      -0.580  14.418  22.765  0.00  0.00    +0.000 C 
ATOM     21  C   UNL     1      -1.298  14.028  21.466  0.00  0.00    +0.000 C 
ATOM     22  C   UNL     1      -1.261  15.375  20.711  0.00  0.00    +0.000 C 
ATOM     23  N   UNL     1      -0.002  16.009  21.200  0.00  0.00    +0.000 NA
ATOM     24  C   UNL     1       0.822  16.502  20.105  0.00  0.00    +0.000 C 
ENDBRANCH  12  17
ENDBRANCH   4  10
BRANCH   1  25
ATOM     25  N   UNL     1       4.115   5.926  17.035  0.00  0.00    +0.000 N 
ATOM     26  H   UNL     1       4.242   5.028  17.496  0.00  0.00    +0.000 HD
BRANCH  25  27
ATOM     27  C   UNL     1       5.387   6.496  16.543  0.00  0.00    +0.000 C 
BRANCH  27  29
ATOM     28  C   UNL     1       7.522   7.528  17.537  0.00  0.00    +0.000 C 
ATOM     29  C   UNL     1       6.419   6.488  17.694  0.00  0.00    +0.000 C 
ENDBRANCH  27  29
BRANCH  27  30
ATOM     30  C   UNL     1       5.863   5.737  15.283  0.00  0.00    +0.000 C 
ATOM     31  C   UNL     1       5.389   4.294  15.148  0.00  0.00    +0.000 C 
ENDBRANCH  27  30
ENDBRANCH  25  27
ENDBRANCH   1  25
TORSDOF 6
ENDMDL
