MODEL 1
REMARK VINA RESULT:      -7.1      0.000      0.000
REMARK  Name = 
REMARK  13 active torsions:
REMARK  status: ('A' for Active; 'I' for Inactive)
REMARK    1  A    between atoms: C_1  and  C_2
REMARK    2  A    between atoms: C_2  and  N_3
REMARK    3  A    between atoms: N_3  and  C_4
REMARK    4  A    between atoms: N_3  and  C_6
REMARK    5  A    between atoms: C_4  and  C_5
REMARK    6  A    between atoms: C_6  and  C_7
REMARK    7  A    between atoms: C_7  and  C_8
REMARK    8  A    between atoms: C_8  and  N_9
REMARK    9  A    between atoms: C_10  and  C_12
REMARK   10  A    between atoms: N_17  and  C_18
REMARK   11  A    between atoms: C_21  and  O_22
REMARK   12  A    between atoms: O_22  and  C_23
REMARK   13  A    between atoms: C_26  and  C_27
REMARK                            x       y       z     vdW  Elec       q    Type
REMARK                         _______ _______ _______ _____ _____    ______ ____
ROOT
ATOM      1  C   UNL     1       4.616   3.114  19.341  0.00  0.00    +0.000 C 
ATOM      2  C   UNL     1       3.636   2.341  20.221  0.00  0.00    +0.000 C 
ATOM      3  C   UNL     1       2.202   2.605  19.813  0.00  0.00    +0.000 C 
ATOM      4  C   UNL     1       1.850   4.055  19.551  0.00  0.00    +0.000 C 
ATOM      5  O   UNL     1       0.651   4.364  19.546  0.00  0.00    +0.000 OA
ATOM      6  N   UNL     1       2.891   4.959  19.238  0.00  0.00    +0.000 N 
ATOM      7  C   UNL     1       4.337   4.628  19.500  0.00  0.00    +0.000 C 
ENDROOT
BRANCH   7   8
ATOM      8  C   UNL     1       5.357   5.535  18.761  0.00  0.00    +0.000 A 
ATOM      9  C   UNL     1       6.695   5.595  19.206  0.00  0.00    +0.000 A 
ATOM     10  C   UNL     1       7.603   6.524  18.681  0.00  0.00    +0.000 A 
ATOM     11  C   UNL     1       7.213   7.369  17.652  0.00  0.00    +0.000 A 
ATOM     12  F   UNL     1       8.067   8.283  17.176  0.00  0.00    +0.000 F 
ATOM     13  C   UNL     1       5.944   7.276  17.122  0.00  0.00    +0.000 A 
ATOM     14  C   UNL     1       5.032   6.369  17.673  0.00  0.00    +0.000 A 
ENDBRANCH   7   8
BRANCH   6  15
ATOM     15  C   UNL     1       2.494   6.343  19.197  0.00  0.00    +0.000 A 
ATOM     16  C   UNL     1       2.135   7.030  20.357  0.00  0.00    +0.000 A 
ATOM     17  C   UNL     1       1.769   8.377  20.307  0.00  0.00    +0.000 A 
ATOM     18  C   UNL     1       1.714   9.051  19.090  0.00  0.00    +0.000 A 
ATOM     19  C   UNL     1       2.000   8.358  17.915  0.00  0.00    +0.000 A 
ATOM     20  C   UNL     1       2.387   7.010  17.968  0.00  0.00    +0.000 A 
BRANCH  18  21
ATOM     21  O   UNL     1       1.316  10.354  19.178  0.00  0.00    +0.000 OA
ATOM     22  C   UNL     1       1.960  11.268  18.299  0.00  0.00    +0.000 C 
ENDBRANCH  18  21
ENDBRANCH   6  15
BRANCH   1  24
ATOM     23  N   UNL     1       4.987   3.390  16.926  0.00  0.00    +0.000 N 
ATOM     24  C   UNL     1       4.565   2.540  17.924  0.00  0.00    +0.000 C 
ATOM     25  O   UNL     1       4.130   1.411  17.705  0.00  0.00    +0.000 OA
ATOM     26  H   UNL     1       5.551   4.188  17.193  0.00  0.00    +0.000 HD
BRANCH  23  27
ATOM     27  C   UNL     1       5.134   2.959  15.550  0.00  0.00    +0.000 C 
BRANCH  27  28
ATOM     28  C   UNL     1       5.529   4.155  14.694  0.00  0.00    +0.000 C 
BRANCH  28  29
ATOM     29  C   UNL     1       6.434   3.778  13.521  0.00  0.00    +0.000 C 
BRANCH  29  30
ATOM     30  N   UNL     1       5.755   3.056  12.431  0.00  0.00    +0.000 NA
BRANCH  30  32
ATOM     31  C   UNL     1       3.704   3.068  10.955  0.00  0.00    +0.000 C 
ATOM     32  C   UNL     1       4.683   3.858  11.815  0.00  0.00    +0.000 C 
ENDBRANCH  30  32
BRANCH  30  33
ATOM     33  C   UNL     1       6.725   2.501  11.473  0.00  0.00    +0.000 C 
ATOM     34  C   UNL     1       6.516   1.042  11.078  0.00  0.00    +0.000 C 
ENDBRANCH  30  33
ENDBRANCH  29  30
ENDBRANCH  28  29
ENDBRANCH  27  28
ENDBRANCH  23  27
ENDBRANCH   1  24
TORSDOF 10
ENDMDL
MODEL 2
REMARK VINA RESULT:      -7.1      0.566      1.432
REMARK  Name = 
REMARK  13 active torsions:
REMARK  status: ('A' for Active; 'I' for Inactive)
REMARK    1  A    between atoms: C_1  and  C_2
REMARK    2  A    between atoms: C_2  and  N_3
REMARK    3  A    between atoms: N_3  and  C_4
REMARK    4  A    between atoms: N_3  and  C_6
REMARK    5  A    between atoms: C_4  and  C_5
REMARK    6  A    between atoms: C_6  and  C_7
REMARK    7  A    between atoms: C_7  and  C_8
REMARK    8  A    between atoms: C_8  and  N_9
REMARK    9  A    between atoms: C_10  and  C_12
REMARK   10  A    between atoms: N_17  and  C_18
REMARK   11  A    between atoms: C_21  and  O_22
REMARK   12  A    between atoms: O_22  and  C_23
REMARK   13  A    between atoms: C_26  and  C_27
REMARK                            x       y       z     vdW  Elec       q    Type
REMARK                         _______ _______ _______ _____ _____    ______ ____
ROOT
ATOM      1  C   UNL     1       4.495   3.097  19.387  0.00  0.00    +0.000 C 
ATOM      2  C   UNL     1       3.483   2.297  20.205  0.00  0.00    +0.000 C 
ATOM      3  C   UNL     1       2.066   2.571  19.748  0.00  0.00    +0.000 C 
ATOM      4  C   UNL     1       1.721   4.028  19.514  0.00  0.00    +0.000 C 
ATOM      5  O   UNL     1       0.522   4.335  19.471  0.00  0.00    +0.000 OA
ATOM      6  N   UNL     1       2.772   4.942  19.269  0.00  0.00    +0.000 N 
ATOM      7  C   UNL     1       4.207   4.605  19.578  0.00  0.00    +0.000 C 
ENDROOT
BRANCH   7   8
ATOM      8  C   UNL     1       5.253   5.534  18.906  0.00  0.00    +0.000 A 
ATOM      9  C   UNL     1       4.891   6.300  17.778  0.00  0.00    +0.000 A 
ATOM     10  C   UNL     1       5.843   7.015  17.039  0.00  0.00    +0.000 A 
ATOM     11  C   UNL     1       7.168   7.035  17.450  0.00  0.00    +0.000 A 
ATOM     12  F   UNL     1       8.085   7.685  16.725  0.00  0.00    +0.000 F 
ATOM     13  C   UNL     1       7.546   6.378  18.603  0.00  0.00    +0.000 A 
ATOM     14  C   UNL     1       6.597   5.639  19.317  0.00  0.00    +0.000 A 
ENDBRANCH   7   8
BRANCH   6  15
ATOM     15  C   UNL     1       2.373   6.325  19.253  0.00  0.00    +0.000 A 
ATOM     16  C   UNL     1       2.085   7.013  20.432  0.00  0.00    +0.000 A 
ATOM     17  C   UNL     1       1.716   8.360  20.405  0.00  0.00    +0.000 A 
ATOM     18  C   UNL     1       1.589   9.034  19.193  0.00  0.00    +0.000 A 
ATOM     19  C   UNL     1       1.803   8.341  18.003  0.00  0.00    +0.000 A 
ATOM     20  C   UNL     1       2.192   6.993  18.033  0.00  0.00    +0.000 A 
BRANCH  18  21
ATOM     21  O   UNL     1       1.197  10.338  19.305  0.00  0.00    +0.000 OA
ATOM     22  C   UNL     1      -0.200  10.582  19.207  0.00  0.00    +0.000 C 
ENDBRANCH  18  21
ENDBRANCH   6  15
BRANCH   1  24
ATOM     23  N   UNL     1       5.238   3.300  17.052  0.00  0.00    +0.000 N 
ATOM     24  C   UNL     1       4.502   2.564  17.953  0.00  0.00    +0.000 C 
ATOM     25  O   UNL     1       3.850   1.570  17.635  0.00  0.00    +0.000 OA
ATOM     26  H   UNL     1       5.931   3.941  17.420  0.00  0.00    +0.000 HD
BRANCH  23  27
ATOM     27  C   UNL     1       5.463   2.860  15.689  0.00  0.00    +0.000 C 
BRANCH  27  28
ATOM     28  C   UNL     1       5.508   4.076  14.775  0.00  0.00    +0.000 C 
BRANCH  28  29
ATOM     29  C   UNL     1       6.606   3.987  13.714  0.00  0.00    +0.000 C 
BRANCH  29  30
ATOM     30  N   UNL     1       6.115   3.823  12.335  0.00  0.00    +0.000 NA
BRANCH  30  32
ATOM     31  C   UNL     1       6.966   1.671  11.323  0.00  0.00    +0.000 C 
ATOM     32  C   UNL     1       7.113   3.181  11.462  0.00  0.00    +0.000 C 
ENDBRANCH  30  32
BRANCH  30  33
ATOM     33  C   UNL     1       4.788   3.187  12.313  0.00  0.00    +0.000 C 
ATOM     34  C   UNL     1       3.956   3.418  11.055  0.00  0.00    +0.000 C 
ENDBRANCH  30  33
ENDBRANCH  29  30
ENDBRANCH  28  29
ENDBRANCH  27  28
ENDBRANCH  23  27
ENDBRANCH   1  24
TORSDOF 10
ENDMDL
MODEL 3
REMARK VINA RESULT:      -7.0      0.800      1.556
REMARK  Name = 
REMARK  13 active torsions:
REMARK  status: ('A' for Active; 'I' for Inactive)
REMARK    1  A    between atoms: C_1  and  C_2
REMARK    2  A    between atoms: C_2  and  N_3
REMARK    3  A    between atoms: N_3  and  C_4
REMARK    4  A    between atoms: N_3  and  C_6
REMARK    5  A    between atoms: C_4  and  C_5
REMARK    6  A    between atoms: C_6  and  C_7
REMARK    7  A    between atoms: C_7  and  C_8
REMARK    8  A    between atoms: C_8  and  N_9
REMARK    9  A    between atoms: C_10  and  C_12
REMARK   10  A    between atoms: N_17  and  C_18
REMARK   11  A    between atoms: C_21  and  O_22
REMARK   12  A    between atoms: O_22  and  C_23
REMARK   13  A    between atoms: C_26  and  C_27
REMARK                            x       y       z     vdW  Elec       q    Type
REMARK                         _______ _______ _______ _____ _____    ______ ____
ROOT
ATOM      1  C   UNL     1       4.470   3.100  19.616  0.00  0.00    +0.000 C 
ATOM      2  C   UNL     1       3.489   2.387  20.545  0.00  0.00    +0.000 C 
ATOM      3  C   UNL     1       2.055   2.644  20.135  0.00  0.00    +0.000 C 
ATOM      4  C   UNL     1       1.717   4.082  19.796  0.00  0.00    +0.000 C 
ATOM      5  O   UNL     1       0.521   4.404  19.784  0.00  0.00    +0.000 OA
ATOM      6  N   UNL     1       2.765   4.955  19.425  0.00  0.00    +0.000 N 
ATOM      7  C   UNL     1       4.209   4.623  19.694  0.00  0.00    +0.000 C 
ENDROOT
BRANCH   7   8
ATOM      8  C   UNL     1       5.233   5.476  18.897  0.00  0.00    +0.000 A 
ATOM      9  C   UNL     1       6.582   5.517  19.308  0.00  0.00    +0.000 A 
ATOM     10  C   UNL     1       7.500   6.404  18.728  0.00  0.00    +0.000 A 
ATOM     11  C   UNL     1       7.106   7.221  17.678  0.00  0.00    +0.000 A 
ATOM     12  F   UNL     1       7.970   8.094  17.148  0.00  0.00    +0.000 F 
ATOM     13  C   UNL     1       5.822   7.141  17.182  0.00  0.00    +0.000 A 
ATOM     14  C   UNL     1       4.902   6.278  17.788  0.00  0.00    +0.000 A 
ENDBRANCH   7   8
BRANCH   6  15
ATOM     15  C   UNL     1       2.382   6.339  19.312  0.00  0.00    +0.000 A 
ATOM     16  C   UNL     1       2.305   6.972  18.070  0.00  0.00    +0.000 A 
ATOM     17  C   UNL     1       1.916   8.310  17.971  0.00  0.00    +0.000 A 
ATOM     18  C   UNL     1       1.636   9.052  19.116  0.00  0.00    +0.000 A 
ATOM     19  C   UNL     1       1.778   8.453  20.367  0.00  0.00    +0.000 A 
ATOM     20  C   UNL     1       2.150   7.104  20.464  0.00  0.00    +0.000 A 
BRANCH  18  21
ATOM     21  O   UNL     1       1.293  10.353  18.882  0.00  0.00    +0.000 OA
ATOM     22  C   UNL     1       0.893  11.110  20.017  0.00  0.00    +0.000 C 
ENDBRANCH  18  21
ENDBRANCH   6  15
BRANCH   1  24
ATOM     23  N   UNL     1       4.880   3.215  17.194  0.00  0.00    +0.000 N 
ATOM     24  C   UNL     1       4.401   2.449  18.234  0.00  0.00    +0.000 C 
ATOM     25  O   UNL     1       3.904   1.335  18.073  0.00  0.00    +0.000 OA
ATOM     26  H   UNL     1       5.485   3.994  17.423  0.00  0.00    +0.000 HD
BRANCH  23  27
ATOM     27  C   UNL     1       5.016   2.699  15.847  0.00  0.00    +0.000 C 
BRANCH  27  28
ATOM     28  C   UNL     1       5.097   3.866  14.873  0.00  0.00    +0.000 C 
BRANCH  28  29
ATOM     29  C   UNL     1       6.392   3.879  14.062  0.00  0.00    +0.000 C 
BRANCH  29  30
ATOM     30  N   UNL     1       6.207   4.070  12.613  0.00  0.00    +0.000 NA
BRANCH  30  32
ATOM     31  C   UNL     1       8.184   5.644  12.612  0.00  0.00    +0.000 C 
ATOM     32  C   UNL     1       7.452   4.487  11.943  0.00  0.00    +0.000 C 
ENDBRANCH  30  32
BRANCH  30  33
ATOM     33  C   UNL     1       5.548   2.905  12.001  0.00  0.00    +0.000 C 
ATOM     34  C   UNL     1       4.222   3.180  11.296  0.00  0.00    +0.000 C 
ENDBRANCH  30  33
ENDBRANCH  29  30
ENDBRANCH  28  29
ENDBRANCH  27  28
ENDBRANCH  23  27
ENDBRANCH   1  24
TORSDOF 10
ENDMDL
MODEL 4
REMARK VINA RESULT:      -6.9      9.166     12.310
REMARK  Name = 
REMARK  13 active torsions:
REMARK  status: ('A' for Active; 'I' for Inactive)
REMARK    1  A    between atoms: C_1  and  C_2
REMARK    2  A    between atoms: C_2  and  N_3
REMARK    3  A    between atoms: N_3  and  C_4
REMARK    4  A    between atoms: N_3  and  C_6
REMARK    5  A    between atoms: C_4  and  C_5
REMARK    6  A    between atoms: C_6  and  C_7
REMARK    7  A    between atoms: C_7  and  C_8
REMARK    8  A    between atoms: C_8  and  N_9
REMARK    9  A    between atoms: C_10  and  C_12
REMARK   10  A    between atoms: N_17  and  C_18
REMARK   11  A    between atoms: C_21  and  O_22
REMARK   12  A    between atoms: O_22  and  C_23
REMARK   13  A    between atoms: C_26  and  C_27
REMARK                            x       y       z     vdW  Elec       q    Type
REMARK                         _______ _______ _______ _____ _____    ______ ____
ROOT
ATOM      1  C   UNL     1      -3.009  12.831  22.665  0.00  0.00    +0.000 C 
ATOM      2  C   UNL     1      -2.998  13.707  23.916  0.00  0.00    +0.000 C 
ATOM      3  C   UNL     1      -2.794  15.165  23.566  0.00  0.00    +0.000 C 
ATOM      4  C   UNL     1      -1.705  15.450  22.551  0.00  0.00    +0.000 C 
ATOM      5  O   UNL     1      -1.273  16.609  22.482  0.00  0.00    +0.000 OA
ATOM      6  N   UNL     1      -1.302  14.413  21.680  0.00  0.00    +0.000 N 
ATOM      7  C   UNL     1      -1.644  12.971  21.949  0.00  0.00    +0.000 C 
ENDROOT
BRANCH   7   8
ATOM      8  C   UNL     1      -1.474  12.023  20.731  0.00  0.00    +0.000 A 
ATOM      9  C   UNL     1      -0.659  10.877  20.843  0.00  0.00    +0.000 A 
ATOM     10  C   UNL     1      -0.340  10.091  19.727  0.00  0.00    +0.000 A 
ATOM     11  C   UNL     1      -0.882  10.395  18.487  0.00  0.00    +0.000 A 
ATOM     12  F   UNL     1      -0.549   9.670  17.413  0.00  0.00    +0.000 F 
ATOM     13  C   UNL     1      -1.761  11.450  18.355  0.00  0.00    +0.000 A 
ATOM     14  C   UNL     1      -2.049  12.250  19.466  0.00  0.00    +0.000 A 
ENDBRANCH   7   8
BRANCH   6  15
ATOM     15  C   UNL     1      -0.136  14.712  20.888  0.00  0.00    +0.000 A 
ATOM     16  C   UNL     1      -0.246  15.284  19.620  0.00  0.00    +0.000 A 
ATOM     17  C   UNL     1       0.892  15.585  18.869  0.00  0.00    +0.000 A 
ATOM     18  C   UNL     1       2.161  15.282  19.355  0.00  0.00    +0.000 A 
ATOM     19  C   UNL     1       2.284  14.645  20.589  0.00  0.00    +0.000 A 
ATOM     20  C   UNL     1       1.140  14.360  21.351  0.00  0.00    +0.000 A 
BRANCH  18  21
ATOM     21  O   UNL     1       3.186  15.604  18.511  0.00  0.00    +0.000 OA
ATOM     22  C   UNL     1       2.927  16.645  17.579  0.00  0.00    +0.000 C 
ENDBRANCH  18  21
ENDBRANCH   6  15
BRANCH   1  24
ATOM     23  N   UNL     1      -5.393  12.450  22.198  0.00  0.00    +0.000 N 
ATOM     24  C   UNL     1      -4.262  13.153  21.848  0.00  0.00    +0.000 C 
ATOM     25  O   UNL     1      -4.232  13.955  20.916  0.00  0.00    +0.000 OA
ATOM     26  H   UNL     1      -5.410  12.007  23.109  0.00  0.00    +0.000 HD
BRANCH  23  27
ATOM     27  C   UNL     1      -6.693  12.733  21.622  0.00  0.00    +0.000 C 
BRANCH  27  28
ATOM     28  C   UNL     1      -7.184  11.501  20.875  0.00  0.00    +0.000 C 
BRANCH  28  29
ATOM     29  C   UNL     1      -7.352  11.738  19.374  0.00  0.00    +0.000 C 
BRANCH  29  30
ATOM     30  N   UNL     1      -6.503  12.808  18.824  0.00  0.00    +0.000 NA
BRANCH  30  32
ATOM     31  C   UNL     1      -5.345  10.759  17.905  0.00  0.00    +0.000 C 
ATOM     32  C   UNL     1      -5.427  12.280  17.967  0.00  0.00    +0.000 C 
ENDBRANCH  30  32
BRANCH  30  33
ATOM     33  C   UNL     1      -7.315  13.865  18.198  0.00  0.00    +0.000 C 
ATOM     34  C   UNL     1      -7.120  14.058  16.697  0.00  0.00    +0.000 C 
ENDBRANCH  30  33
ENDBRANCH  29  30
ENDBRANCH  28  29
ENDBRANCH  27  28
ENDBRANCH  23  27
ENDBRANCH   1  24
TORSDOF 10
ENDMDL
MODEL 5
REMARK VINA RESULT:      -6.9      9.092     12.423
REMARK  Name = 
REMARK  13 active torsions:
REMARK  status: ('A' for Active; 'I' for Inactive)
REMARK    1  A    between atoms: C_1  and  C_2
REMARK    2  A    between atoms: C_2  and  N_3
REMARK    3  A    between atoms: N_3  and  C_4
REMARK    4  A    between atoms: N_3  and  C_6
REMARK    5  A    between atoms: C_4  and  C_5
REMARK    6  A    between atoms: C_6  and  C_7
REMARK    7  A    between atoms: C_7  and  C_8
REMARK    8  A    between atoms: C_8  and  N_9
REMARK    9  A    between atoms: C_10  and  C_12
REMARK   10  A    between atoms: N_17  and  C_18
REMARK   11  A    between atoms: C_21  and  O_22
REMARK   12  A    between atoms: O_22  and  C_23
REMARK   13  A    between atoms: C_26  and  C_27
REMARK                            x       y       z     vdW  Elec       q    Type
REMARK                         _______ _______ _______ _____ _____    ______ ____
ROOT
ATOM      1  C   UNL     1      -5.308  12.632  22.635  0.00  0.00    +0.000 C 
ATOM      2  C   UNL     1      -6.562  13.077  23.385  0.00  0.00    +0.000 C 
ATOM      3  C   UNL     1      -6.643  14.585  23.477  0.00  0.00    +0.000 C 
ATOM      4  C   UNL     1      -5.359  15.289  23.865  0.00  0.00    +0.000 C 
ATOM      5  O   UNL     1      -5.443  16.455  24.276  0.00  0.00    +0.000 OA
ATOM      6  N   UNL     1      -4.131  14.622  23.655  0.00  0.00    +0.000 N 
ATOM      7  C   UNL     1      -4.064  13.138  23.404  0.00  0.00    +0.000 C 
ENDROOT
BRANCH   7   8
ATOM      8  C   UNL     1      -2.718  12.635  22.818  0.00  0.00    +0.000 A 
ATOM      9  C   UNL     1      -2.187  13.239  21.658  0.00  0.00    +0.000 A 
ATOM     10  C   UNL     1      -1.070  12.708  20.999  0.00  0.00    +0.000 A 
ATOM     11  C   UNL     1      -0.419  11.600  21.522  0.00  0.00    +0.000 A 
ATOM     12  F   UNL     1       0.625  11.069  20.874  0.00  0.00    +0.000 F 
ATOM     13  C   UNL     1      -0.847  11.039  22.706  0.00  0.00    +0.000 A 
ATOM     14  C   UNL     1      -1.982  11.554  23.341  0.00  0.00    +0.000 A 
ENDBRANCH   7   8
BRANCH   6  15
ATOM     15  C   UNL     1      -2.984  15.279  24.227  0.00  0.00    +0.000 A 
ATOM     16  C   UNL     1      -2.582  15.027  25.540  0.00  0.00    +0.000 A 
ATOM     17  C   UNL     1      -1.457  15.657  26.078  0.00  0.00    +0.000 A 
ATOM     18  C   UNL     1      -0.737  16.583  25.326  0.00  0.00    +0.000 A 
ATOM     19  C   UNL     1      -1.169  16.898  24.039  0.00  0.00    +0.000 A 
ATOM     20  C   UNL     1      -2.287  16.250  23.493  0.00  0.00    +0.000 A 
BRANCH  18  21
ATOM     21  O   UNL     1       0.323  17.145  25.979  0.00  0.00    +0.000 OA
ATOM     22  C   UNL     1       0.609  16.627  27.271  0.00  0.00    +0.000 C 
ENDBRANCH  18  21
ENDBRANCH   6  15
BRANCH   1  24
ATOM     23  N   UNL     1      -5.630  12.014  20.276  0.00  0.00    +0.000 N 
ATOM     24  C   UNL     1      -5.439  13.046  21.168  0.00  0.00    +0.000 C 
ATOM     25  O   UNL     1      -5.331  14.221  20.821  0.00  0.00    +0.000 OA
ATOM     26  H   UNL     1      -5.951  11.126  20.644  0.00  0.00    +0.000 HD
BRANCH  23  27
ATOM     27  C   UNL     1      -5.911  12.241  18.873  0.00  0.00    +0.000 C 
BRANCH  27  28
ATOM     28  C   UNL     1      -4.605  12.203  18.092  0.00  0.00    +0.000 C 
BRANCH  28  29
ATOM     29  C   UNL     1      -4.534  11.041  17.101  0.00  0.00    +0.000 C 
BRANCH  29  30
ATOM     30  N   UNL     1      -3.388  10.136  17.297  0.00  0.00    +0.000 NA
BRANCH  30  32
ATOM     31  C   UNL     1      -3.287  10.428  14.790  0.00  0.00    +0.000 C 
ATOM     32  C   UNL     1      -2.840   9.648  16.020  0.00  0.00    +0.000 C 
ENDBRANCH  30  32
BRANCH  30  33
ATOM     33  C   UNL     1      -2.389  10.729  18.202  0.00  0.00    +0.000 C 
ATOM     34  C   UNL     1      -0.960  10.218  18.046  0.00  0.00    +0.000 C 
ENDBRANCH  30  33
ENDBRANCH  29  30
ENDBRANCH  28  29
ENDBRANCH  27  28
ENDBRANCH  23  27
ENDBRANCH   1  24
TORSDOF 10
ENDMDL
MODEL 6
REMARK VINA RESULT:      -6.9      9.582     12.677
REMARK  Name = 
REMARK  13 active torsions:
REMARK  status: ('A' for Active; 'I' for Inactive)
REMARK    1  A    between atoms: C_1  and  C_2
REMARK    2  A    between atoms: C_2  and  N_3
REMARK    3  A    between atoms: N_3  and  C_4
REMARK    4  A    between atoms: N_3  and  C_6
REMARK    5  A    between atoms: C_4  and  C_5
REMARK    6  A    between atoms: C_6  and  C_7
REMARK    7  A    between atoms: C_7  and  C_8
REMARK    8  A    between atoms: C_8  and  N_9
REMARK    9  A    between atoms: C_10  and  C_12
REMARK   10  A    between atoms: N_17  and  C_18
REMARK   11  A    between atoms: C_21  and  O_22
REMARK   12  A    between atoms: O_22  and  C_23
REMARK   13  A    between atoms: C_26  and  C_27
REMARK                            x       y       z     vdW  Elec       q    Type
REMARK                         _______ _______ _______ _____ _____    ______ ____
ROOT
ATOM      1  C   UNL     1      -5.746  12.588  21.843  0.00  0.00    +0.000 C 
ATOM      2  C   UNL     1      -7.021  12.724  22.672  0.00  0.00    +0.000 C 
ATOM      3  C   UNL     1      -7.289  14.168  23.038  0.00  0.00    +0.000 C 
ATOM      4  C   UNL     1      -6.092  14.952  23.536  0.00  0.00    +0.000 C 
ATOM      5  O   UNL     1      -6.310  16.004  24.153  0.00  0.00    +0.000 OA
ATOM      6  N   UNL     1      -4.797  14.498  23.198  0.00  0.00    +0.000 N 
ATOM      7  C   UNL     1      -4.552  13.105  22.681  0.00  0.00    +0.000 C 
ENDROOT
BRANCH   7   8
ATOM      8  C   UNL     1      -3.171  12.895  22.002  0.00  0.00    +0.000 A 
ATOM      9  C   UNL     1      -2.218  12.043  22.599  0.00  0.00    +0.000 A 
ATOM     10  C   UNL     1      -0.904  11.959  22.117  0.00  0.00    +0.000 A 
ATOM     11  C   UNL     1      -0.533  12.673  20.988  0.00  0.00    +0.000 A 
ATOM     12  F   UNL     1       0.730  12.624  20.549  0.00  0.00    +0.000 F 
ATOM     13  C   UNL     1      -1.462  13.442  20.318  0.00  0.00    +0.000 A 
ATOM     14  C   UNL     1      -2.762  13.548  20.823  0.00  0.00    +0.000 A 
ENDBRANCH   7   8
BRANCH   6  15
ATOM     15  C   UNL     1      -3.724  15.186  23.871  0.00  0.00    +0.000 A 
ATOM     16  C   UNL     1      -3.133  16.324  23.322  0.00  0.00    +0.000 A 
ATOM     17  C   UNL     1      -2.106  16.992  23.992  0.00  0.00    +0.000 A 
ATOM     18  C   UNL     1      -1.623  16.510  25.206  0.00  0.00    +0.000 A 
ATOM     19  C   UNL     1      -2.155  15.334  25.732  0.00  0.00    +0.000 A 
ATOM     20  C   UNL     1      -3.200  14.675  25.067  0.00  0.00    +0.000 A 
BRANCH  18  21
ATOM     21  O   UNL     1      -0.601  17.240  25.743  0.00  0.00    +0.000 OA
ATOM     22  C   UNL     1      -0.945  18.525  26.246  0.00  0.00    +0.000 C 
ENDBRANCH  18  21
ENDBRANCH   6  15
BRANCH   1  24
ATOM     23  N   UNL     1      -6.290  12.371  19.455  0.00  0.00    +0.000 N 
ATOM     24  C   UNL     1      -5.974  13.238  20.477  0.00  0.00    +0.000 C 
ATOM     25  O   UNL     1      -5.834  14.449  20.311  0.00  0.00    +0.000 OA
ATOM     26  H   UNL     1      -6.625  11.448  19.705  0.00  0.00    +0.000 HD
BRANCH  23  27
ATOM     27  C   UNL     1      -6.672  12.832  18.135  0.00  0.00    +0.000 C 
BRANCH  27  28
ATOM     28  C   UNL     1      -5.611  12.403  17.131  0.00  0.00    +0.000 C 
BRANCH  28  29
ATOM     29  C   UNL     1      -4.511  11.543  17.754  0.00  0.00    +0.000 C 
BRANCH  29  30
ATOM     30  N   UNL     1      -3.957  10.512  16.861  0.00  0.00    +0.000 NA
BRANCH  30  32
ATOM     31  C   UNL     1      -3.009  10.056  14.563  0.00  0.00    +0.000 C 
ATOM     32  C   UNL     1      -3.451  11.082  15.600  0.00  0.00    +0.000 C 
ENDBRANCH  30  32
BRANCH  30  33
ATOM     33  C   UNL     1      -2.996   9.652  17.569  0.00  0.00    +0.000 C 
ATOM     34  C   UNL     1      -1.826  10.367  18.241  0.00  0.00    +0.000 C 
ENDBRANCH  30  33
ENDBRANCH  29  30
ENDBRANCH  28  29
ENDBRANCH  27  28
ENDBRANCH  23  27
ENDBRANCH   1  24
TORSDOF 10
ENDMDL
MODEL 7
REMARK VINA RESULT:      -6.8      9.139     12.249
REMARK  Name = 
REMARK  13 active torsions:
REMARK  status: ('A' for Active; 'I' for Inactive)
REMARK    1  A    between atoms: C_1  and  C_2
REMARK    2  A    between atoms: C_2  and  N_3
REMARK    3  A    between atoms: N_3  and  C_4
REMARK    4  A    between atoms: N_3  and  C_6
REMARK    5  A    between atoms: C_4  and  C_5
REMARK    6  A    between atoms: C_6  and  C_7
REMARK    7  A    between atoms: C_7  and  C_8
REMARK    8  A    between atoms: C_8  and  N_9
REMARK    9  A    between atoms: C_10  and  C_12
REMARK   10  A    between atoms: N_17  and  C_18
REMARK   11  A    between atoms: C_21  and  O_22
REMARK   12  A    between atoms: O_22  and  C_23
REMARK   13  A    between atoms: C_26  and  C_27
REMARK                            x       y       z     vdW  Elec       q    Type
REMARK                         _______ _______ _______ _____ _____    ______ ____
ROOT
ATOM      1  C   UNL     1      -2.693  13.025  22.794  0.00  0.00    +0.000 C 
ATOM      2  C   UNL     1      -2.632  13.960  24.000  0.00  0.00    +0.000 C 
ATOM      3  C   UNL     1      -2.447  15.400  23.573  0.00  0.00    +0.000 C 
ATOM      4  C   UNL     1      -1.403  15.638  22.500  0.00  0.00    +0.000 C 
ATOM      5  O   UNL     1      -0.979  16.793  22.357  0.00  0.00    +0.000 OA
ATOM      6  N   UNL     1      -1.034  14.560  21.663  0.00  0.00    +0.000 N 
ATOM      7  C   UNL     1      -1.360  13.132  22.015  0.00  0.00    +0.000 C 
ENDROOT
BRANCH   7   8
ATOM      8  C   UNL     1      -1.239  12.127  20.838  0.00  0.00    +0.000 A 
ATOM      9  C   UNL     1      -0.347  11.039  20.934  0.00  0.00    +0.000 A 
ATOM     10  C   UNL     1      -0.079  10.210  19.835  0.00  0.00    +0.000 A 
ATOM     11  C   UNL     1      -0.747  10.410  18.636  0.00  0.00    +0.000 A 
ATOM     12  F   UNL     1      -0.464   9.645  17.576  0.00  0.00    +0.000 F 
ATOM     13  C   UNL     1      -1.698  11.403  18.531  0.00  0.00    +0.000 A 
ATOM     14  C   UNL     1      -1.937  12.248  19.620  0.00  0.00    +0.000 A 
ENDBRANCH   7   8
BRANCH   6  15
ATOM     15  C   UNL     1       0.096  14.822  20.809  0.00  0.00    +0.000 A 
ATOM     16  C   UNL     1      -0.069  15.352  19.528  0.00  0.00    +0.000 A 
ATOM     17  C   UNL     1       1.036  15.619  18.716  0.00  0.00    +0.000 A 
ATOM     18  C   UNL     1       2.324  15.321  19.153  0.00  0.00    +0.000 A 
ATOM     19  C   UNL     1       2.498  14.725  20.401  0.00  0.00    +0.000 A 
ATOM     20  C   UNL     1       1.390  14.476  21.224  0.00  0.00    +0.000 A 
BRANCH  18  21
ATOM     21  O   UNL     1       3.311  15.605  18.253  0.00  0.00    +0.000 OA
ATOM     22  C   UNL     1       4.394  14.686  18.200  0.00  0.00    +0.000 C 
ENDBRANCH  18  21
ENDBRANCH   6  15
BRANCH   1  24
ATOM     23  N   UNL     1      -4.991  12.387  22.194  0.00  0.00    +0.000 N 
ATOM     24  C   UNL     1      -3.980  13.307  22.017  0.00  0.00    +0.000 C 
ATOM     25  O   UNL     1      -4.073  14.267  21.255  0.00  0.00    +0.000 OA
ATOM     26  H   UNL     1      -4.939  11.780  23.003  0.00  0.00    +0.000 HD
BRANCH  23  27
ATOM     27  C   UNL     1      -6.318  12.577  21.644  0.00  0.00    +0.000 C 
BRANCH  27  28
ATOM     28  C   UNL     1      -6.486  11.677  20.428  0.00  0.00    +0.000 C 
BRANCH  28  29
ATOM     29  C   UNL     1      -7.591  12.149  19.482  0.00  0.00    +0.000 C 
BRANCH  29  30
ATOM     30  N   UNL     1      -7.126  12.530  18.138  0.00  0.00    +0.000 NA
BRANCH  30  32
ATOM     31  C   UNL     1      -6.870  14.564  16.660  0.00  0.00    +0.000 C 
ATOM     32  C   UNL     1      -7.701  13.812  17.693  0.00  0.00    +0.000 C 
ENDBRANCH  30  32
BRANCH  30  33
ATOM     33  C   UNL     1      -5.660  12.454  18.038  0.00  0.00    +0.000 C 
ATOM     34  C   UNL     1      -5.108  11.434  17.046  0.00  0.00    +0.000 C 
ENDBRANCH  30  33
ENDBRANCH  29  30
ENDBRANCH  28  29
ENDBRANCH  27  28
ENDBRANCH  23  27
ENDBRANCH   1  24
TORSDOF 10
ENDMDL
MODEL 8
REMARK VINA RESULT:      -6.8      0.965      1.664
REMARK  Name = 
REMARK  13 active torsions:
REMARK  status: ('A' for Active; 'I' for Inactive)
REMARK    1  A    between atoms: C_1  and  C_2
REMARK    2  A    between atoms: C_2  and  N_3
REMARK    3  A    between atoms: N_3  and  C_4
REMARK    4  A    between atoms: N_3  and  C_6
REMARK    5  A    between atoms: C_4  and  C_5
REMARK    6  A    between atoms: C_6  and  C_7
REMARK    7  A    between atoms: C_7  and  C_8
REMARK    8  A    between atoms: C_8  and  N_9
REMARK    9  A    between atoms: C_10  and  C_12
REMARK   10  A    between atoms: N_17  and  C_18
REMARK   11  A    between atoms: C_21  and  O_22
REMARK   12  A    between atoms: O_22  and  C_23
REMARK   13  A    between atoms: C_26  and  C_27
REMARK                            x       y       z     vdW  Elec       q    Type
REMARK                         _______ _______ _______ _____ _____    ______ ____
ROOT
ATOM      1  C   UNL     1       4.327   3.100  19.789  0.00  0.00    +0.000 C 
ATOM      2  C   UNL     1       3.310   2.398  20.686  0.00  0.00    +0.000 C 
ATOM      3  C   UNL     1       1.892   2.678  20.236  0.00  0.00    +0.000 C 
ATOM      4  C   UNL     1       1.585   4.123  19.894  0.00  0.00    +0.000 C 
ATOM      5  O   UNL     1       0.395   4.462  19.850  0.00  0.00    +0.000 OA
ATOM      6  N   UNL     1       2.656   4.982  19.559  0.00  0.00    +0.000 N 
ATOM      7  C   UNL     1       4.087   4.627  19.867  0.00  0.00    +0.000 C 
ENDROOT
BRANCH   7   8
ATOM      8  C   UNL     1       5.146   5.468  19.104  0.00  0.00    +0.000 A 
ATOM      9  C   UNL     1       4.776   6.174  17.940  0.00  0.00    +0.000 A 
ATOM     10  C   UNL     1       5.731   6.802  17.128  0.00  0.00    +0.000 A 
ATOM     11  C   UNL     1       7.068   6.794  17.497  0.00  0.00    +0.000 A 
ATOM     12  F   UNL     1       7.985   7.359  16.704  0.00  0.00    +0.000 F 
ATOM     13  C   UNL     1       7.458   6.198  18.678  0.00  0.00    +0.000 A 
ATOM     14  C   UNL     1       6.505   5.544  19.467  0.00  0.00    +0.000 A 
ENDBRANCH   7   8
BRANCH   6  15
ATOM     15  C   UNL     1       2.297   6.372  19.441  0.00  0.00    +0.000 A 
ATOM     16  C   UNL     1       2.000   7.143  20.565  0.00  0.00    +0.000 A 
ATOM     17  C   UNL     1       1.671   8.495  20.440  0.00  0.00    +0.000 A 
ATOM     18  C   UNL     1       1.593   9.091  19.184  0.00  0.00    +0.000 A 
ATOM     19  C   UNL     1       1.817   8.315  18.047  0.00  0.00    +0.000 A 
ATOM     20  C   UNL     1       2.166   6.962  18.176  0.00  0.00    +0.000 A 
BRANCH  18  21
ATOM     21  O   UNL     1       1.235  10.409  19.200  0.00  0.00    +0.000 OA
ATOM     22  C   UNL     1       0.364  10.809  20.249  0.00  0.00    +0.000 C 
ENDBRANCH  18  21
ENDBRANCH   6  15
BRANCH   1  24
ATOM     23  N   UNL     1       4.820   3.215  17.383  0.00  0.00    +0.000 N 
ATOM     24  C   UNL     1       4.288   2.457  18.402  0.00  0.00    +0.000 C 
ATOM     25  O   UNL     1       3.770   1.356  18.219  0.00  0.00    +0.000 OA
ATOM     26  H   UNL     1       5.436   3.978  17.635  0.00  0.00    +0.000 HD
BRANCH  23  27
ATOM     27  C   UNL     1       4.988   2.702  16.038  0.00  0.00    +0.000 C 
BRANCH  27  28
ATOM     28  C   UNL     1       5.930   3.618  15.269  0.00  0.00    +0.000 C 
BRANCH  28  29
ATOM     29  C   UNL     1       5.393   4.009  13.892  0.00  0.00    +0.000 C 
BRANCH  29  30
ATOM     30  N   UNL     1       6.415   4.495  12.950  0.00  0.00    +0.000 NA
BRANCH  30  32
ATOM     31  C   UNL     1       8.555   5.822  12.736  0.00  0.00    +0.000 C 
ATOM     32  C   UNL     1       7.569   5.094  13.643  0.00  0.00    +0.000 C 
ENDBRANCH  30  32
BRANCH  30  33
ATOM     33  C   UNL     1       6.768   3.461  11.964  0.00  0.00    +0.000 C 
ATOM     34  C   UNL     1       5.701   2.404  11.693  0.00  0.00    +0.000 C 
ENDBRANCH  30  33
ENDBRANCH  29  30
ENDBRANCH  28  29
ENDBRANCH  27  28
ENDBRANCH  23  27
ENDBRANCH   1  24
TORSDOF 10
ENDMDL
MODEL 9
REMARK VINA RESULT:      -6.8      4.807      8.846
REMARK  Name = 
REMARK  13 active torsions:
REMARK  status: ('A' for Active; 'I' for Inactive)
REMARK    1  A    between atoms: C_1  and  C_2
REMARK    2  A    between atoms: C_2  and  N_3
REMARK    3  A    between atoms: N_3  and  C_4
REMARK    4  A    between atoms: N_3  and  C_6
REMARK    5  A    between atoms: C_4  and  C_5
REMARK    6  A    between atoms: C_6  and  C_7
REMARK    7  A    between atoms: C_7  and  C_8
REMARK    8  A    between atoms: C_8  and  N_9
REMARK    9  A    between atoms: C_10  and  C_12
REMARK   10  A    between atoms: N_17  and  C_18
REMARK   11  A    between atoms: C_21  and  O_22
REMARK   12  A    between atoms: O_22  and  C_23
REMARK   13  A    between atoms: C_26  and  C_27
REMARK                            x       y       z     vdW  Elec       q    Type
REMARK                         _______ _______ _______ _____ _____    ______ ____
ROOT
ATOM      1  C   UNL     1      -0.003  10.024  19.281  0.00  0.00    +0.000 C 
ATOM      2  C   UNL     1       0.778   9.904  17.974  0.00  0.00    +0.000 C 
ATOM      3  C   UNL     1       2.051  10.720  18.016  0.00  0.00    +0.000 C 
ATOM      4  C   UNL     1       1.914  12.122  18.577  0.00  0.00    +0.000 C 
ATOM      5  O   UNL     1       2.819  12.931  18.329  0.00  0.00    +0.000 OA
ATOM      6  N   UNL     1       0.818  12.410  19.421  0.00  0.00    +0.000 N 
ATOM      7  C   UNL     1      -0.386  11.508  19.496  0.00  0.00    +0.000 C 
ENDROOT
BRANCH   7   8
ATOM      8  C   UNL     1      -1.304  11.747  20.725  0.00  0.00    +0.000 A 
ATOM      9  C   UNL     1      -2.561  12.364  20.552  0.00  0.00    +0.000 A 
ATOM     10  C   UNL     1      -3.345  12.754  21.647  0.00  0.00    +0.000 A 
ATOM     11  C   UNL     1      -2.919  12.477  22.938  0.00  0.00    +0.000 A 
ATOM     12  F   UNL     1      -3.646  12.883  23.985  0.00  0.00    +0.000 F 
ATOM     13  C   UNL     1      -1.742  11.789  23.147  0.00  0.00    +0.000 A 
ATOM     14  C   UNL     1      -0.949  11.432  22.051  0.00  0.00    +0.000 A 
ENDBRANCH   7   8
BRANCH   6  15
ATOM     15  C   UNL     1       0.660  13.804  19.746  0.00  0.00    +0.000 A 
ATOM     16  C   UNL     1      -0.021  14.677  18.896  0.00  0.00    +0.000 A 
ATOM     17  C   UNL     1      -0.183  16.023  19.231  0.00  0.00    +0.000 A 
ATOM     18  C   UNL     1       0.368  16.531  20.405  0.00  0.00    +0.000 A 
ATOM     19  C   UNL     1       1.112  15.687  21.229  0.00  0.00    +0.000 A 
ATOM     20  C   UNL     1       1.258  14.331  20.900  0.00  0.00    +0.000 A 
BRANCH  18  21
ATOM     21  O   UNL     1       0.160  17.867  20.600  0.00  0.00    +0.000 OA
ATOM     22  C   UNL     1      -0.801  18.481  19.752  0.00  0.00    +0.000 C 
ENDBRANCH  18  21
ENDBRANCH   6  15
BRANCH   1  24
ATOM     23  N   UNL     1       0.834   7.964  20.332  0.00  0.00    +0.000 N 
ATOM     24  C   UNL     1       0.791   9.339  20.395  0.00  0.00    +0.000 C 
ATOM     25  O   UNL     1       1.311   9.986  21.303  0.00  0.00    +0.000 OA
ATOM     26  H   UNL     1       0.606   7.525  19.448  0.00  0.00    +0.000 HD
BRANCH  23  27
ATOM     27  C   UNL     1       1.655   7.171  21.224  0.00  0.00    +0.000 C 
BRANCH  27  28
ATOM     28  C   UNL     1       1.725   5.743  20.698  0.00  0.00    +0.000 C 
BRANCH  28  29
ATOM     29  C   UNL     1       2.559   5.616  19.423  0.00  0.00    +0.000 C 
BRANCH  29  30
ATOM     30  N   UNL     1       2.801   4.232  18.984  0.00  0.00    +0.000 NA
BRANCH  30  32
ATOM     31  C   UNL     1       0.902   2.578  18.785  0.00  0.00    +0.000 C 
ATOM     32  C   UNL     1       1.702   3.711  18.153  0.00  0.00    +0.000 C 
ENDBRANCH  30  32
BRANCH  30  33
ATOM     33  C   UNL     1       4.138   4.088  18.384  0.00  0.00    +0.000 C 
ATOM     34  C   UNL     1       4.181   3.994  16.861  0.00  0.00    +0.000 C 
ENDBRANCH  30  33
ENDBRANCH  29  30
ENDBRANCH  28  29
ENDBRANCH  27  28
ENDBRANCH  23  27
ENDBRANCH   1  24
TORSDOF 10
ENDMDL
