MODEL 1
REMARK VINA RESULT:      -8.1      0.000      0.000
REMARK  Name = 
REMARK  6 active torsions:
REMARK  status: ('A' for Active; 'I' for Inactive)
REMARK    1  A    between atoms: C_2  and  C_3
REMARK    2  A    between atoms: C_8  and  C_9
REMARK    3  A    between atoms: C_9  and  C_10
REMARK    4  A    between atoms: N_19  and  C_20
REMARK    5  A    between atoms: C_20  and  C_21
REMARK    6  A    between atoms: C_24  and  C_25
REMARK                            x       y       z     vdW  Elec       q    Type
REMARK                         _______ _______ _______ _____ _____    ______ ____
ROOT
ATOM      1  O   UNL     1       2.921   7.179  17.763  0.00  0.00    +0.000 OA
ATOM      2  C   UNL     1       2.403   7.014  18.864  0.00  0.00    +0.000 C 
ATOM      3  N   UNL     1       1.686   8.042  19.497  0.00  0.00    +0.000 N 
ATOM      4  C   UNL     1       1.449   9.301  18.774  0.00  0.00    +0.000 C 
ATOM      5  C   UNL     1       0.128  10.002  19.203  0.00  0.00    +0.000 C 
ATOM      6  N   UNL     1      -0.129  10.075  20.664  0.00  0.00    +0.000 NA
ATOM      7  C   UNL     1       0.052   8.706  21.209  0.00  0.00    +0.000 C 
ATOM      8  C   UNL     1       1.458   8.141  20.946  0.00  0.00    +0.000 C 
ENDROOT
BRANCH   2   9
ATOM      9  C   UNL     1       2.458   5.660  19.516  0.00  0.00    +0.000 A 
ATOM     10  C   UNL     1       1.221   5.027  19.765  0.00  0.00    +0.000 A 
ATOM     11  C   UNL     1       1.137   3.839  20.484  0.00  0.00    +0.000 A 
ATOM     12  C   UNL     1       2.302   3.202  20.879  0.00  0.00    +0.000 A 
ATOM     13  C   UNL     1       3.539   3.736  20.523  0.00  0.00    +0.000 A 
ATOM     14  C   UNL     1       3.649   4.960  19.824  0.00  0.00    +0.000 A 
BRANCH  14  15
ATOM     15  C   UNL     1       5.037   5.366  19.364  0.00  0.00    +0.000 C 
BRANCH  15  16
ATOM     16  C   UNL     1       5.525   4.825  18.037  0.00  0.00    +0.000 A 
ATOM     17  C   UNL     1       4.623   4.374  17.058  0.00  0.00    +0.000 A 
ATOM     18  C   UNL     1       5.072   4.027  15.780  0.00  0.00    +0.000 A 
ATOM     19  C   UNL     1       6.425   4.120  15.467  0.00  0.00    +0.000 A 
ATOM     20  C   UNL     1       7.334   4.536  16.438  0.00  0.00    +0.000 A 
ATOM     21  C   UNL     1       6.889   4.879  17.718  0.00  0.00    +0.000 A 
ENDBRANCH  15  16
ENDBRANCH  14  15
ENDBRANCH   2   9
BRANCH   6  22
ATOM     22  C   UNL     1       0.761  11.068  21.310  0.00  0.00    +0.000 C 
BRANCH  22  23
ATOM     23  C   UNL     1       0.531  12.446  20.745  0.00  0.00    +0.000 A 
ATOM     24  C   UNL     1      -0.469  13.333  21.098  0.00  0.00    +0.000 A 
ATOM     25  S   UNL     1      -0.234  14.834  20.303  0.00  0.00    +0.000 S 
ATOM     26  C   UNL     1       1.179  14.212  19.556  0.00  0.00    +0.000 A 
ATOM     27  N   UNL     1       1.430  12.941  19.799  0.00  0.00    +0.000 NA
BRANCH  26  28
ATOM     28  C   UNL     1       2.064  15.031  18.769  0.00  0.00    +0.000 A 
ATOM     29  C   UNL     1       1.914  16.368  18.431  0.00  0.00    +0.000 A 
ATOM     30  C   UNL     1       3.002  16.723  17.598  0.00  0.00    +0.000 A 
ATOM     31  C   UNL     1       3.763  15.588  17.470  0.00  0.00    +0.000 A 
ATOM     32  O   UNL     1       3.214  14.565  18.174  0.00  0.00    +0.000 OA
ENDBRANCH  26  28
ENDBRANCH  22  23
ENDBRANCH   6  22
TORSDOF 6
ENDMDL
MODEL 2
REMARK VINA RESULT:      -8.1      2.642      4.082
REMARK  Name = 
REMARK  6 active torsions:
REMARK  status: ('A' for Active; 'I' for Inactive)
REMARK    1  A    between atoms: C_2  and  C_3
REMARK    2  A    between atoms: C_8  and  C_9
REMARK    3  A    between atoms: C_9  and  C_10
REMARK    4  A    between atoms: N_19  and  C_20
REMARK    5  A    between atoms: C_20  and  C_21
REMARK    6  A    between atoms: C_24  and  C_25
REMARK                            x       y       z     vdW  Elec       q    Type
REMARK                         _______ _______ _______ _____ _____    ______ ____
ROOT
ATOM      1  O   UNL     1       3.036   7.373  17.816  0.00  0.00    +0.000 OA
ATOM      2  C   UNL     1       2.445   7.169  18.873  0.00  0.00    +0.000 C 
ATOM      3  N   UNL     1       1.654   8.162  19.472  0.00  0.00    +0.000 N 
ATOM      4  C   UNL     1       1.431   9.429  18.759  0.00  0.00    +0.000 C 
ATOM      5  C   UNL     1       0.062  10.082  19.104  0.00  0.00    +0.000 C 
ATOM      6  N   UNL     1      -0.302  10.116  20.544  0.00  0.00    +0.000 NA
ATOM      7  C   UNL     1      -0.119   8.740  21.074  0.00  0.00    +0.000 C 
ATOM      8  C   UNL     1       1.319   8.222  20.903  0.00  0.00    +0.000 C 
ENDROOT
BRANCH   2   9
ATOM      9  C   UNL     1       2.494   5.803  19.500  0.00  0.00    +0.000 A 
ATOM     10  C   UNL     1       1.254   5.183  19.761  0.00  0.00    +0.000 A 
ATOM     11  C   UNL     1       1.167   3.983  20.461  0.00  0.00    +0.000 A 
ATOM     12  C   UNL     1       2.330   3.324  20.823  0.00  0.00    +0.000 A 
ATOM     13  C   UNL     1       3.568   3.848  20.453  0.00  0.00    +0.000 A 
ATOM     14  C   UNL     1       3.681   5.083  19.774  0.00  0.00    +0.000 A 
BRANCH  14  15
ATOM     15  C   UNL     1       5.066   5.478  19.295  0.00  0.00    +0.000 C 
BRANCH  15  16
ATOM     16  C   UNL     1       5.544   4.910  17.976  0.00  0.00    +0.000 A 
ATOM     17  C   UNL     1       4.640   4.366  17.047  0.00  0.00    +0.000 A 
ATOM     18  C   UNL     1       5.068   3.991  15.770  0.00  0.00    +0.000 A 
ATOM     19  C   UNL     1       6.402   4.150  15.407  0.00  0.00    +0.000 A 
ATOM     20  C   UNL     1       7.314   4.661  16.329  0.00  0.00    +0.000 A 
ATOM     21  C   UNL     1       6.890   5.032  17.608  0.00  0.00    +0.000 A 
ENDBRANCH  15  16
ENDBRANCH  14  15
ENDBRANCH   2   9
BRANCH   6  22
ATOM     22  C   UNL     1       0.509  11.120  21.272  0.00  0.00    +0.000 C 
BRANCH  22  23
ATOM     23  C   UNL     1      -0.370  12.172  21.896  0.00  0.00    +0.000 A 
ATOM     24  C   UNL     1      -0.058  13.504  22.096  0.00  0.00    +0.000 A 
ATOM     25  S   UNL     1      -1.427  14.348  22.692  0.00  0.00    +0.000 S 
ATOM     26  C   UNL     1      -2.341  12.898  22.634  0.00  0.00    +0.000 A 
ATOM     27  N   UNL     1      -1.665  11.822  22.281  0.00  0.00    +0.000 NA
BRANCH  26  28
ATOM     28  C   UNL     1      -3.757  12.862  22.892  0.00  0.00    +0.000 A 
ATOM     29  C   UNL     1      -4.792  12.874  21.968  0.00  0.00    +0.000 A 
ATOM     30  C   UNL     1      -6.010  12.888  22.691  0.00  0.00    +0.000 A 
ATOM     31  C   UNL     1      -5.658  12.881  24.019  0.00  0.00    +0.000 A 
ATOM     32  O   UNL     1      -4.308  12.859  24.153  0.00  0.00    +0.000 OA
ENDBRANCH  26  28
ENDBRANCH  22  23
ENDBRANCH   6  22
TORSDOF 6
ENDMDL
MODEL 3
REMARK VINA RESULT:      -8.0      2.244      3.721
REMARK  Name = 
REMARK  6 active torsions:
REMARK  status: ('A' for Active; 'I' for Inactive)
REMARK    1  A    between atoms: C_2  and  C_3
REMARK    2  A    between atoms: C_8  and  C_9
REMARK    3  A    between atoms: C_9  and  C_10
REMARK    4  A    between atoms: N_19  and  C_20
REMARK    5  A    between atoms: C_20  and  C_21
REMARK    6  A    between atoms: C_24  and  C_25
REMARK                            x       y       z     vdW  Elec       q    Type
REMARK                         _______ _______ _______ _____ _____    ______ ____
ROOT
ATOM      1  O   UNL     1       3.166   6.841  17.377  0.00  0.00    +0.000 OA
ATOM      2  C   UNL     1       2.628   6.752  18.477  0.00  0.00    +0.000 C 
ATOM      3  N   UNL     1       1.981   7.851  19.066  0.00  0.00    +0.000 N 
ATOM      4  C   UNL     1       1.841   9.097  18.298  0.00  0.00    +0.000 C 
ATOM      5  C   UNL     1       0.570   9.905  18.687  0.00  0.00    +0.000 C 
ATOM      6  N   UNL     1       0.307  10.048  20.142  0.00  0.00    +0.000 NA
ATOM      7  C   UNL     1       0.385   8.689  20.736  0.00  0.00    +0.000 C 
ATOM      8  C   UNL     1       1.749   8.016  20.509  0.00  0.00    +0.000 C 
ENDROOT
BRANCH   2   9
ATOM      9  C   UNL     1       2.580   5.421  19.176  0.00  0.00    +0.000 A 
ATOM     10  C   UNL     1       1.316   4.799  19.264  0.00  0.00    +0.000 A 
ATOM     11  C   UNL     1       1.122   3.636  20.004  0.00  0.00    +0.000 A 
ATOM     12  C   UNL     1       2.213   3.012  20.586  0.00  0.00    +0.000 A 
ATOM     13  C   UNL     1       3.493   3.533  20.394  0.00  0.00    +0.000 A 
ATOM     14  C   UNL     1       3.709   4.732  19.678  0.00  0.00    +0.000 A 
BRANCH  14  15
ATOM     15  C   UNL     1       5.152   5.121  19.410  0.00  0.00    +0.000 C 
BRANCH  15  16
ATOM     16  C   UNL     1       5.724   4.807  18.044  0.00  0.00    +0.000 A 
ATOM     17  C   UNL     1       5.059   3.944  17.157  0.00  0.00    +0.000 A 
ATOM     18  C   UNL     1       5.509   3.786  15.843  0.00  0.00    +0.000 A 
ATOM     19  C   UNL     1       6.630   4.483  15.402  0.00  0.00    +0.000 A 
ATOM     20  C   UNL     1       7.316   5.320  16.280  0.00  0.00    +0.000 A 
ATOM     21  C   UNL     1       6.871   5.475  17.596  0.00  0.00    +0.000 A 
ENDBRANCH  15  16
ENDBRANCH  14  15
ENDBRANCH   2   9
BRANCH   6  22
ATOM     22  C   UNL     1       1.261  10.997  20.763  0.00  0.00    +0.000 C 
BRANCH  22  23
ATOM     23  C   UNL     1       0.543  12.205  21.306  0.00  0.00    +0.000 A 
ATOM     24  C   UNL     1       0.665  13.511  20.869  0.00  0.00    +0.000 A 
ATOM     25  S   UNL     1      -0.464  14.513  21.682  0.00  0.00    +0.000 S 
ATOM     26  C   UNL     1      -1.046  13.150  22.546  0.00  0.00    +0.000 A 
ATOM     27  N   UNL     1      -0.394  12.026  22.325  0.00  0.00    +0.000 NA
BRANCH  26  28
ATOM     28  C   UNL     1      -2.199  13.211  23.405  0.00  0.00    +0.000 A 
ATOM     29  C   UNL     1      -3.184  12.250  23.579  0.00  0.00    +0.000 A 
ATOM     30  C   UNL     1      -4.144  12.778  24.476  0.00  0.00    +0.000 A 
ATOM     31  C   UNL     1      -3.696  14.034  24.807  0.00  0.00    +0.000 A 
ATOM     32  O   UNL     1      -2.526  14.304  24.176  0.00  0.00    +0.000 OA
ENDBRANCH  26  28
ENDBRANCH  22  23
ENDBRANCH   6  22
TORSDOF 6
ENDMDL
MODEL 4
REMARK VINA RESULT:      -8.0      2.376      3.601
REMARK  Name = 
REMARK  6 active torsions:
REMARK  status: ('A' for Active; 'I' for Inactive)
REMARK    1  A    between atoms: C_2  and  C_3
REMARK    2  A    between atoms: C_8  and  C_9
REMARK    3  A    between atoms: C_9  and  C_10
REMARK    4  A    between atoms: N_19  and  C_20
REMARK    5  A    between atoms: C_20  and  C_21
REMARK    6  A    between atoms: C_24  and  C_25
REMARK                            x       y       z     vdW  Elec       q    Type
REMARK                         _______ _______ _______ _____ _____    ______ ____
ROOT
ATOM      1  O   UNL     1       3.138   7.411  17.462  0.00  0.00    +0.000 OA
ATOM      2  C   UNL     1       2.622   7.161  18.548  0.00  0.00    +0.000 C 
ATOM      3  N   UNL     1       1.854   8.118  19.232  0.00  0.00    +0.000 N 
ATOM      4  C   UNL     1       1.563   9.403  18.578  0.00  0.00    +0.000 C 
ATOM      5  C   UNL     1       0.208  10.017  19.034  0.00  0.00    +0.000 C 
ATOM      6  N   UNL     1      -0.060   9.996  20.495  0.00  0.00    +0.000 NA
ATOM      7  C   UNL     1       0.182   8.608  20.964  0.00  0.00    +0.000 C 
ATOM      8  C   UNL     1       1.614   8.124  20.682  0.00  0.00    +0.000 C 
ENDROOT
BRANCH   2   9
ATOM      9  C   UNL     1       2.737   5.776  19.124  0.00  0.00    +0.000 A 
ATOM     10  C   UNL     1       1.526   5.102  19.393  0.00  0.00    +0.000 A 
ATOM     11  C   UNL     1       1.501   3.876  20.051  0.00  0.00    +0.000 A 
ATOM     12  C   UNL     1       2.697   3.247  20.360  0.00  0.00    +0.000 A 
ATOM     13  C   UNL     1       3.905   3.829  19.977  0.00  0.00    +0.000 A 
ATOM     14  C   UNL     1       3.955   5.091  19.341  0.00  0.00    +0.000 A 
BRANCH  14  15
ATOM     15  C   UNL     1       5.312   5.554  18.841  0.00  0.00    +0.000 C 
BRANCH  15  16
ATOM     16  C   UNL     1       5.695   5.204  17.419  0.00  0.00    +0.000 A 
ATOM     17  C   UNL     1       6.975   5.497  16.917  0.00  0.00    +0.000 A 
ATOM     18  C   UNL     1       7.373   5.029  15.661  0.00  0.00    +0.000 A 
ATOM     19  C   UNL     1       6.497   4.269  14.891  0.00  0.00    +0.000 A 
ATOM     20  C   UNL     1       5.215   3.996  15.365  0.00  0.00    +0.000 A 
ATOM     21  C   UNL     1       4.814   4.467  16.618  0.00  0.00    +0.000 A 
ENDBRANCH  15  16
ENDBRANCH  14  15
ENDBRANCH   2   9
BRANCH   6  22
ATOM     22  C   UNL     1       0.779  10.991  21.202  0.00  0.00    +0.000 C 
BRANCH  22  23
ATOM     23  C   UNL     1       0.031  12.285  21.398  0.00  0.00    +0.000 A 
ATOM     24  C   UNL     1      -0.573  13.053  20.420  0.00  0.00    +0.000 A 
ATOM     25  S   UNL     1      -1.435  14.350  21.137  0.00  0.00    +0.000 S 
ATOM     26  C   UNL     1      -0.961  13.800  22.691  0.00  0.00    +0.000 A 
ATOM     27  N   UNL     1      -0.138  12.771  22.696  0.00  0.00    +0.000 NA
BRANCH  26  28
ATOM     28  C   UNL     1      -1.469  14.380  23.907  0.00  0.00    +0.000 A 
ATOM     29  C   UNL     1      -2.777  14.380  24.370  0.00  0.00    +0.000 A 
ATOM     30  C   UNL     1      -2.804  15.121  25.577  0.00  0.00    +0.000 A 
ATOM     31  C   UNL     1      -1.512  15.535  25.791  0.00  0.00    +0.000 A 
ATOM     32  O   UNL     1      -0.699  15.092  24.799  0.00  0.00    +0.000 OA
ENDBRANCH  26  28
ENDBRANCH  22  23
ENDBRANCH   6  22
TORSDOF 6
ENDMDL
MODEL 5
REMARK VINA RESULT:      -7.8      5.058      8.619
REMARK  Name = 
REMARK  6 active torsions:
REMARK  status: ('A' for Active; 'I' for Inactive)
REMARK    1  A    between atoms: C_2  and  C_3
REMARK    2  A    between atoms: C_8  and  C_9
REMARK    3  A    between atoms: C_9  and  C_10
REMARK    4  A    between atoms: N_19  and  C_20
REMARK    5  A    between atoms: C_20  and  C_21
REMARK    6  A    between atoms: C_24  and  C_25
REMARK                            x       y       z     vdW  Elec       q    Type
REMARK                         _______ _______ _______ _____ _____    ______ ____
ROOT
ATOM      1  O   UNL     1      -1.748  11.890  19.109  0.00  0.00    +0.000 OA
ATOM      2  C   UNL     1      -0.702  11.937  19.750  0.00  0.00    +0.000 C 
ATOM      3  N   UNL     1       0.270  12.918  19.495  0.00  0.00    +0.000 N 
ATOM      4  C   UNL     1      -0.023  13.982  18.523  0.00  0.00    +0.000 C 
ATOM      5  C   UNL     1       0.713  15.313  18.846  0.00  0.00    +0.000 C 
ATOM      6  N   UNL     1       2.148  15.194  19.212  0.00  0.00    +0.000 NA
ATOM      7  C   UNL     1       2.245  14.157  20.271  0.00  0.00    +0.000 C 
ATOM      8  C   UNL     1       1.698  12.792  19.821  0.00  0.00    +0.000 C 
ENDROOT
BRANCH   2   9
ATOM      9  C   UNL     1      -0.488  10.983  20.893  0.00  0.00    +0.000 A 
ATOM     10  C   UNL     1       0.297   9.841  20.624  0.00  0.00    +0.000 A 
ATOM     11  C   UNL     1       0.451   8.821  21.558  0.00  0.00    +0.000 A 
ATOM     12  C   UNL     1      -0.093   8.972  22.823  0.00  0.00    +0.000 A 
ATOM     13  C   UNL     1      -0.753  10.154  23.157  0.00  0.00    +0.000 A 
ATOM     14  C   UNL     1      -0.953  11.188  22.214  0.00  0.00    +0.000 A 
BRANCH  14  15
ATOM     15  C   UNL     1      -1.553  12.483  22.731  0.00  0.00    +0.000 C 
BRANCH  15  16
ATOM     16  C   UNL     1      -3.054  12.536  22.923  0.00  0.00    +0.000 A 
ATOM     17  C   UNL     1      -3.627  12.448  24.203  0.00  0.00    +0.000 A 
ATOM     18  C   UNL     1      -4.997  12.658  24.387  0.00  0.00    +0.000 A 
ATOM     19  C   UNL     1      -5.810  12.952  23.296  0.00  0.00    +0.000 A 
ATOM     20  C   UNL     1      -5.259  13.013  22.017  0.00  0.00    +0.000 A 
ATOM     21  C   UNL     1      -3.890  12.798  21.830  0.00  0.00    +0.000 A 
ENDBRANCH  15  16
ENDBRANCH  14  15
ENDBRANCH   2   9
BRANCH   6  22
ATOM     22  C   UNL     1       2.973  14.873  18.023  0.00  0.00    +0.000 C 
BRANCH  22  23
ATOM     23  C   UNL     1       4.379  15.389  18.188  0.00  0.00    +0.000 A 
ATOM     24  C   UNL     1       4.762  16.600  18.734  0.00  0.00    +0.000 A 
ATOM     25  S   UNL     1       6.471  16.679  18.855  0.00  0.00    +0.000 S 
ATOM     26  C   UNL     1       6.587  15.102  18.189  0.00  0.00    +0.000 A 
ATOM     27  N   UNL     1       5.443  14.568  17.810  0.00  0.00    +0.000 NA
BRANCH  26  28
ATOM     28  C   UNL     1       7.833  14.386  18.103  0.00  0.00    +0.000 A 
ATOM     29  C   UNL     1       9.098  14.834  18.454  0.00  0.00    +0.000 A 
ATOM     30  C   UNL     1      10.018  13.804  18.138  0.00  0.00    +0.000 A 
ATOM     31  C   UNL     1       9.269  12.779  17.614  0.00  0.00    +0.000 A 
ATOM     32  O   UNL     1       7.954  13.114  17.593  0.00  0.00    +0.000 OA
ENDBRANCH  26  28
ENDBRANCH  22  23
ENDBRANCH   6  22
TORSDOF 6
ENDMDL
MODEL 6
REMARK VINA RESULT:      -7.8      0.544      1.083
REMARK  Name = 
REMARK  6 active torsions:
REMARK  status: ('A' for Active; 'I' for Inactive)
REMARK    1  A    between atoms: C_2  and  C_3
REMARK    2  A    between atoms: C_8  and  C_9
REMARK    3  A    between atoms: C_9  and  C_10
REMARK    4  A    between atoms: N_19  and  C_20
REMARK    5  A    between atoms: C_20  and  C_21
REMARK    6  A    between atoms: C_24  and  C_25
REMARK                            x       y       z     vdW  Elec       q    Type
REMARK                         _______ _______ _______ _____ _____    ______ ____
ROOT
ATOM      1  O   UNL     1       2.912   7.182  17.685  0.00  0.00    +0.000 OA
ATOM      2  C   UNL     1       2.433   6.974  18.797  0.00  0.00    +0.000 C 
ATOM      3  N   UNL     1       1.731   7.973  19.490  0.00  0.00    +0.000 N 
ATOM      4  C   UNL     1       1.460   9.254  18.822  0.00  0.00    +0.000 C 
ATOM      5  C   UNL     1       0.149   9.928  19.320  0.00  0.00    +0.000 C 
ATOM      6  N   UNL     1      -0.058   9.947  20.791  0.00  0.00    +0.000 NA
ATOM      7  C   UNL     1       0.153   8.561  21.280  0.00  0.00    +0.000 C 
ATOM      8  C   UNL     1       1.553   8.017  20.949  0.00  0.00    +0.000 C 
ENDROOT
BRANCH   2   9
ATOM      9  C   UNL     1       2.521   5.598  19.397  0.00  0.00    +0.000 A 
ATOM     10  C   UNL     1       1.299   4.926  19.617  0.00  0.00    +0.000 A 
ATOM     11  C   UNL     1       1.243   3.709  20.291  0.00  0.00    +0.000 A 
ATOM     12  C   UNL     1       2.423   3.087  20.666  0.00  0.00    +0.000 A 
ATOM     13  C   UNL     1       3.647   3.665  20.335  0.00  0.00    +0.000 A 
ATOM     14  C   UNL     1       3.728   4.917  19.683  0.00  0.00    +0.000 A 
BRANCH  14  15
ATOM     15  C   UNL     1       5.107   5.375  19.244  0.00  0.00    +0.000 C 
BRANCH  15  16
ATOM     16  C   UNL     1       5.518   5.098  17.814  0.00  0.00    +0.000 A 
ATOM     17  C   UNL     1       6.724   5.597  17.293  0.00  0.00    +0.000 A 
ATOM     18  C   UNL     1       7.172   5.205  16.028  0.00  0.00    +0.000 A 
ATOM     19  C   UNL     1       6.419   4.315  15.266  0.00  0.00    +0.000 A 
ATOM     20  C   UNL     1       5.206   3.836  15.759  0.00  0.00    +0.000 A 
ATOM     21  C   UNL     1       4.755   4.230  17.022  0.00  0.00    +0.000 A 
ENDBRANCH  15  16
ENDBRANCH  14  15
ENDBRANCH   2   9
BRANCH   6  22
ATOM     22  C   UNL     1       0.847  10.924  21.441  0.00  0.00    +0.000 C 
BRANCH  22  23
ATOM     23  C   UNL     1       0.597  12.317  20.924  0.00  0.00    +0.000 A 
ATOM     24  C   UNL     1      -0.342  13.220  21.387  0.00  0.00    +0.000 A 
ATOM     25  S   UNL     1      -0.149  14.730  20.597  0.00  0.00    +0.000 S 
ATOM     26  C   UNL     1       1.170  14.090  19.706  0.00  0.00    +0.000 A 
ATOM     27  N   UNL     1       1.411  12.809  19.902  0.00  0.00    +0.000 NA
BRANCH  26  28
ATOM     28  C   UNL     1       1.994  14.902  18.849  0.00  0.00    +0.000 A 
ATOM     29  C   UNL     1       3.042  14.493  18.038  0.00  0.00    +0.000 A 
ATOM     30  C   UNL     1       3.589  15.650  17.431  0.00  0.00    +0.000 A 
ATOM     31  C   UNL     1       2.848  16.706  17.900  0.00  0.00    +0.000 A 
ATOM     32  O   UNL     1       1.882  16.270  18.748  0.00  0.00    +0.000 OA
ENDBRANCH  26  28
ENDBRANCH  22  23
ENDBRANCH   6  22
TORSDOF 6
ENDMDL
MODEL 7
REMARK VINA RESULT:      -7.8      2.601      3.805
REMARK  Name = 
REMARK  6 active torsions:
REMARK  status: ('A' for Active; 'I' for Inactive)
REMARK    1  A    between atoms: C_2  and  C_3
REMARK    2  A    between atoms: C_8  and  C_9
REMARK    3  A    between atoms: C_9  and  C_10
REMARK    4  A    between atoms: N_19  and  C_20
REMARK    5  A    between atoms: C_20  and  C_21
REMARK    6  A    between atoms: C_24  and  C_25
REMARK                            x       y       z     vdW  Elec       q    Type
REMARK                         _______ _______ _______ _____ _____    ______ ____
ROOT
ATOM      1  O   UNL     1       2.938   7.442  17.655  0.00  0.00    +0.000 OA
ATOM      2  C   UNL     1       2.442   7.190  18.750  0.00  0.00    +0.000 C 
ATOM      3  N   UNL     1       1.676   8.142  19.443  0.00  0.00    +0.000 N 
ATOM      4  C   UNL     1       1.361   9.421  18.790  0.00  0.00    +0.000 C 
ATOM      5  C   UNL     1       0.008  10.023  19.266  0.00  0.00    +0.000 C 
ATOM      6  N   UNL     1      -0.237  10.004  20.731  0.00  0.00    +0.000 NA
ATOM      7  C   UNL     1       0.027   8.621  21.201  0.00  0.00    +0.000 C 
ATOM      8  C   UNL     1       1.460   8.151  20.897  0.00  0.00    +0.000 C 
ENDROOT
BRANCH   2   9
ATOM      9  C   UNL     1       2.580   5.809  19.328  0.00  0.00    +0.000 A 
ATOM     10  C   UNL     1       1.618   5.426  20.287  0.00  0.00    +0.000 A 
ATOM     11  C   UNL     1       1.720   4.230  20.991  0.00  0.00    +0.000 A 
ATOM     12  C   UNL     1       2.734   3.341  20.674  0.00  0.00    +0.000 A 
ATOM     13  C   UNL     1       3.614   3.636  19.633  0.00  0.00    +0.000 A 
ATOM     14  C   UNL     1       3.551   4.860  18.929  0.00  0.00    +0.000 A 
BRANCH  14  15
ATOM     15  C   UNL     1       4.463   5.007  17.724  0.00  0.00    +0.000 C 
BRANCH  15  16
ATOM     16  C   UNL     1       5.821   5.639  17.941  0.00  0.00    +0.000 A 
ATOM     17  C   UNL     1       6.258   6.716  17.151  0.00  0.00    +0.000 A 
ATOM     18  C   UNL     1       7.440   7.395  17.460  0.00  0.00    +0.000 A 
ATOM     19  C   UNL     1       8.202   7.004  18.558  0.00  0.00    +0.000 A 
ATOM     20  C   UNL     1       7.795   5.919  19.333  0.00  0.00    +0.000 A 
ATOM     21  C   UNL     1       6.616   5.236  19.022  0.00  0.00    +0.000 A 
ENDBRANCH  15  16
ENDBRANCH  14  15
ENDBRANCH   2   9
BRANCH   6  22
ATOM     22  C   UNL     1       0.604  11.011  21.421  0.00  0.00    +0.000 C 
BRANCH  22  23
ATOM     23  C   UNL     1      -0.136  12.314  21.580  0.00  0.00    +0.000 A 
ATOM     24  C   UNL     1      -0.794  13.023  20.592  0.00  0.00    +0.000 A 
ATOM     25  S   UNL     1      -1.621  14.360  21.277  0.00  0.00    +0.000 S 
ATOM     26  C   UNL     1      -1.064  13.903  22.833  0.00  0.00    +0.000 A 
ATOM     27  N   UNL     1      -0.239  12.875  22.855  0.00  0.00    +0.000 NA
BRANCH  26  28
ATOM     28  C   UNL     1      -1.508  14.553  24.038  0.00  0.00    +0.000 A 
ATOM     29  C   UNL     1      -2.813  14.759  24.463  0.00  0.00    +0.000 A 
ATOM     30  C   UNL     1      -2.757  15.492  25.674  0.00  0.00    +0.000 A 
ATOM     31  C   UNL     1      -1.423  15.695  25.928  0.00  0.00    +0.000 A 
ATOM     32  O   UNL     1      -0.662  15.130  24.957  0.00  0.00    +0.000 OA
ENDBRANCH  26  28
ENDBRANCH  22  23
ENDBRANCH   6  22
TORSDOF 6
ENDMDL
MODEL 8
REMARK VINA RESULT:      -7.7      3.135      4.631
REMARK  Name = 
REMARK  6 active torsions:
REMARK  status: ('A' for Active; 'I' for Inactive)
REMARK    1  A    between atoms: C_2  and  C_3
REMARK    2  A    between atoms: C_8  and  C_9
REMARK    3  A    between atoms: C_9  and  C_10
REMARK    4  A    between atoms: N_19  and  C_20
REMARK    5  A    between atoms: C_20  and  C_21
REMARK    6  A    between atoms: C_24  and  C_25
REMARK                            x       y       z     vdW  Elec       q    Type
REMARK                         _______ _______ _______ _____ _____    ______ ____
ROOT
ATOM      1  O   UNL     1       2.440   8.615  17.229  0.00  0.00    +0.000 OA
ATOM      2  C   UNL     1       2.160   8.246  18.367  0.00  0.00    +0.000 C 
ATOM      3  N   UNL     1       1.323   9.009  19.198  0.00  0.00    +0.000 N 
ATOM      4  C   UNL     1       0.674  10.211  18.652  0.00  0.00    +0.000 C 
ATOM      5  C   UNL     1      -0.693  10.517  19.329  0.00  0.00    +0.000 C 
ATOM      6  N   UNL     1      -0.725  10.420  20.811  0.00  0.00    +0.000 NA
ATOM      7  C   UNL     1      -0.130   9.109  21.177  0.00  0.00    +0.000 C 
ATOM      8  C   UNL     1       1.311   8.945  20.666  0.00  0.00    +0.000 C 
ENDROOT
BRANCH   2   9
ATOM      9  C   UNL     1       2.646   6.910  18.856  0.00  0.00    +0.000 A 
ATOM     10  C   UNL     1       1.696   6.088  19.499  0.00  0.00    +0.000 A 
ATOM     11  C   UNL     1       2.057   4.893  20.114  0.00  0.00    +0.000 A 
ATOM     12  C   UNL     1       3.363   4.443  20.006  0.00  0.00    +0.000 A 
ATOM     13  C   UNL     1       4.287   5.169  19.256  0.00  0.00    +0.000 A 
ATOM     14  C   UNL     1       3.952   6.403  18.654  0.00  0.00    +0.000 A 
BRANCH  14  15
ATOM     15  C   UNL     1       4.994   7.028  17.743  0.00  0.00    +0.000 C 
BRANCH  15  16
ATOM     16  C   UNL     1       5.685   6.127  16.742  0.00  0.00    +0.000 A 
ATOM     17  C   UNL     1       6.881   5.463  17.064  0.00  0.00    +0.000 A 
ATOM     18  C   UNL     1       7.425   4.512  16.196  0.00  0.00    +0.000 A 
ATOM     19  C   UNL     1       6.786   4.217  14.995  0.00  0.00    +0.000 A 
ATOM     20  C   UNL     1       5.615   4.890  14.650  0.00  0.00    +0.000 A 
ATOM     21  C   UNL     1       5.071   5.845  15.514  0.00  0.00    +0.000 A 
ENDBRANCH  15  16
ENDBRANCH  14  15
ENDBRANCH   2   9
BRANCH   6  22
ATOM     22  C   UNL     1      -0.013  11.562  21.432  0.00  0.00    +0.000 C 
BRANCH  22  23
ATOM     23  C   UNL     1      -0.949  12.384  22.280  0.00  0.00    +0.000 A 
ATOM     24  C   UNL     1      -0.667  13.584  22.906  0.00  0.00    +0.000 A 
ATOM     25  S   UNL     1      -2.087  14.223  23.623  0.00  0.00    +0.000 S 
ATOM     26  C   UNL     1      -2.980  12.877  23.047  0.00  0.00    +0.000 A 
ATOM     27  N   UNL     1      -2.268  11.952  22.433  0.00  0.00    +0.000 NA
BRANCH  26  28
ATOM     28  C   UNL     1      -4.411  12.785  23.168  0.00  0.00    +0.000 A 
ATOM     29  C   UNL     1      -5.367  13.024  22.191  0.00  0.00    +0.000 A 
ATOM     30  C   UNL     1      -6.640  12.868  22.790  0.00  0.00    +0.000 A 
ATOM     31  C   UNL     1      -6.400  12.540  24.102  0.00  0.00    +0.000 A 
ATOM     32  O   UNL     1      -5.065  12.481  24.341  0.00  0.00    +0.000 OA
ENDBRANCH  26  28
ENDBRANCH  22  23
ENDBRANCH   6  22
TORSDOF 6
ENDMDL
MODEL 9
REMARK VINA RESULT:      -7.6      5.132      9.092
REMARK  Name = 
REMARK  6 active torsions:
REMARK  status: ('A' for Active; 'I' for Inactive)
REMARK    1  A    between atoms: C_2  and  C_3
REMARK    2  A    between atoms: C_8  and  C_9
REMARK    3  A    between atoms: C_9  and  C_10
REMARK    4  A    between atoms: N_19  and  C_20
REMARK    5  A    between atoms: C_20  and  C_21
REMARK    6  A    between atoms: C_24  and  C_25
REMARK                            x       y       z     vdW  Elec       q    Type
REMARK                         _______ _______ _______ _____ _____    ______ ____
ROOT
ATOM      1  O   UNL     1       7.037  14.585  21.289  0.00  0.00    +0.000 OA
ATOM      2  C   UNL     1       6.722  15.079  20.210  0.00  0.00    +0.000 C 
ATOM      3  N   UNL     1       5.385  15.106  19.780  0.00  0.00    +0.000 N 
ATOM      4  C   UNL     1       4.329  14.644  20.693  0.00  0.00    +0.000 C 
ATOM      5  C   UNL     1       2.970  15.361  20.454  0.00  0.00    +0.000 C 
ATOM      6  N   UNL     1       2.542  15.497  19.038  0.00  0.00    +0.000 NA
ATOM      7  C   UNL     1       3.688  16.072  18.288  0.00  0.00    +0.000 C 
ATOM      8  C   UNL     1       4.954  15.205  18.378  0.00  0.00    +0.000 C 
ENDROOT
BRANCH   2   9
ATOM      9  C   UNL     1       7.770  15.749  19.365  0.00  0.00    +0.000 A 
ATOM     10  C   UNL     1       8.074  17.090  19.681  0.00  0.00    +0.000 A 
ATOM     11  C   UNL     1       8.923  17.856  18.888  0.00  0.00    +0.000 A 
ATOM     12  C   UNL     1       9.571  17.261  17.817  0.00  0.00    +0.000 A 
ATOM     13  C   UNL     1       9.395  15.900  17.570  0.00  0.00    +0.000 A 
ATOM     14  C   UNL     1       8.509  15.112  18.340  0.00  0.00    +0.000 A 
BRANCH  14  15
ATOM     15  C   UNL     1       8.511  13.617  18.073  0.00  0.00    +0.000 C 
BRANCH  15  16
ATOM     16  C   UNL     1       9.710  12.820  18.539  0.00  0.00    +0.000 A 
ATOM     17  C   UNL     1      10.693  12.386  17.633  0.00  0.00    +0.000 A 
ATOM     18  C   UNL     1      11.872  11.792  18.090  0.00  0.00    +0.000 A 
ATOM     19  C   UNL     1      12.082  11.618  19.455  0.00  0.00    +0.000 A 
ATOM     20  C   UNL     1      11.101  12.017  20.363  0.00  0.00    +0.000 A 
ATOM     21  C   UNL     1       9.919  12.607  19.907  0.00  0.00    +0.000 A 
ENDBRANCH  15  16
ENDBRANCH  14  15
ENDBRANCH   2   9
BRANCH   6  22
ATOM     22  C   UNL     1       2.099  14.193  18.491  0.00  0.00    +0.000 C 
BRANCH  22  23
ATOM     23  C   UNL     1       0.939  13.644  19.280  0.00  0.00    +0.000 A 
ATOM     24  C   UNL     1      -0.383  14.040  19.200  0.00  0.00    +0.000 A 
ATOM     25  S   UNL     1      -1.364  13.022  20.171  0.00  0.00    +0.000 S 
ATOM     26  C   UNL     1       0.025  12.121  20.621  0.00  0.00    +0.000 A 
ATOM     27  N   UNL     1       1.169  12.585  20.160  0.00  0.00    +0.000 NA
BRANCH  26  28
ATOM     28  C   UNL     1      -0.054  10.910  21.396  0.00  0.00    +0.000 A 
ATOM     29  C   UNL     1      -0.250   9.615  20.936  0.00  0.00    +0.000 A 
ATOM     30  C   UNL     1      -0.316   8.765  22.067  0.00  0.00    +0.000 A 
ATOM     31  C   UNL     1      -0.156   9.582  23.159  0.00  0.00    +0.000 A 
ATOM     32  O   UNL     1       0.008  10.872  22.770  0.00  0.00    +0.000 OA
ENDBRANCH  26  28
ENDBRANCH  22  23
ENDBRANCH   6  22
TORSDOF 6
ENDMDL
