MODEL 1
REMARK VINA RESULT:      -7.5      0.000      0.000
REMARK  Name = 
REMARK  10 active torsions:
REMARK  status: ('A' for Active; 'I' for Inactive)
REMARK    1  A    between atoms: C_1  and  C_2
REMARK    2  A    between atoms: C_2  and  C_3
REMARK    3  A    between atoms: C_3  and  N_4
REMARK    4  A    between atoms: N_4  and  C_5
REMARK    5  A    between atoms: C_5  and  C_6
REMARK    6  A    between atoms: C_6  and  C_7
REMARK    7  A    between atoms: C_8  and  C_10
REMARK    8  A    between atoms: C_10  and  C_11
REMARK    9  A    between atoms: C_12  and  C_13
REMARK   10  A    between atoms: C_22  and  N_23
REMARK                            x       y       z     vdW  Elec       q    Type
REMARK                         _______ _______ _______ _____ _____    ______ ____
ROOT
ATOM      1  C   UNL     1       3.065   6.029  18.025  0.00  0.00    +0.000 A 
ATOM      2  C   UNL     1       2.296   6.548  19.059  0.00  0.00    +0.000 A 
ATOM      3  N   UNL     1       2.006   5.572  19.984  0.00  0.00    +0.000 NA
ATOM      4  C   UNL     1       2.520   4.452  19.519  0.00  0.00    +0.000 A 
ATOM      5  C   UNL     1       2.536   3.112  20.014  0.00  0.00    +0.000 A 
ATOM      6  C   UNL     1       3.102   2.118  19.288  0.00  0.00    +0.000 A 
ATOM      7  C   UNL     1       3.702   2.383  17.993  0.00  0.00    +0.000 A 
ATOM      8  C   UNL     1       3.713   3.642  17.529  0.00  0.00    +0.000 A 
ATOM      9  N   UNL     1       3.137   4.669  18.285  0.00  0.00    +0.000 N 
ENDROOT
BRANCH   2  10
ATOM     10  C   UNL     1       1.878   7.930  19.250  0.00  0.00    +0.000 A 
ATOM     11  C   UNL     1       1.875   8.859  18.203  0.00  0.00    +0.000 A 
ATOM     12  C   UNL     1       1.488  10.183  18.418  0.00  0.00    +0.000 A 
ATOM     13  C   UNL     1       1.060  10.580  19.680  0.00  0.00    +0.000 A 
ATOM     14 CL   UNL     1       0.573  12.209  19.940  0.00  0.00    +0.000 Cl
ATOM     15  C   UNL     1       1.014   9.663  20.727  0.00  0.00    +0.000 A 
ATOM     16  C   UNL     1       1.423   8.342  20.512  0.00  0.00    +0.000 A 
ENDBRANCH   2  10
BRANCH   5  17
ATOM     17  N   UNL     1       1.988   2.736  21.308  0.00  0.00    +0.000 N 
ATOM     18  O   UNL     1       2.779   2.405  22.200  0.00  0.00    +0.000 OA
ATOM     19  O   UNL     1       0.752   2.720  21.425  0.00  0.00    +0.000 OA
ENDBRANCH   5  17
BRANCH   1  20
ATOM     20  C   UNL     1       3.754   6.684  16.861  0.00  0.00    +0.000 C 
BRANCH  20  22
ATOM     21  N   UNL     1       5.961   5.664  16.264  0.00  0.00    +0.000 N 
ATOM     22  C   UNL     1       5.279   6.647  16.993  0.00  0.00    +0.000 C 
ATOM     23  O   UNL     1       5.879   7.439  17.722  0.00  0.00    +0.000 OA
BRANCH  21  24
ATOM     24  C   UNL     1       7.422   5.585  16.413  0.00  0.00    +0.000 C 
BRANCH  24  26
ATOM     25  C   UNL     1       8.019   5.331  18.900  0.00  0.00    +0.000 C 
ATOM     26  C   UNL     1       7.911   4.660  17.538  0.00  0.00    +0.000 C 
ENDBRANCH  24  26
ENDBRANCH  21  24
BRANCH  21  27
ATOM     27  C   UNL     1       5.349   4.865  15.193  0.00  0.00    +0.000 C 
BRANCH  27  28
ATOM     28  C   UNL     1       6.343   4.033  14.369  0.00  0.00    +0.000 C 
ATOM     29  C   UNL     1       5.846   3.635  12.988  0.00  0.00    +0.000 C 
ENDBRANCH  27  28
ENDBRANCH  21  27
ENDBRANCH  20  22
ENDBRANCH   1  20
TORSDOF 8
ENDMDL
MODEL 2
REMARK VINA RESULT:      -7.4      0.667      1.288
REMARK  Name = 
REMARK  10 active torsions:
REMARK  status: ('A' for Active; 'I' for Inactive)
REMARK    1  A    between atoms: C_1  and  C_2
REMARK    2  A    between atoms: C_2  and  C_3
REMARK    3  A    between atoms: C_3  and  N_4
REMARK    4  A    between atoms: N_4  and  C_5
REMARK    5  A    between atoms: C_5  and  C_6
REMARK    6  A    between atoms: C_6  and  C_7
REMARK    7  A    between atoms: C_8  and  C_10
REMARK    8  A    between atoms: C_10  and  C_11
REMARK    9  A    between atoms: C_12  and  C_13
REMARK   10  A    between atoms: C_22  and  N_23
REMARK                            x       y       z     vdW  Elec       q    Type
REMARK                         _______ _______ _______ _____ _____    ______ ____
ROOT
ATOM      1  C   UNL     1       3.225   5.742  17.830  0.00  0.00    +0.000 A 
ATOM      2  C   UNL     1       2.443   6.316  18.825  0.00  0.00    +0.000 A 
ATOM      3  N   UNL     1       2.138   5.389  19.796  0.00  0.00    +0.000 NA
ATOM      4  C   UNL     1       2.654   4.246  19.395  0.00  0.00    +0.000 A 
ATOM      5  C   UNL     1       2.659   2.932  19.959  0.00  0.00    +0.000 A 
ATOM      6  C   UNL     1       3.231   1.901  19.293  0.00  0.00    +0.000 A 
ATOM      7  C   UNL     1       3.850   2.097  17.994  0.00  0.00    +0.000 A 
ATOM      8  C   UNL     1       3.871   3.331  17.467  0.00  0.00    +0.000 A 
ATOM      9  N   UNL     1       3.288   4.397  18.161  0.00  0.00    +0.000 N 
ENDROOT
BRANCH   2  10
ATOM     10  C   UNL     1       2.027   7.707  18.939  0.00  0.00    +0.000 A 
ATOM     11  C   UNL     1       1.592   8.258  20.150  0.00  0.00    +0.000 A 
ATOM     12  C   UNL     1       1.180   9.589  20.227  0.00  0.00    +0.000 A 
ATOM     13  C   UNL     1       1.238  10.396  19.095  0.00  0.00    +0.000 A 
ATOM     14 CL   UNL     1       0.741  12.039  19.196  0.00  0.00    +0.000 Cl
ATOM     15  C   UNL     1       1.707   9.881  17.889  0.00  0.00    +0.000 A 
ATOM     16  C   UNL     1       2.100   8.540  17.812  0.00  0.00    +0.000 A 
ENDBRANCH   2  10
BRANCH   5  17
ATOM     17  N   UNL     1       2.092   2.625  21.263  0.00  0.00    +0.000 N 
ATOM     18  O   UNL     1       0.870   2.756  21.411  0.00  0.00    +0.000 OA
ATOM     19  O   UNL     1       2.877   2.298  22.168  0.00  0.00    +0.000 OA
ENDBRANCH   5  17
BRANCH   1  20
ATOM     20  C   UNL     1       3.931   6.334  16.644  0.00  0.00    +0.000 C 
BRANCH  20  22
ATOM     21  N   UNL     1       6.409   5.999  16.783  0.00  0.00    +0.000 N 
ATOM     22  C   UNL     1       5.325   6.859  17.001  0.00  0.00    +0.000 C 
ATOM     23  O   UNL     1       5.484   7.987  17.473  0.00  0.00    +0.000 OA
BRANCH  21  24
ATOM     24  C   UNL     1       7.750   6.470  17.162  0.00  0.00    +0.000 C 
BRANCH  24  26
ATOM     25  C   UNL     1       7.737   5.522  19.550  0.00  0.00    +0.000 C 
ATOM     26  C   UNL     1       7.944   6.740  18.662  0.00  0.00    +0.000 C 
ENDBRANCH  24  26
ENDBRANCH  21  24
BRANCH  21  27
ATOM     27  C   UNL     1       6.327   4.760  15.996  0.00  0.00    +0.000 C 
BRANCH  27  28
ATOM     28  C   UNL     1       6.753   4.908  14.528  0.00  0.00    +0.000 C 
ATOM     29  C   UNL     1       6.144   3.882  13.584  0.00  0.00    +0.000 C 
ENDBRANCH  27  28
ENDBRANCH  21  27
ENDBRANCH  20  22
ENDBRANCH   1  20
TORSDOF 8
ENDMDL
MODEL 3
REMARK VINA RESULT:      -7.4      3.147      5.257
REMARK  Name = 
REMARK  10 active torsions:
REMARK  status: ('A' for Active; 'I' for Inactive)
REMARK    1  A    between atoms: C_1  and  C_2
REMARK    2  A    between atoms: C_2  and  C_3
REMARK    3  A    between atoms: C_3  and  N_4
REMARK    4  A    between atoms: N_4  and  C_5
REMARK    5  A    between atoms: C_5  and  C_6
REMARK    6  A    between atoms: C_6  and  C_7
REMARK    7  A    between atoms: C_8  and  C_10
REMARK    8  A    between atoms: C_10  and  C_11
REMARK    9  A    between atoms: C_12  and  C_13
REMARK   10  A    between atoms: C_22  and  N_23
REMARK                            x       y       z     vdW  Elec       q    Type
REMARK                         _______ _______ _______ _____ _____    ______ ____
ROOT
ATOM      1  C   UNL     1       2.801   7.103  18.413  0.00  0.00    +0.000 A 
ATOM      2  C   UNL     1       2.701   6.304  19.545  0.00  0.00    +0.000 A 
ATOM      3  N   UNL     1       1.922   6.915  20.501  0.00  0.00    +0.000 NA
ATOM      4  C   UNL     1       1.592   8.094  20.017  0.00  0.00    +0.000 A 
ATOM      5  C   UNL     1       0.819   9.177  20.539  0.00  0.00    +0.000 A 
ATOM      6  C   UNL     1       0.682  10.326  19.834  0.00  0.00    +0.000 A 
ATOM      7  C   UNL     1       1.315  10.491  18.538  0.00  0.00    +0.000 A 
ATOM      8  C   UNL     1       2.024   9.472  18.029  0.00  0.00    +0.000 A 
ATOM      9  N   UNL     1       2.156   8.283  18.753  0.00  0.00    +0.000 N 
ENDROOT
BRANCH   2  10
ATOM     10  C   UNL     1       3.248   4.969  19.744  0.00  0.00    +0.000 A 
ATOM     11  C   UNL     1       4.576   4.654  19.434  0.00  0.00    +0.000 A 
ATOM     12  C   UNL     1       5.068   3.360  19.615  0.00  0.00    +0.000 A 
ATOM     13  C   UNL     1       4.242   2.376  20.148  0.00  0.00    +0.000 A 
ATOM     14 CL   UNL     1       4.856   0.786  20.381  0.00  0.00    +0.000 Cl
ATOM     15  C   UNL     1       2.930   2.677  20.502  0.00  0.00    +0.000 A 
ATOM     16  C   UNL     1       2.434   3.969  20.300  0.00  0.00    +0.000 A 
ENDBRANCH   2  10
BRANCH   5  17
ATOM     17  N   UNL     1       0.121   9.112  21.813  0.00  0.00    +0.000 N 
ATOM     18  O   UNL     1      -0.792   8.286  21.934  0.00  0.00    +0.000 OA
ATOM     19  O   UNL     1       0.450   9.928  22.690  0.00  0.00    +0.000 OA
ENDBRANCH   5  17
BRANCH   1  20
ATOM     20  C   UNL     1       3.403   6.853  17.060  0.00  0.00    +0.000 C 
BRANCH  20  22
ATOM     21  N   UNL     1       5.623   5.796  16.582  0.00  0.00    +0.000 N 
ATOM     22  C   UNL     1       4.934   6.906  17.086  0.00  0.00    +0.000 C 
ATOM     23  O   UNL     1       5.533   7.880  17.546  0.00  0.00    +0.000 OA
BRANCH  21  24
ATOM     24  C   UNL     1       7.092   5.811  16.640  0.00  0.00    +0.000 C 
BRANCH  24  26
ATOM     25  C   UNL     1       7.968   5.927  19.054  0.00  0.00    +0.000 C 
ATOM     26  C   UNL     1       7.703   5.058  17.833  0.00  0.00    +0.000 C 
ENDBRANCH  24  26
ENDBRANCH  21  24
BRANCH  21  27
ATOM     27  C   UNL     1       4.991   4.728  15.794  0.00  0.00    +0.000 C 
BRANCH  27  28
ATOM     28  C   UNL     1       5.977   3.765  15.117  0.00  0.00    +0.000 C 
ATOM     29  C   UNL     1       6.060   3.901  13.604  0.00  0.00    +0.000 C 
ENDBRANCH  27  28
ENDBRANCH  21  27
ENDBRANCH  20  22
ENDBRANCH   1  20
TORSDOF 8
ENDMDL
MODEL 4
REMARK VINA RESULT:      -7.4      1.107      2.686
REMARK  Name = 
REMARK  10 active torsions:
REMARK  status: ('A' for Active; 'I' for Inactive)
REMARK    1  A    between atoms: C_1  and  C_2
REMARK    2  A    between atoms: C_2  and  C_3
REMARK    3  A    between atoms: C_3  and  N_4
REMARK    4  A    between atoms: N_4  and  C_5
REMARK    5  A    between atoms: C_5  and  C_6
REMARK    6  A    between atoms: C_6  and  C_7
REMARK    7  A    between atoms: C_8  and  C_10
REMARK    8  A    between atoms: C_10  and  C_11
REMARK    9  A    between atoms: C_12  and  C_13
REMARK   10  A    between atoms: C_22  and  N_23
REMARK                            x       y       z     vdW  Elec       q    Type
REMARK                         _______ _______ _______ _____ _____    ______ ____
ROOT
ATOM      1  C   UNL     1       3.740   6.136  18.005  0.00  0.00    +0.000 A 
ATOM      2  C   UNL     1       2.546   6.578  18.561  0.00  0.00    +0.000 A 
ATOM      3  N   UNL     1       1.795   5.512  19.003  0.00  0.00    +0.000 NA
ATOM      4  C   UNL     1       2.462   4.425  18.678  0.00  0.00    +0.000 A 
ATOM      5  C   UNL     1       2.193   3.032  18.854  0.00  0.00    +0.000 A 
ATOM      6  C   UNL     1       3.045   2.100  18.362  0.00  0.00    +0.000 A 
ATOM      7  C   UNL     1       4.246   2.487  17.643  0.00  0.00    +0.000 A 
ATOM      8  C   UNL     1       4.519   3.792  17.492  0.00  0.00    +0.000 A 
ATOM      9  N   UNL     1       3.643   4.753  18.010  0.00  0.00    +0.000 N 
ENDROOT
BRANCH   2  10
ATOM     10  C   UNL     1       2.109   7.953  18.755  0.00  0.00    +0.000 A 
ATOM     11  C   UNL     1       1.566   8.399  19.966  0.00  0.00    +0.000 A 
ATOM     12  C   UNL     1       1.137   9.718  20.118  0.00  0.00    +0.000 A 
ATOM     13  C   UNL     1       1.286  10.618  19.068  0.00  0.00    +0.000 A 
ATOM     14 CL   UNL     1       0.768  12.246  19.263  0.00  0.00    +0.000 Cl
ATOM     15  C   UNL     1       1.863  10.208  17.868  0.00  0.00    +0.000 A 
ATOM     16  C   UNL     1       2.272   8.879  17.713  0.00  0.00    +0.000 A 
ENDBRANCH   2  10
BRANCH   5  17
ATOM     17  N   UNL     1       1.036   2.531  19.579  0.00  0.00    +0.000 N 
ATOM     18  O   UNL     1       0.085   2.090  18.921  0.00  0.00    +0.000 OA
ATOM     19  O   UNL     1       1.049   2.624  20.817  0.00  0.00    +0.000 OA
ENDBRANCH   5  17
BRANCH   1  20
ATOM     20  C   UNL     1       4.951   6.877  17.513  0.00  0.00    +0.000 C 
BRANCH  20  22
ATOM     21  N   UNL     1       6.600   5.616  16.112  0.00  0.00    +0.000 N 
ATOM     22  C   UNL     1       5.423   6.374  16.145  0.00  0.00    +0.000 C 
ATOM     23  O   UNL     1       4.800   6.639  15.115  0.00  0.00    +0.000 OA
BRANCH  21  24
ATOM     24  C   UNL     1       7.092   5.164  14.803  0.00  0.00    +0.000 C 
BRANCH  24  26
ATOM     25  C   UNL     1       6.386   3.804  12.739  0.00  0.00    +0.000 C 
ATOM     26  C   UNL     1       6.418   3.895  14.258  0.00  0.00    +0.000 C 
ENDBRANCH  24  26
ENDBRANCH  21  24
BRANCH  21  27
ATOM     27  C   UNL     1       7.245   5.051  17.306  0.00  0.00    +0.000 C 
BRANCH  27  28
ATOM     28  C   UNL     1       7.758   6.095  18.309  0.00  0.00    +0.000 C 
ATOM     29  C   UNL     1       7.873   5.596  19.741  0.00  0.00    +0.000 C 
ENDBRANCH  27  28
ENDBRANCH  21  27
ENDBRANCH  20  22
ENDBRANCH   1  20
TORSDOF 8
ENDMDL
MODEL 5
REMARK VINA RESULT:      -7.4      1.009      2.414
REMARK  Name = 
REMARK  10 active torsions:
REMARK  status: ('A' for Active; 'I' for Inactive)
REMARK    1  A    between atoms: C_1  and  C_2
REMARK    2  A    between atoms: C_2  and  C_3
REMARK    3  A    between atoms: C_3  and  N_4
REMARK    4  A    between atoms: N_4  and  C_5
REMARK    5  A    between atoms: C_5  and  C_6
REMARK    6  A    between atoms: C_6  and  C_7
REMARK    7  A    between atoms: C_8  and  C_10
REMARK    8  A    between atoms: C_10  and  C_11
REMARK    9  A    between atoms: C_12  and  C_13
REMARK   10  A    between atoms: C_22  and  N_23
REMARK                            x       y       z     vdW  Elec       q    Type
REMARK                         _______ _______ _______ _____ _____    ______ ____
ROOT
ATOM      1  C   UNL     1       3.919   6.125  18.760  0.00  0.00    +0.000 A 
ATOM      2  C   UNL     1       2.679   6.596  19.172  0.00  0.00    +0.000 A 
ATOM      3  N   UNL     1       1.978   5.607  19.824  0.00  0.00    +0.000 NA
ATOM      4  C   UNL     1       2.724   4.523  19.770  0.00  0.00    +0.000 A 
ATOM      5  C   UNL     1       2.535   3.190  20.249  0.00  0.00    +0.000 A 
ATOM      6  C   UNL     1       3.461   2.233  20.000  0.00  0.00    +0.000 A 
ATOM      7  C   UNL     1       4.663   2.531  19.242  0.00  0.00    +0.000 A 
ATOM      8  C   UNL     1       4.861   3.785  18.808  0.00  0.00    +0.000 A 
ATOM      9  N   UNL     1       3.908   4.774  19.074  0.00  0.00    +0.000 N 
ENDROOT
BRANCH   2  10
ATOM     10  C   UNL     1       2.151   7.947  19.040  0.00  0.00    +0.000 A 
ATOM     11  C   UNL     1       2.267   8.679  17.853  0.00  0.00    +0.000 A 
ATOM     12  C   UNL     1       1.770   9.980  17.761  0.00  0.00    +0.000 A 
ATOM     13  C   UNL     1       1.113  10.547  18.847  0.00  0.00    +0.000 A 
ATOM     14 CL   UNL     1       0.490  12.146  18.726  0.00  0.00    +0.000 Cl
ATOM     15  C   UNL     1       0.948   9.822  20.025  0.00  0.00    +0.000 A 
ATOM     16  C   UNL     1       1.467   8.526  20.121  0.00  0.00    +0.000 A 
ENDBRANCH   2  10
BRANCH   5  17
ATOM     17  N   UNL     1       1.382   2.785  21.039  0.00  0.00    +0.000 N 
ATOM     18  O   UNL     1       1.577   2.418  22.204  0.00  0.00    +0.000 OA
ATOM     19  O   UNL     1       0.274   2.783  20.478  0.00  0.00    +0.000 OA
ENDBRANCH   5  17
BRANCH   1  20
ATOM     20  C   UNL     1       5.101   6.819  18.144  0.00  0.00    +0.000 C 
BRANCH  20  22
ATOM     21  N   UNL     1       6.493   5.654  16.418  0.00  0.00    +0.000 N 
ATOM     22  C   UNL     1       5.333   6.391  16.691  0.00  0.00    +0.000 C 
ATOM     23  O   UNL     1       4.539   6.695  15.799  0.00  0.00    +0.000 OA
BRANCH  21  24
ATOM     24  C   UNL     1       6.754   5.273  15.022  0.00  0.00    +0.000 C 
BRANCH  24  26
ATOM     25  C   UNL     1       6.229   3.670  13.084  0.00  0.00    +0.000 C 
ATOM     26  C   UNL     1       6.093   3.962  14.571  0.00  0.00    +0.000 C 
ENDBRANCH  24  26
ENDBRANCH  21  24
BRANCH  21  27
ATOM     27  C   UNL     1       7.339   5.043  17.453  0.00  0.00    +0.000 C 
BRANCH  27  28
ATOM     28  C   UNL     1       7.962   6.041  18.440  0.00  0.00    +0.000 C 
ATOM     29  C   UNL     1       8.072   5.536  19.870  0.00  0.00    +0.000 C 
ENDBRANCH  27  28
ENDBRANCH  21  27
ENDBRANCH  20  22
ENDBRANCH   1  20
TORSDOF 8
ENDMDL
MODEL 6
REMARK VINA RESULT:      -7.3      1.190      1.639
REMARK  Name = 
REMARK  10 active torsions:
REMARK  status: ('A' for Active; 'I' for Inactive)
REMARK    1  A    between atoms: C_1  and  C_2
REMARK    2  A    between atoms: C_2  and  C_3
REMARK    3  A    between atoms: C_3  and  N_4
REMARK    4  A    between atoms: N_4  and  C_5
REMARK    5  A    between atoms: C_5  and  C_6
REMARK    6  A    between atoms: C_6  and  C_7
REMARK    7  A    between atoms: C_8  and  C_10
REMARK    8  A    between atoms: C_10  and  C_11
REMARK    9  A    between atoms: C_12  and  C_13
REMARK   10  A    between atoms: C_22  and  N_23
REMARK                            x       y       z     vdW  Elec       q    Type
REMARK                         _______ _______ _______ _____ _____    ______ ____
ROOT
ATOM      1  C   UNL     1       3.381   5.657  17.979  0.00  0.00    +0.000 A 
ATOM      2  C   UNL     1       2.500   6.233  18.885  0.00  0.00    +0.000 A 
ATOM      3  N   UNL     1       2.110   5.314  19.832  0.00  0.00    +0.000 NA
ATOM      4  C   UNL     1       2.675   4.172  19.499  0.00  0.00    +0.000 A 
ATOM      5  C   UNL     1       2.637   2.865  20.076  0.00  0.00    +0.000 A 
ATOM      6  C   UNL     1       3.283   1.833  19.482  0.00  0.00    +0.000 A 
ATOM      7  C   UNL     1       4.024   2.022  18.248  0.00  0.00    +0.000 A 
ATOM      8  C   UNL     1       4.084   3.250  17.710  0.00  0.00    +0.000 A 
ATOM      9  N   UNL     1       3.425   4.316  18.330  0.00  0.00    +0.000 N 
ENDROOT
BRANCH   2  10
ATOM     10  C   UNL     1       2.060   7.621  18.940  0.00  0.00    +0.000 A 
ATOM     11  C   UNL     1       1.656   8.227  20.135  0.00  0.00    +0.000 A 
ATOM     12  C   UNL     1       1.220   9.553  20.156  0.00  0.00    +0.000 A 
ATOM     13  C   UNL     1       1.224  10.299  18.982  0.00  0.00    +0.000 A 
ATOM     14 CL   UNL     1       0.698  11.937  19.014  0.00  0.00    +0.000 Cl
ATOM     15  C   UNL     1       1.662   9.730  17.790  0.00  0.00    +0.000 A 
ATOM     16  C   UNL     1       2.078   8.394  17.769  0.00  0.00    +0.000 A 
ENDBRANCH   2  10
BRANCH   5  17
ATOM     17  N   UNL     1       1.948   2.566  21.322  0.00  0.00    +0.000 N 
ATOM     18  O   UNL     1       2.629   2.213  22.292  0.00  0.00    +0.000 OA
ATOM     19  O   UNL     1       0.708   2.635  21.322  0.00  0.00    +0.000 OA
ENDBRANCH   5  17
BRANCH   1  20
ATOM     20  C   UNL     1       4.195   6.244  16.860  0.00  0.00    +0.000 C 
BRANCH  20  22
ATOM     21  N   UNL     1       6.615   6.268  17.502  0.00  0.00    +0.000 N 
ATOM     22  C   UNL     1       5.427   6.997  17.371  0.00  0.00    +0.000 C 
ATOM     23  O   UNL     1       5.369   8.192  17.669  0.00  0.00    +0.000 OA
BRANCH  21  24
ATOM     24  C   UNL     1       7.796   6.965  18.034  0.00  0.00    +0.000 C 
BRANCH  24  26
ATOM     25  C   UNL     1       8.608   9.372  18.419  0.00  0.00    +0.000 C 
ATOM     26  C   UNL     1       8.057   8.354  17.432  0.00  0.00    +0.000 C 
ENDBRANCH  24  26
ENDBRANCH  21  24
BRANCH  21  27
ATOM     27  C   UNL     1       6.822   4.929  16.933  0.00  0.00    +0.000 C 
BRANCH  27  28
ATOM     28  C   UNL     1       7.080   4.912  15.419  0.00  0.00    +0.000 C 
ATOM     29  C   UNL     1       6.154   4.001  14.628  0.00  0.00    +0.000 C 
ENDBRANCH  27  28
ENDBRANCH  21  27
ENDBRANCH  20  22
ENDBRANCH   1  20
TORSDOF 8
ENDMDL
MODEL 7
REMARK VINA RESULT:      -7.3      1.170      2.568
REMARK  Name = 
REMARK  10 active torsions:
REMARK  status: ('A' for Active; 'I' for Inactive)
REMARK    1  A    between atoms: C_1  and  C_2
REMARK    2  A    between atoms: C_2  and  C_3
REMARK    3  A    between atoms: C_3  and  N_4
REMARK    4  A    between atoms: N_4  and  C_5
REMARK    5  A    between atoms: C_5  and  C_6
REMARK    6  A    between atoms: C_6  and  C_7
REMARK    7  A    between atoms: C_8  and  C_10
REMARK    8  A    between atoms: C_10  and  C_11
REMARK    9  A    between atoms: C_12  and  C_13
REMARK   10  A    between atoms: C_22  and  N_23
REMARK                            x       y       z     vdW  Elec       q    Type
REMARK                         _______ _______ _______ _____ _____    ______ ____
ROOT
ATOM      1  C   UNL     1       3.784   6.137  18.958  0.00  0.00    +0.000 A 
ATOM      2  C   UNL     1       2.528   6.570  19.365  0.00  0.00    +0.000 A 
ATOM      3  N   UNL     1       1.851   5.558  20.006  0.00  0.00    +0.000 NA
ATOM      4  C   UNL     1       2.627   4.495  19.949  0.00  0.00    +0.000 A 
ATOM      5  C   UNL     1       2.472   3.154  20.418  0.00  0.00    +0.000 A 
ATOM      6  C   UNL     1       3.427   2.225  20.169  0.00  0.00    +0.000 A 
ATOM      7  C   UNL     1       4.625   2.562  19.422  0.00  0.00    +0.000 A 
ATOM      8  C   UNL     1       4.790   3.824  18.998  0.00  0.00    +0.000 A 
ATOM      9  N   UNL     1       3.808   4.784  19.264  0.00  0.00    +0.000 N 
ENDROOT
BRANCH   2  10
ATOM     10  C   UNL     1       1.963   7.907  19.238  0.00  0.00    +0.000 A 
ATOM     11  C   UNL     1       1.381   8.575  20.322  0.00  0.00    +0.000 A 
ATOM     12  C   UNL     1       0.830   9.848  20.168  0.00  0.00    +0.000 A 
ATOM     13  C   UNL     1       0.892  10.482  18.932  0.00  0.00    +0.000 A 
ATOM     14 CL   UNL     1       0.222  12.056  18.748  0.00  0.00    +0.000 Cl
ATOM     15  C   UNL     1       1.504   9.854  17.850  0.00  0.00    +0.000 A 
ATOM     16  C   UNL     1       2.037   8.569  18.003  0.00  0.00    +0.000 A 
ENDBRANCH   2  10
BRANCH   5  17
ATOM     17  N   UNL     1       1.326   2.711  21.197  0.00  0.00    +0.000 N 
ATOM     18  O   UNL     1       0.224   2.671  20.637  0.00  0.00    +0.000 OA
ATOM     19  O   UNL     1       1.514   2.449  22.396  0.00  0.00    +0.000 OA
ENDBRANCH   5  17
BRANCH   1  20
ATOM     20  C   UNL     1       4.950   6.868  18.355  0.00  0.00    +0.000 C 
BRANCH  20  22
ATOM     21  N   UNL     1       6.598   5.905  16.734  0.00  0.00    +0.000 N 
ATOM     22  C   UNL     1       5.291   6.358  16.951  0.00  0.00    +0.000 C 
ATOM     23  O   UNL     1       4.453   6.361  16.047  0.00  0.00    +0.000 OA
BRANCH  21  24
ATOM     24  C   UNL     1       6.956   5.455  15.381  0.00  0.00    +0.000 C 
BRANCH  24  26
ATOM     25  C   UNL     1       6.186   3.837  13.539  0.00  0.00    +0.000 C 
ATOM     26  C   UNL     1       6.475   4.041  15.019  0.00  0.00    +0.000 C 
ENDBRANCH  24  26
ENDBRANCH  21  24
BRANCH  21  27
ATOM     27  C   UNL     1       7.562   5.635  17.811  0.00  0.00    +0.000 C 
BRANCH  27  28
ATOM     28  C   UNL     1       8.046   6.883  18.563  0.00  0.00    +0.000 C 
ATOM     29  C   UNL     1       8.116   8.146  17.719  0.00  0.00    +0.000 C 
ENDBRANCH  27  28
ENDBRANCH  21  27
ENDBRANCH  20  22
ENDBRANCH   1  20
TORSDOF 8
ENDMDL
MODEL 8
REMARK VINA RESULT:      -7.1      6.052      9.099
REMARK  Name = 
REMARK  10 active torsions:
REMARK  status: ('A' for Active; 'I' for Inactive)
REMARK    1  A    between atoms: C_1  and  C_2
REMARK    2  A    between atoms: C_2  and  C_3
REMARK    3  A    between atoms: C_3  and  N_4
REMARK    4  A    between atoms: N_4  and  C_5
REMARK    5  A    between atoms: C_5  and  C_6
REMARK    6  A    between atoms: C_6  and  C_7
REMARK    7  A    between atoms: C_8  and  C_10
REMARK    8  A    between atoms: C_10  and  C_11
REMARK    9  A    between atoms: C_12  and  C_13
REMARK   10  A    between atoms: C_22  and  N_23
REMARK                            x       y       z     vdW  Elec       q    Type
REMARK                         _______ _______ _______ _____ _____    ______ ____
ROOT
ATOM      1  C   UNL     1      -1.770  12.463  19.252  0.00  0.00    +0.000 A 
ATOM      2  C   UNL     1      -2.695  12.827  20.222  0.00  0.00    +0.000 A 
ATOM      3  N   UNL     1      -3.961  12.425  19.859  0.00  0.00    +0.000 NA
ATOM      4  C   UNL     1      -3.851  11.882  18.664  0.00  0.00    +0.000 A 
ATOM      5  C   UNL     1      -4.804  11.303  17.770  0.00  0.00    +0.000 A 
ATOM      6  C   UNL     1      -4.419  10.859  16.549  0.00  0.00    +0.000 A 
ATOM      7  C   UNL     1      -3.038  10.961  16.115  0.00  0.00    +0.000 A 
ATOM      8  C   UNL     1      -2.131  11.482  16.956  0.00  0.00    +0.000 A 
ATOM      9  N   UNL     1      -2.528  11.931  18.220  0.00  0.00    +0.000 N 
ENDROOT
BRANCH   2  10
ATOM     10  C   UNL     1      -2.436  13.473  21.501  0.00  0.00    +0.000 A 
ATOM     11  C   UNL     1      -2.017  14.806  21.592  0.00  0.00    +0.000 A 
ATOM     12  C   UNL     1      -1.757  15.394  22.830  0.00  0.00    +0.000 A 
ATOM     13  C   UNL     1      -1.954  14.663  23.997  0.00  0.00    +0.000 A 
ATOM     14 CL   UNL     1      -1.643  15.396  25.522  0.00  0.00    +0.000 Cl
ATOM     15  C   UNL     1      -2.410  13.349  23.933  0.00  0.00    +0.000 A 
ATOM     16  C   UNL     1      -2.650  12.756  22.689  0.00  0.00    +0.000 A 
ENDBRANCH   2  10
BRANCH   5  17
ATOM     17  N   UNL     1      -6.208  11.128  18.109  0.00  0.00    +0.000 N 
ATOM     18  O   UNL     1      -6.526  10.128  18.766  0.00  0.00    +0.000 OA
ATOM     19  O   UNL     1      -7.013  11.967  17.674  0.00  0.00    +0.000 OA
ENDBRANCH   5  17
BRANCH   1  20
ATOM     20  C   UNL     1      -0.270  12.536  19.220  0.00  0.00    +0.000 C 
BRANCH  20  22
ATOM     21  N   UNL     1       0.573  10.350  20.105  0.00  0.00    +0.000 N 
ATOM     22  C   UNL     1       0.375  11.716  20.342  0.00  0.00    +0.000 C 
ATOM     23  O   UNL     1       0.693  12.236  21.414  0.00  0.00    +0.000 OA
BRANCH  21  24
ATOM     24  C   UNL     1       1.149   9.539  21.188  0.00  0.00    +0.000 C 
BRANCH  24  26
ATOM     25  C   UNL     1      -0.406   9.594  23.233  0.00  0.00    +0.000 C 
ATOM     26  C   UNL     1       0.125   8.790  22.056  0.00  0.00    +0.000 C 
ENDBRANCH  24  26
ENDBRANCH  21  24
BRANCH  21  27
ATOM     27  C   UNL     1       0.459   9.722  18.781  0.00  0.00    +0.000 C 
BRANCH  27  28
ATOM     28  C   UNL     1       1.777   9.642  17.997  0.00  0.00    +0.000 C 
ATOM     29  C   UNL     1       2.391   8.253  17.928  0.00  0.00    +0.000 C 
ENDBRANCH  27  28
ENDBRANCH  21  27
ENDBRANCH  20  22
ENDBRANCH   1  20
TORSDOF 8
ENDMDL
MODEL 9
REMARK VINA RESULT:      -7.1      6.128      9.219
REMARK  Name = 
REMARK  10 active torsions:
REMARK  status: ('A' for Active; 'I' for Inactive)
REMARK    1  A    between atoms: C_1  and  C_2
REMARK    2  A    between atoms: C_2  and  C_3
REMARK    3  A    between atoms: C_3  and  N_4
REMARK    4  A    between atoms: N_4  and  C_5
REMARK    5  A    between atoms: C_5  and  C_6
REMARK    6  A    between atoms: C_6  and  C_7
REMARK    7  A    between atoms: C_8  and  C_10
REMARK    8  A    between atoms: C_10  and  C_11
REMARK    9  A    between atoms: C_12  and  C_13
REMARK   10  A    between atoms: C_22  and  N_23
REMARK                            x       y       z     vdW  Elec       q    Type
REMARK                         _______ _______ _______ _____ _____    ______ ____
ROOT
ATOM      1  C   UNL     1      -1.900  12.510  19.348  0.00  0.00    +0.000 A 
ATOM      2  C   UNL     1      -2.851  12.844  20.303  0.00  0.00    +0.000 A 
ATOM      3  N   UNL     1      -4.098  12.409  19.917  0.00  0.00    +0.000 NA
ATOM      4  C   UNL     1      -3.953  11.873  18.722  0.00  0.00    +0.000 A 
ATOM      5  C   UNL     1      -4.874  11.271  17.810  0.00  0.00    +0.000 A 
ATOM      6  C   UNL     1      -4.456  10.843  16.594  0.00  0.00    +0.000 A 
ATOM      7  C   UNL     1      -3.070  10.985  16.185  0.00  0.00    +0.000 A 
ATOM      8  C   UNL     1      -2.193  11.528  17.043  0.00  0.00    +0.000 A 
ATOM      9  N   UNL     1      -2.625  11.961  18.301  0.00  0.00    +0.000 N 
ENDROOT
BRANCH   2  10
ATOM     10  C   UNL     1      -2.633  13.493  21.589  0.00  0.00    +0.000 A 
ATOM     11  C   UNL     1      -2.773  12.808  22.802  0.00  0.00    +0.000 A 
ATOM     12  C   UNL     1      -2.577  13.459  24.021  0.00  0.00    +0.000 A 
ATOM     13  C   UNL     1      -2.198  14.797  24.035  0.00  0.00    +0.000 A 
ATOM     14 CL   UNL     1      -1.946  15.593  25.539  0.00  0.00    +0.000 Cl
ATOM     15  C   UNL     1      -2.012  15.487  22.840  0.00  0.00    +0.000 A 
ATOM     16  C   UNL     1      -2.230  14.837  21.621  0.00  0.00    +0.000 A 
ENDBRANCH   2  10
BRANCH   5  17
ATOM     17  N   UNL     1      -6.278  11.055  18.124  0.00  0.00    +0.000 N 
ATOM     18  O   UNL     1      -7.095  11.902  17.742  0.00  0.00    +0.000 OA
ATOM     19  O   UNL     1      -6.567  10.056  18.803  0.00  0.00    +0.000 OA
ENDBRANCH   5  17
BRANCH   1  20
ATOM     20  C   UNL     1      -0.401  12.625  19.343  0.00  0.00    +0.000 C 
BRANCH  20  22
ATOM     21  N   UNL     1       0.485  10.422  20.137  0.00  0.00    +0.000 N 
ATOM     22  C   UNL     1       0.250  11.770  20.434  0.00  0.00    +0.000 C 
ATOM     23  O   UNL     1       0.542  12.247  21.533  0.00  0.00    +0.000 OA
BRANCH  21  24
ATOM     24  C   UNL     1       1.069   9.576  21.189  0.00  0.00    +0.000 C 
BRANCH  24  26
ATOM     25  C   UNL     1      -0.330   9.493  23.342  0.00  0.00    +0.000 C 
ATOM     26  C   UNL     1       0.050   8.803  22.041  0.00  0.00    +0.000 C 
ENDBRANCH  24  26
ENDBRANCH  21  24
BRANCH  21  27
ATOM     27  C   UNL     1       0.404   9.854  18.784  0.00  0.00    +0.000 C 
BRANCH  27  28
ATOM     28  C   UNL     1       1.753   9.733  18.059  0.00  0.00    +0.000 C 
ATOM     29  C   UNL     1       2.248   8.307  17.875  0.00  0.00    +0.000 C 
ENDBRANCH  27  28
ENDBRANCH  21  27
ENDBRANCH  20  22
ENDBRANCH   1  20
TORSDOF 8
ENDMDL
