MODEL 1
REMARK VINA RESULT:      -8.6      0.000      0.000
REMARK  Name = 
REMARK  9 active torsions:
REMARK  status: ('A' for Active; 'I' for Inactive)
REMARK    1  A    between atoms: C_1  and  C_2
REMARK    2  A    between atoms: C_4  and  C_5
REMARK    3  A    between atoms: C_7  and  N_8
REMARK    4  A    between atoms: N_16  and  C_17
REMARK    5  A    between atoms: C_17  and  C_18
REMARK    6  A    between atoms: N_20  and  C_21
REMARK    7  A    between atoms: C_24  and  N_25
REMARK    8  A    between atoms: N_25  and  C_26
REMARK    9  A    between atoms: N_25  and  C_27
REMARK                            x       y       z     vdW  Elec       q    Type
REMARK                         _______ _______ _______ _____ _____    ______ ____
ROOT
ATOM      1  N   UNL     1       4.492   4.931  18.188  0.00  0.00    +0.000 N 
ATOM      2  C   UNL     1       4.283   4.334  16.930  0.00  0.00    +0.000 A 
ATOM      3  O   UNL     1       3.251   3.727  16.621  0.00  0.00    +0.000 OA
ATOM      4  C   UNL     1       5.383   4.516  16.032  0.00  0.00    +0.000 A 
ATOM      5  S   UNL     1       5.374   3.943  14.428  0.00  0.00    +0.000 S 
ATOM      6  C   UNL     1       6.948   4.556  14.150  0.00  0.00    +0.000 A 
ATOM      7  C   UNL     1       7.456   5.194  15.264  0.00  0.00    +0.000 A 
ATOM      8  C   UNL     1       6.553   5.152  16.367  0.00  0.00    +0.000 A 
ATOM      9  N   UNL     1       6.732   5.634  17.662  0.00  0.00    +0.000 N 
ATOM     10  C   UNL     1       5.710   5.506  18.614  0.00  0.00    +0.000 A 
ATOM     11  O   UNL     1       5.917   5.846  19.784  0.00  0.00    +0.000 OA
ENDROOT
BRANCH   1  18
ATOM     12  C   UNL     1       0.977   7.178  20.864  0.00  0.00    +0.000 C 
ATOM     13  C   UNL     1       1.740   5.938  20.502  0.00  0.00    +0.000 A 
ATOM     14  C   UNL     1       1.470   4.713  21.130  0.00  0.00    +0.000 A 
ATOM     15  C   UNL     1       2.172   3.553  20.776  0.00  0.00    +0.000 A 
ATOM     16  C   UNL     1       1.933   2.257  21.494  0.00  0.00    +0.000 C 
ATOM     17  C   UNL     1       3.138   3.620  19.763  0.00  0.00    +0.000 A 
ATOM     18  C   UNL     1       3.446   4.843  19.155  0.00  0.00    +0.000 A 
ATOM     19  C   UNL     1       2.748   5.998  19.533  0.00  0.00    +0.000 A 
ENDBRANCH   1  18
BRANCH   9  20
ATOM     20  C   UNL     1       7.991   6.236  18.110  0.00  0.00    +0.000 C 
BRANCH  20  21
ATOM     21  C   UNL     1       7.988   7.766  17.982  0.00  0.00    +0.000 C 
ATOM     22  O   UNL     1       7.346   8.323  17.093  0.00  0.00    +0.000 OA
ATOM     23  N   UNL     1       8.794   8.415  18.908  0.00  0.00    +0.000 N 
ATOM     24  H   UNL     1       9.429   7.848  19.459  0.00  0.00    +0.000 HD
BRANCH  23  25
ATOM     25  C   UNL     1       9.008   9.811  18.959  0.00  0.00    +0.000 A 
ATOM     26  C   UNL     1       8.914  10.648  17.852  0.00  0.00    +0.000 A 
ATOM     27  C   UNL     1       9.141  12.033  17.979  0.00  0.00    +0.000 A 
ATOM     28  C   UNL     1       9.503  12.629  19.199  0.00  0.00    +0.000 A 
ATOM     29  C   UNL     1       9.605  11.752  20.291  0.00  0.00    +0.000 A 
ATOM     30  C   UNL     1       9.329  10.378  20.189  0.00  0.00    +0.000 A 
BRANCH  28  31
ATOM     31  N   UNL     1       9.793  13.980  19.330  0.00  0.00    +0.000 N 
ATOM     32  C   UNL     1      10.393  14.736  18.230  0.00  0.00    +0.000 C 
ATOM     33  C   UNL     1       9.852  14.650  20.625  0.00  0.00    +0.000 C 
ENDBRANCH  28  31
ENDBRANCH  23  25
ENDBRANCH  20  21
ENDBRANCH   9  20
TORSDOF 5
ENDMDL
MODEL 2
REMARK VINA RESULT:      -8.4      0.260      1.860
REMARK  Name = 
REMARK  9 active torsions:
REMARK  status: ('A' for Active; 'I' for Inactive)
REMARK    1  A    between atoms: C_1  and  C_2
REMARK    2  A    between atoms: C_4  and  C_5
REMARK    3  A    between atoms: C_7  and  N_8
REMARK    4  A    between atoms: N_16  and  C_17
REMARK    5  A    between atoms: C_17  and  C_18
REMARK    6  A    between atoms: N_20  and  C_21
REMARK    7  A    between atoms: C_24  and  N_25
REMARK    8  A    between atoms: N_25  and  C_26
REMARK    9  A    between atoms: N_25  and  C_27
REMARK                            x       y       z     vdW  Elec       q    Type
REMARK                         _______ _______ _______ _____ _____    ______ ____
ROOT
ATOM      1  N   UNL     1       4.561   4.946  18.257  0.00  0.00    +0.000 N 
ATOM      2  C   UNL     1       4.316   4.350  17.005  0.00  0.00    +0.000 A 
ATOM      3  O   UNL     1       3.275   3.743  16.726  0.00  0.00    +0.000 OA
ATOM      4  C   UNL     1       5.390   4.531  16.077  0.00  0.00    +0.000 A 
ATOM      5  S   UNL     1       5.335   3.958  14.474  0.00  0.00    +0.000 S 
ATOM      6  C   UNL     1       6.900   4.570  14.151  0.00  0.00    +0.000 A 
ATOM      7  C   UNL     1       7.440   5.208  15.250  0.00  0.00    +0.000 A 
ATOM      8  C   UNL     1       6.569   5.166  16.378  0.00  0.00    +0.000 A 
ATOM      9  N   UNL     1       6.786   5.648  17.667  0.00  0.00    +0.000 N 
ATOM     10  C   UNL     1       5.791   5.521  18.648  0.00  0.00    +0.000 A 
ATOM     11  O   UNL     1       6.032   5.860  19.811  0.00  0.00    +0.000 OA
ENDROOT
BRANCH   1  18
ATOM     12  C   UNL     1       1.922   2.173  21.404  0.00  0.00    +0.000 C 
ATOM     13  C   UNL     1       2.215   3.504  20.778  0.00  0.00    +0.000 A 
ATOM     14  C   UNL     1       1.477   4.645  21.125  0.00  0.00    +0.000 A 
ATOM     15  C   UNL     1       1.766   5.891  20.553  0.00  0.00    +0.000 A 
ATOM     16  C   UNL     1       0.933   7.098  20.871  0.00  0.00    +0.000 C 
ATOM     17  C   UNL     1       2.824   5.995  19.640  0.00  0.00    +0.000 A 
ATOM     18  C   UNL     1       3.543   4.858  19.254  0.00  0.00    +0.000 A 
ATOM     19  C   UNL     1       3.230   3.616  19.823  0.00  0.00    +0.000 A 
ENDBRANCH   1  18
BRANCH   9  20
ATOM     20  C   UNL     1       8.057   6.249  18.079  0.00  0.00    +0.000 C 
BRANCH  20  21
ATOM     21  C   UNL     1       8.032   7.783  18.006  0.00  0.00    +0.000 C 
ATOM     22  O   UNL     1       7.381   8.361  17.138  0.00  0.00    +0.000 OA
ATOM     23  N   UNL     1       8.831   8.409  18.953  0.00  0.00    +0.000 N 
ATOM     24  H   UNL     1       9.475   7.832  19.483  0.00  0.00    +0.000 HD
BRANCH  23  25
ATOM     25  C   UNL     1       9.026   9.805  19.054  0.00  0.00    +0.000 A 
ATOM     26  C   UNL     1       9.280  10.465  20.253  0.00  0.00    +0.000 A 
ATOM     27  C   UNL     1       9.464  11.862  20.276  0.00  0.00    +0.000 A 
ATOM     28  C   UNL     1       9.367  12.655  19.121  0.00  0.00    +0.000 A 
ATOM     29  C   UNL     1       9.093  11.958  17.933  0.00  0.00    +0.000 A 
ATOM     30  C   UNL     1       8.961  10.560  17.887  0.00  0.00    +0.000 A 
BRANCH  28  31
ATOM     31  N   UNL     1       9.481  14.038  19.135  0.00  0.00    +0.000 N 
ATOM     32  C   UNL     1       8.721  14.851  20.084  0.00  0.00    +0.000 C 
ATOM     33  C   UNL     1      10.066  14.791  18.030  0.00  0.00    +0.000 C 
ENDBRANCH  28  31
ENDBRANCH  23  25
ENDBRANCH  20  21
ENDBRANCH   9  20
TORSDOF 5
ENDMDL
MODEL 3
REMARK VINA RESULT:      -8.4      0.152      1.534
REMARK  Name = 
REMARK  9 active torsions:
REMARK  status: ('A' for Active; 'I' for Inactive)
REMARK    1  A    between atoms: C_1  and  C_2
REMARK    2  A    between atoms: C_4  and  C_5
REMARK    3  A    between atoms: C_7  and  N_8
REMARK    4  A    between atoms: N_16  and  C_17
REMARK    5  A    between atoms: C_17  and  C_18
REMARK    6  A    between atoms: N_20  and  C_21
REMARK    7  A    between atoms: C_24  and  N_25
REMARK    8  A    between atoms: N_25  and  C_26
REMARK    9  A    between atoms: N_25  and  C_27
REMARK                            x       y       z     vdW  Elec       q    Type
REMARK                         _______ _______ _______ _____ _____    ______ ____
ROOT
ATOM      1  N   UNL     1       4.569   4.885  18.318  0.00  0.00    +0.000 N 
ATOM      2  C   UNL     1       4.330   4.287  17.065  0.00  0.00    +0.000 A 
ATOM      3  O   UNL     1       3.296   3.666  16.786  0.00  0.00    +0.000 OA
ATOM      4  C   UNL     1       5.400   4.483  16.135  0.00  0.00    +0.000 A 
ATOM      5  S   UNL     1       5.351   3.913  14.531  0.00  0.00    +0.000 S 
ATOM      6  C   UNL     1       6.908   4.546  14.208  0.00  0.00    +0.000 A 
ATOM      7  C   UNL     1       7.440   5.189  15.307  0.00  0.00    +0.000 A 
ATOM      8  C   UNL     1       6.571   5.134  16.436  0.00  0.00    +0.000 A 
ATOM      9  N   UNL     1       6.783   5.617  17.726  0.00  0.00    +0.000 N 
ATOM     10  C   UNL     1       5.791   5.475  18.707  0.00  0.00    +0.000 A 
ATOM     11  O   UNL     1       6.029   5.816  19.871  0.00  0.00    +0.000 OA
ENDROOT
BRANCH   1  18
ATOM     12  C   UNL     1       2.017   2.083  21.512  0.00  0.00    +0.000 C 
ATOM     13  C   UNL     1       2.267   3.412  20.863  0.00  0.00    +0.000 A 
ATOM     14  C   UNL     1       1.493   4.535  21.189  0.00  0.00    +0.000 A 
ATOM     15  C   UNL     1       1.742   5.779  20.596  0.00  0.00    +0.000 A 
ATOM     16  C   UNL     1       0.871   6.964  20.891  0.00  0.00    +0.000 C 
ATOM     17  C   UNL     1       2.797   5.901  19.681  0.00  0.00    +0.000 A 
ATOM     18  C   UNL     1       3.553   4.782  19.315  0.00  0.00    +0.000 A 
ATOM     19  C   UNL     1       3.280   3.540  19.906  0.00  0.00    +0.000 A 
ENDBRANCH   1  18
BRANCH   9  20
ATOM     20  C   UNL     1       8.047   6.235  18.137  0.00  0.00    +0.000 C 
BRANCH  20  21
ATOM     21  C   UNL     1       8.027   7.763  17.992  0.00  0.00    +0.000 C 
ATOM     22  O   UNL     1       7.394   8.302  17.086  0.00  0.00    +0.000 OA
ATOM     23  N   UNL     1       8.811   8.431  18.923  0.00  0.00    +0.000 N 
ATOM     24  H   UNL     1       9.443   7.878  19.490  0.00  0.00    +0.000 HD
BRANCH  23  25
ATOM     25  C   UNL     1       9.008   9.830  18.962  0.00  0.00    +0.000 A 
ATOM     26  C   UNL     1       8.907  10.656  17.846  0.00  0.00    +0.000 A 
ATOM     27  C   UNL     1       9.116  12.045  17.961  0.00  0.00    +0.000 A 
ATOM     28  C   UNL     1       9.467  12.657  19.177  0.00  0.00    +0.000 A 
ATOM     29  C   UNL     1       9.576  11.791  20.278  0.00  0.00    +0.000 A 
ATOM     30  C   UNL     1       9.317  10.413  20.187  0.00  0.00    +0.000 A 
BRANCH  28  31
ATOM     31  N   UNL     1       9.739  14.012  19.296  0.00  0.00    +0.000 N 
ATOM     32  C   UNL     1      10.619  14.694  18.346  0.00  0.00    +0.000 C 
ATOM     33  C   UNL     1       9.473  14.764  20.518  0.00  0.00    +0.000 C 
ENDBRANCH  28  31
ENDBRANCH  23  25
ENDBRANCH  20  21
ENDBRANCH   9  20
TORSDOF 5
ENDMDL
MODEL 4
REMARK VINA RESULT:      -7.8      6.693     10.620
REMARK  Name = 
REMARK  9 active torsions:
REMARK  status: ('A' for Active; 'I' for Inactive)
REMARK    1  A    between atoms: C_1  and  C_2
REMARK    2  A    between atoms: C_4  and  C_5
REMARK    3  A    between atoms: C_7  and  N_8
REMARK    4  A    between atoms: N_16  and  C_17
REMARK    5  A    between atoms: C_17  and  C_18
REMARK    6  A    between atoms: N_20  and  C_21
REMARK    7  A    between atoms: C_24  and  N_25
REMARK    8  A    between atoms: N_25  and  C_26
REMARK    9  A    between atoms: N_25  and  C_27
REMARK                            x       y       z     vdW  Elec       q    Type
REMARK                         _______ _______ _______ _____ _____    ______ ____
ROOT
ATOM      1  N   UNL     1      -2.297  12.387  20.745  0.00  0.00    +0.000 N 
ATOM      2  C   UNL     1      -3.210  12.059  19.724  0.00  0.00    +0.000 A 
ATOM      3  O   UNL     1      -4.401  12.395  19.733  0.00  0.00    +0.000 OA
ATOM      4  C   UNL     1      -2.616  11.309  18.659  0.00  0.00    +0.000 A 
ATOM      5  S   UNL     1      -3.479  10.827  17.272  0.00  0.00    +0.000 S 
ATOM      6  C   UNL     1      -2.097  10.056  16.621  0.00  0.00    +0.000 A 
ATOM      7  C   UNL     1      -1.000  10.182  17.450  0.00  0.00    +0.000 A 
ATOM      8  C   UNL     1      -1.308  10.892  18.647  0.00  0.00    +0.000 A 
ATOM      9  N   UNL     1      -0.485  11.168  19.737  0.00  0.00    +0.000 N 
ATOM     10  C   UNL     1      -0.974  11.900  20.828  0.00  0.00    +0.000 A 
ATOM     11  O   UNL     1      -0.267  12.051  21.830  0.00  0.00    +0.000 OA
ENDROOT
BRANCH   1  18
ATOM     12  C   UNL     1      -4.552  12.581  25.154  0.00  0.00    +0.000 C 
ATOM     13  C   UNL     1      -3.908  13.279  23.994  0.00  0.00    +0.000 A 
ATOM     14  C   UNL     1      -3.806  14.677  23.956  0.00  0.00    +0.000 A 
ATOM     15  C   UNL     1      -3.186  15.326  22.879  0.00  0.00    +0.000 A 
ATOM     16  C   UNL     1      -3.137  16.823  22.804  0.00  0.00    +0.000 C 
ATOM     17  C   UNL     1      -2.641  14.558  21.840  0.00  0.00    +0.000 A 
ATOM     18  C   UNL     1      -2.771  13.164  21.845  0.00  0.00    +0.000 A 
ATOM     19  C   UNL     1      -3.409  12.533  22.921  0.00  0.00    +0.000 A 
ENDBRANCH   1  18
BRANCH   9  20
ATOM     20  C   UNL     1       0.891  10.670  19.829  0.00  0.00    +0.000 C 
BRANCH  20  21
ATOM     21  C   UNL     1       0.952   9.150  20.038  0.00  0.00    +0.000 C 
ATOM     22  O   UNL     1       0.273   8.606  20.906  0.00  0.00    +0.000 OA
ATOM     23  N   UNL     1       1.857   8.500  19.209  0.00  0.00    +0.000 N 
ATOM     24  H   UNL     1       2.503   9.071  18.677  0.00  0.00    +0.000 HD
BRANCH  23  25
ATOM     25  C   UNL     1       2.142   7.116  19.249  0.00  0.00    +0.000 A 
ATOM     26  C   UNL     1       2.133   6.359  20.416  0.00  0.00    +0.000 A 
ATOM     27  C   UNL     1       2.427   4.980  20.378  0.00  0.00    +0.000 A 
ATOM     28  C   UNL     1       2.774   4.316  19.190  0.00  0.00    +0.000 A 
ATOM     29  C   UNL     1       2.789   5.115  18.035  0.00  0.00    +0.000 A 
ATOM     30  C   UNL     1       2.446   6.477  18.050  0.00  0.00    +0.000 A 
BRANCH  28  31
ATOM     31  N   UNL     1       3.129   2.975  19.144  0.00  0.00    +0.000 N 
ATOM     32  C   UNL     1       4.039   2.398  20.133  0.00  0.00    +0.000 C 
ATOM     33  C   UNL     1       2.921   2.146  17.960  0.00  0.00    +0.000 C 
ENDBRANCH  28  31
ENDBRANCH  23  25
ENDBRANCH  20  21
ENDBRANCH   9  20
TORSDOF 5
ENDMDL
MODEL 5
REMARK VINA RESULT:      -7.8      6.686     10.555
REMARK  Name = 
REMARK  9 active torsions:
REMARK  status: ('A' for Active; 'I' for Inactive)
REMARK    1  A    between atoms: C_1  and  C_2
REMARK    2  A    between atoms: C_4  and  C_5
REMARK    3  A    between atoms: C_7  and  N_8
REMARK    4  A    between atoms: N_16  and  C_17
REMARK    5  A    between atoms: C_17  and  C_18
REMARK    6  A    between atoms: N_20  and  C_21
REMARK    7  A    between atoms: C_24  and  N_25
REMARK    8  A    between atoms: N_25  and  C_26
REMARK    9  A    between atoms: N_25  and  C_27
REMARK                            x       y       z     vdW  Elec       q    Type
REMARK                         _______ _______ _______ _____ _____    ______ ____
ROOT
ATOM      1  N   UNL     1      -2.257  12.406  20.944  0.00  0.00    +0.000 N 
ATOM      2  C   UNL     1      -3.145  12.122  19.888  0.00  0.00    +0.000 A 
ATOM      3  O   UNL     1      -4.328  12.482  19.872  0.00  0.00    +0.000 OA
ATOM      4  C   UNL     1      -2.535  11.386  18.823  0.00  0.00    +0.000 A 
ATOM      5  S   UNL     1      -3.366  10.956  17.400  0.00  0.00    +0.000 S 
ATOM      6  C   UNL     1      -1.980  10.173  16.770  0.00  0.00    +0.000 A 
ATOM      7  C   UNL     1      -0.906  10.256  17.634  0.00  0.00    +0.000 A 
ATOM      8  C   UNL     1      -1.236  10.943  18.839  0.00  0.00    +0.000 A 
ATOM      9  N   UNL     1      -0.440  11.175  19.959  0.00  0.00    +0.000 N 
ATOM     10  C   UNL     1      -0.947  11.890  21.053  0.00  0.00    +0.000 A 
ATOM     11  O   UNL     1      -0.267  12.001  22.079  0.00  0.00    +0.000 OA
ENDROOT
BRANCH   1  18
ATOM     12  C   UNL     1      -2.570  16.749  23.309  0.00  0.00    +0.000 C 
ATOM     13  C   UNL     1      -2.880  15.284  23.240  0.00  0.00    +0.000 A 
ATOM     14  C   UNL     1      -3.601  14.647  24.260  0.00  0.00    +0.000 A 
ATOM     15  C   UNL     1      -3.906  13.281  24.183  0.00  0.00    +0.000 A 
ATOM     16  C   UNL     1      -4.616  12.584  25.305  0.00  0.00    +0.000 C 
ATOM     17  C   UNL     1      -3.501  12.553  23.056  0.00  0.00    +0.000 A 
ATOM     18  C   UNL     1      -2.747  13.165  22.048  0.00  0.00    +0.000 A 
ATOM     19  C   UNL     1      -2.436  14.528  22.149  0.00  0.00    +0.000 A 
ENDBRANCH   1  18
BRANCH   9  20
ATOM     20  C   UNL     1       0.922  10.646  20.078  0.00  0.00    +0.000 C 
BRANCH  20  21
ATOM     21  C   UNL     1       0.948   9.118  20.224  0.00  0.00    +0.000 C 
ATOM     22  O   UNL     1       0.223   8.551  21.040  0.00  0.00    +0.000 OA
ATOM     23  N   UNL     1       1.876   8.486  19.408  0.00  0.00    +0.000 N 
ATOM     24  H   UNL     1       2.555   9.066  18.928  0.00  0.00    +0.000 HD
BRANCH  23  25
ATOM     25  C   UNL     1       2.135   7.097  19.400  0.00  0.00    +0.000 A 
ATOM     26  C   UNL     1       2.077   6.294  20.535  0.00  0.00    +0.000 A 
ATOM     27  C   UNL     1       2.347   4.913  20.450  0.00  0.00    +0.000 A 
ATOM     28  C   UNL     1       2.720   4.289  19.248  0.00  0.00    +0.000 A 
ATOM     29  C   UNL     1       2.784   5.133  18.126  0.00  0.00    +0.000 A 
ATOM     30  C   UNL     1       2.465   6.500  18.186  0.00  0.00    +0.000 A 
BRANCH  28  31
ATOM     31  N   UNL     1       3.052   2.945  19.158  0.00  0.00    +0.000 N 
ATOM     32  C   UNL     1       4.081   2.360  20.018  0.00  0.00    +0.000 C 
ATOM     33  C   UNL     1       2.679   2.116  18.016  0.00  0.00    +0.000 C 
ENDBRANCH  28  31
ENDBRANCH  23  25
ENDBRANCH  20  21
ENDBRANCH   9  20
TORSDOF 5
ENDMDL
MODEL 6
REMARK VINA RESULT:      -7.8      6.815     10.762
REMARK  Name = 
REMARK  9 active torsions:
REMARK  status: ('A' for Active; 'I' for Inactive)
REMARK    1  A    between atoms: C_1  and  C_2
REMARK    2  A    between atoms: C_4  and  C_5
REMARK    3  A    between atoms: C_7  and  N_8
REMARK    4  A    between atoms: N_16  and  C_17
REMARK    5  A    between atoms: C_17  and  C_18
REMARK    6  A    between atoms: N_20  and  C_21
REMARK    7  A    between atoms: C_24  and  N_25
REMARK    8  A    between atoms: N_25  and  C_26
REMARK    9  A    between atoms: N_25  and  C_27
REMARK                            x       y       z     vdW  Elec       q    Type
REMARK                         _______ _______ _______ _____ _____    ______ ____
ROOT
ATOM      1  N   UNL     1      -1.810  12.693  21.874  0.00  0.00    +0.000 N 
ATOM      2  C   UNL     1      -1.433  13.272  20.646  0.00  0.00    +0.000 A 
ATOM      3  O   UNL     1      -2.051  14.198  20.106  0.00  0.00    +0.000 OA
ATOM      4  C   UNL     1      -0.248  12.692  20.092  0.00  0.00    +0.000 A 
ATOM      5  S   UNL     1       0.459  13.238  18.642  0.00  0.00    +0.000 S 
ATOM      6  C   UNL     1       1.705  12.070  18.753  0.00  0.00    +0.000 A 
ATOM      7  C   UNL     1       1.579  11.291  19.887  0.00  0.00    +0.000 A 
ATOM      8  C   UNL     1       0.430  11.639  20.654  0.00  0.00    +0.000 A 
ATOM      9  N   UNL     1      -0.054  11.049  21.820  0.00  0.00    +0.000 N 
ATOM     10  C   UNL     1      -1.208  11.549  22.442  0.00  0.00    +0.000 A 
ATOM     11  O   UNL     1      -1.684  10.955  23.416  0.00  0.00    +0.000 OA
ENDROOT
BRANCH   1  18
ATOM     12  C   UNL     1      -6.728  12.698  22.483  0.00  0.00    +0.000 C 
ATOM     13  C   UNL     1      -5.378  13.254  22.823  0.00  0.00    +0.000 A 
ATOM     14  C   UNL     1      -5.237  14.302  23.743  0.00  0.00    +0.000 A 
ATOM     15  C   UNL     1      -3.972  14.807  24.073  0.00  0.00    +0.000 A 
ATOM     16  C   UNL     1      -3.824  15.973  25.005  0.00  0.00    +0.000 C 
ATOM     17  C   UNL     1      -2.834  14.235  23.488  0.00  0.00    +0.000 A 
ATOM     18  C   UNL     1      -2.961  13.215  22.537  0.00  0.00    +0.000 A 
ATOM     19  C   UNL     1      -4.235  12.734  22.206  0.00  0.00    +0.000 A 
ENDBRANCH   1  18
BRANCH   9  20
ATOM     20  C   UNL     1       0.567   9.864  22.418  0.00  0.00    +0.000 C 
BRANCH  20  21
ATOM     21  C   UNL     1       0.505   8.639  21.495  0.00  0.00    +0.000 C 
ATOM     22  O   UNL     1      -0.575   8.137  21.187  0.00  0.00    +0.000 OA
ATOM     23  N   UNL     1       1.748   8.156  21.108  0.00  0.00    +0.000 N 
ATOM     24  H   UNL     1       2.565   8.524  21.582  0.00  0.00    +0.000 HD
BRANCH  23  25
ATOM     25  C   UNL     1       1.959   7.008  20.312  0.00  0.00    +0.000 A 
ATOM     26  C   UNL     1       1.700   5.710  20.744  0.00  0.00    +0.000 A 
ATOM     27  C   UNL     1       1.935   4.611  19.894  0.00  0.00    +0.000 A 
ATOM     28  C   UNL     1       2.468   4.758  18.602  0.00  0.00    +0.000 A 
ATOM     29  C   UNL     1       2.732   6.079  18.206  0.00  0.00    +0.000 A 
ATOM     30  C   UNL     1       2.452   7.187  19.023  0.00  0.00    +0.000 A 
BRANCH  28  31
ATOM     31  N   UNL     1       2.766   3.684  17.775  0.00  0.00    +0.000 N 
ATOM     32  C   UNL     1       2.171   2.367  18.001  0.00  0.00    +0.000 C 
ATOM     33  C   UNL     1       3.912   3.681  16.871  0.00  0.00    +0.000 C 
ENDBRANCH  28  31
ENDBRANCH  23  25
ENDBRANCH  20  21
ENDBRANCH   9  20
TORSDOF 5
ENDMDL
MODEL 7
REMARK VINA RESULT:      -7.7      7.360     11.363
REMARK  Name = 
REMARK  9 active torsions:
REMARK  status: ('A' for Active; 'I' for Inactive)
REMARK    1  A    between atoms: C_1  and  C_2
REMARK    2  A    between atoms: C_4  and  C_5
REMARK    3  A    between atoms: C_7  and  N_8
REMARK    4  A    between atoms: N_16  and  C_17
REMARK    5  A    between atoms: C_17  and  C_18
REMARK    6  A    between atoms: N_20  and  C_21
REMARK    7  A    between atoms: C_24  and  N_25
REMARK    8  A    between atoms: N_25  and  C_26
REMARK    9  A    between atoms: N_25  and  C_27
REMARK                            x       y       z     vdW  Elec       q    Type
REMARK                         _______ _______ _______ _____ _____    ______ ____
ROOT
ATOM      1  N   UNL     1       0.035  14.686  19.808  0.00  0.00    +0.000 N 
ATOM      2  C   UNL     1       0.000  14.897  21.200  0.00  0.00    +0.000 A 
ATOM      3  O   UNL     1       0.740  15.692  21.792  0.00  0.00    +0.000 OA
ATOM      4  C   UNL     1      -0.993  14.108  21.863  0.00  0.00    +0.000 A 
ATOM      5  S   UNL     1      -1.288  14.205  23.537  0.00  0.00    +0.000 S 
ATOM      6  C   UNL     1      -2.517  13.019  23.439  0.00  0.00    +0.000 A 
ATOM      7  C   UNL     1      -2.699  12.573  22.145  0.00  0.00    +0.000 A 
ATOM      8  C   UNL     1      -1.797  13.192  21.231  0.00  0.00    +0.000 A 
ATOM      9  N   UNL     1      -1.642  12.962  19.865  0.00  0.00    +0.000 N 
ATOM     10  C   UNL     1      -0.696  13.688  19.126  0.00  0.00    +0.000 A 
ATOM     11  O   UNL     1      -0.498  13.405  17.940  0.00  0.00    +0.000 OA
ENDROOT
BRANCH   1  18
ATOM     12  C   UNL     1       0.976  18.631  16.959  0.00  0.00    +0.000 C 
ATOM     13  C   UNL     1       1.435  17.359  17.607  0.00  0.00    +0.000 A 
ATOM     14  C   UNL     1       2.743  16.886  17.430  0.00  0.00    +0.000 A 
ATOM     15  C   UNL     1       3.174  15.707  18.052  0.00  0.00    +0.000 A 
ATOM     16  C   UNL     1       4.551  15.164  17.808  0.00  0.00    +0.000 C 
ATOM     17  C   UNL     1       2.287  15.008  18.881  0.00  0.00    +0.000 A 
ATOM     18  C   UNL     1       0.966  15.445  19.037  0.00  0.00    +0.000 A 
ATOM     19  C   UNL     1       0.546  16.617  18.393  0.00  0.00    +0.000 A 
ENDBRANCH   1  18
BRANCH   9  20
ATOM     20  C   UNL     1      -2.400  11.931  19.150  0.00  0.00    +0.000 C 
BRANCH  20  21
ATOM     21  C   UNL     1      -1.519  10.754  18.709  0.00  0.00    +0.000 C 
ATOM     22  O   UNL     1      -1.895   9.981  17.830  0.00  0.00    +0.000 OA
ATOM     23  N   UNL     1      -0.331  10.637  19.419  0.00  0.00    +0.000 N 
ATOM     24  H   UNL     1      -0.221  11.206  20.251  0.00  0.00    +0.000 HD
BRANCH  23  25
ATOM     25  C   UNL     1       0.619   9.605  19.245  0.00  0.00    +0.000 A 
ATOM     26  C   UNL     1       1.261   9.342  18.039  0.00  0.00    +0.000 A 
ATOM     27  C   UNL     1       2.199   8.294  17.941  0.00  0.00    +0.000 A 
ATOM     28  C   UNL     1       2.505   7.452  19.023  0.00  0.00    +0.000 A 
ATOM     29  C   UNL     1       1.826   7.737  20.219  0.00  0.00    +0.000 A 
ATOM     30  C   UNL     1       0.929   8.811  20.345  0.00  0.00    +0.000 A 
BRANCH  28  31
ATOM     31  N   UNL     1       3.377   6.376  18.927  0.00  0.00    +0.000 N 
ATOM     32  C   UNL     1       4.239   6.202  17.758  0.00  0.00    +0.000 C 
ATOM     33  C   UNL     1       3.263   5.193  19.774  0.00  0.00    +0.000 C 
ENDBRANCH  28  31
ENDBRANCH  23  25
ENDBRANCH  20  21
ENDBRANCH   9  20
TORSDOF 5
ENDMDL
MODEL 8
REMARK VINA RESULT:      -7.7      6.290     10.054
REMARK  Name = 
REMARK  9 active torsions:
REMARK  status: ('A' for Active; 'I' for Inactive)
REMARK    1  A    between atoms: C_1  and  C_2
REMARK    2  A    between atoms: C_4  and  C_5
REMARK    3  A    between atoms: C_7  and  N_8
REMARK    4  A    between atoms: N_16  and  C_17
REMARK    5  A    between atoms: C_17  and  C_18
REMARK    6  A    between atoms: N_20  and  C_21
REMARK    7  A    between atoms: C_24  and  N_25
REMARK    8  A    between atoms: N_25  and  C_26
REMARK    9  A    between atoms: N_25  and  C_27
REMARK                            x       y       z     vdW  Elec       q    Type
REMARK                         _______ _______ _______ _____ _____    ______ ____
ROOT
ATOM      1  N   UNL     1       2.033   8.161  19.126  0.00  0.00    +0.000 N 
ATOM      2  C   UNL     1       1.472   7.910  20.392  0.00  0.00    +0.000 A 
ATOM      3  O   UNL     1       1.473   6.798  20.935  0.00  0.00    +0.000 OA
ATOM      4  C   UNL     1       0.912   9.078  21.001  0.00  0.00    +0.000 A 
ATOM      5  S   UNL     1       0.216   9.070  22.555  0.00  0.00    +0.000 S 
ATOM      6  C   UNL     1      -0.151  10.739  22.452  0.00  0.00    +0.000 A 
ATOM      7  C   UNL     1       0.266  11.283  21.253  0.00  0.00    +0.000 A 
ATOM      8  C   UNL     1       0.865  10.311  20.400  0.00  0.00    +0.000 A 
ATOM      9  N   UNL     1       1.352  10.468  19.103  0.00  0.00    +0.000 N 
ATOM     10  C   UNL     1       1.923   9.382  18.425  0.00  0.00    +0.000 A 
ATOM     11  O   UNL     1       2.258   9.508  17.242  0.00  0.00    +0.000 OA
ENDROOT
BRANCH   1  18
ATOM     12  C   UNL     1       1.917   3.416  17.700  0.00  0.00    +0.000 C 
ATOM     13  C   UNL     1       2.626   4.736  17.760  0.00  0.00    +0.000 A 
ATOM     14  C   UNL     1       3.898   4.902  17.193  0.00  0.00    +0.000 A 
ATOM     15  C   UNL     1       4.549   6.142  17.235  0.00  0.00    +0.000 A 
ATOM     16  C   UNL     1       5.937   6.304  16.690  0.00  0.00    +0.000 C 
ATOM     17  C   UNL     1       3.904   7.233  17.832  0.00  0.00    +0.000 A 
ATOM     18  C   UNL     1       2.652   7.074  18.438  0.00  0.00    +0.000 A 
ATOM     19  C   UNL     1       2.022   5.823  18.402  0.00  0.00    +0.000 A 
ENDBRANCH   1  18
BRANCH   9  20
ATOM     20  C   UNL     1       1.245  11.733  18.371  0.00  0.00    +0.000 C 
BRANCH  20  21
ATOM     21  C   UNL     1      -0.197  12.258  18.312  0.00  0.00    +0.000 C 
ATOM     22  O   UNL     1      -0.449  13.434  18.565  0.00  0.00    +0.000 OA
ATOM     23  N   UNL     1      -1.141  11.287  18.008  0.00  0.00    +0.000 N 
ATOM     24  H   UNL     1      -0.843  10.318  18.018  0.00  0.00    +0.000 HD
BRANCH  23  25
ATOM     25  C   UNL     1      -2.537  11.503  17.954  0.00  0.00    +0.000 A 
ATOM     26  C   UNL     1      -3.305  11.309  16.810  0.00  0.00    +0.000 A 
ATOM     27  C   UNL     1      -4.695  11.545  16.831  0.00  0.00    +0.000 A 
ATOM     28  C   UNL     1      -5.362  12.015  17.974  0.00  0.00    +0.000 A 
ATOM     29  C   UNL     1      -4.553  12.216  19.105  0.00  0.00    +0.000 A 
ATOM     30  C   UNL     1      -3.177  11.933  19.113  0.00  0.00    +0.000 A 
BRANCH  28  31
ATOM     31  N   UNL     1      -6.717  12.314  17.996  0.00  0.00    +0.000 N 
ATOM     32  C   UNL     1      -7.304  13.238  17.025  0.00  0.00    +0.000 C 
ATOM     33  C   UNL     1      -7.569  12.028  19.146  0.00  0.00    +0.000 C 
ENDBRANCH  28  31
ENDBRANCH  23  25
ENDBRANCH  20  21
ENDBRANCH   9  20
TORSDOF 5
ENDMDL
MODEL 9
REMARK VINA RESULT:      -7.7      7.367     10.806
REMARK  Name = 
REMARK  9 active torsions:
REMARK  status: ('A' for Active; 'I' for Inactive)
REMARK    1  A    between atoms: C_1  and  C_2
REMARK    2  A    between atoms: C_4  and  C_5
REMARK    3  A    between atoms: C_7  and  N_8
REMARK    4  A    between atoms: N_16  and  C_17
REMARK    5  A    between atoms: C_17  and  C_18
REMARK    6  A    between atoms: N_20  and  C_21
REMARK    7  A    between atoms: C_24  and  N_25
REMARK    8  A    between atoms: N_25  and  C_26
REMARK    9  A    between atoms: N_25  and  C_27
REMARK                            x       y       z     vdW  Elec       q    Type
REMARK                         _______ _______ _______ _____ _____    ______ ____
ROOT
ATOM      1  N   UNL     1      -3.256  12.784  20.354  0.00  0.00    +0.000 N 
ATOM      2  C   UNL     1      -4.276  12.359  19.481  0.00  0.00    +0.000 A 
ATOM      3  O   UNL     1      -5.483  12.485  19.722  0.00  0.00    +0.000 OA
ATOM      4  C   UNL     1      -3.775  11.779  18.272  0.00  0.00    +0.000 A 
ATOM      5  S   UNL     1      -4.789  11.230  17.018  0.00  0.00    +0.000 S 
ATOM      6  C   UNL     1      -3.444  10.742  16.079  0.00  0.00    +0.000 A 
ATOM      7  C   UNL     1      -2.248  11.010  16.715  0.00  0.00    +0.000 A 
ATOM      8  C   UNL     1      -2.442  11.593  18.002  0.00  0.00    +0.000 A 
ATOM      9  N   UNL     1      -1.487  11.948  18.953  0.00  0.00    +0.000 N 
ATOM     10  C   UNL     1      -1.880  12.527  20.169  0.00  0.00    +0.000 A 
ATOM     11  O   UNL     1      -1.034  12.743  21.044  0.00  0.00    +0.000 OA
ENDROOT
BRANCH   1  18
ATOM     12  C   UNL     1      -4.601  12.359  25.105  0.00  0.00    +0.000 C 
ATOM     13  C   UNL     1      -4.334  13.215  23.903  0.00  0.00    +0.000 A 
ATOM     14  C   UNL     1      -4.497  14.607  23.955  0.00  0.00    +0.000 A 
ATOM     15  C   UNL     1      -4.228  15.406  22.836  0.00  0.00    +0.000 A 
ATOM     16  C   UNL     1      -4.468  16.886  22.868  0.00  0.00    +0.000 C 
ATOM     17  C   UNL     1      -3.768  14.801  21.658  0.00  0.00    +0.000 A 
ATOM     18  C   UNL     1      -3.638  13.409  21.579  0.00  0.00    +0.000 A 
ATOM     19  C   UNL     1      -3.928  12.623  22.702  0.00  0.00    +0.000 A 
ENDBRANCH   1  18
BRANCH   9  20
ATOM     20  C   UNL     1      -0.057  11.689  18.767  0.00  0.00    +0.000 C 
BRANCH  20  21
ATOM     21  C   UNL     1       0.329  10.245  19.118  0.00  0.00    +0.000 C 
ATOM     22  O   UNL     1      -0.304   9.611  19.961  0.00  0.00    +0.000 OA
ATOM     23  N   UNL     1       1.450   9.778  18.446  0.00  0.00    +0.000 N 
ATOM     24  H   UNL     1       2.005  10.451  17.930  0.00  0.00    +0.000 HD
BRANCH  23  25
ATOM     25  C   UNL     1       2.040   8.508  18.638  0.00  0.00    +0.000 A 
ATOM     26  C   UNL     1       2.820   7.866  17.682  0.00  0.00    +0.000 A 
ATOM     27  C   UNL     1       3.377   6.598  17.946  0.00  0.00    +0.000 A 
ATOM     28  C   UNL     1       3.150   5.909  19.149  0.00  0.00    +0.000 A 
ATOM     29  C   UNL     1       2.345   6.580  20.084  0.00  0.00    +0.000 A 
ATOM     30  C   UNL     1       1.828   7.866  19.856  0.00  0.00    +0.000 A 
BRANCH  28  31
ATOM     31  N   UNL     1       3.637   4.634  19.400  0.00  0.00    +0.000 N 
ATOM     32  C   UNL     1       2.886   3.685  20.222  0.00  0.00    +0.000 C 
ATOM     33  C   UNL     1       5.031   4.265  19.175  0.00  0.00    +0.000 C 
ENDBRANCH  28  31
ENDBRANCH  23  25
ENDBRANCH  20  21
ENDBRANCH   9  20
TORSDOF 5
ENDMDL
