MODEL 1
REMARK VINA RESULT:      -8.4      0.000      0.000
REMARK  Name = 
REMARK  6 active torsions:
REMARK  status: ('A' for Active; 'I' for Inactive)
REMARK    1  A    between atoms: C_6  and  C_7
REMARK    2  A    between atoms: C_6  and  C_8
REMARK    3  A    between atoms: C_12  and  C_13
REMARK    4  A    between atoms: C_14  and  C_15
REMARK    5  A    between atoms: C_15  and  C_16
REMARK    6  A    between atoms: C_16  and  C_17
REMARK                            x       y       z     vdW  Elec       q    Type
REMARK                         _______ _______ _______ _____ _____    ______ ____
ROOT
ATOM      1  C   UNL     1       1.998   7.935  17.896  0.00  0.00    +0.000 C 
ATOM      2  C   UNL     1       2.789   7.025  18.489  0.00  0.00    +0.000 C 
ATOM      3  C   UNL     1       2.785   6.880  19.980  0.00  0.00    +0.000 C 
ATOM      4  C   UNL     1       2.046   5.581  20.282  0.00  0.00    +0.000 C 
ATOM      5  C   UNL     1       2.702   4.368  19.569  0.00  0.00    +0.000 C 
ATOM      6  C   UNL     1       2.126   2.990  20.033  0.00  0.00    +0.000 C 
ATOM      7  C   UNL     1       2.310   2.838  21.568  0.00  0.00    +0.000 C 
ATOM      8  C   UNL     1       0.620   2.819  19.762  0.00  0.00    +0.000 C 
ATOM      9  C   UNL     1       2.943   1.858  19.365  0.00  0.00    +0.000 C 
ATOM     10  C   UNL     1       3.134   2.012  17.857  0.00  0.00    +0.000 C 
ATOM     11  C   UNL     1       3.722   3.375  17.470  0.00  0.00    +0.000 C 
ATOM     12  C   UNL     1       2.884   4.568  17.996  0.00  0.00    +0.000 C 
ATOM     13  C   UNL     1       1.565   4.625  17.185  0.00  0.00    +0.000 C 
ATOM     14  C   UNL     1       3.643   5.941  17.812  0.00  0.00    +0.000 C 
ENDROOT
BRANCH  14  15
ATOM     15  C   UNL     1       4.227   6.327  16.418  0.00  0.00    +0.000 C 
BRANCH  15  16
ATOM     16  C   UNL     1       5.714   5.936  16.404  0.00  0.00    +0.000 C 
BRANCH  16  17
ATOM     17  C   UNL     1       6.597   5.945  17.593  0.00  0.00    +0.000 C 
ATOM     18  C   UNL     1       6.741   5.136  18.636  0.00  0.00    +0.000 C 
ATOM     19  C   UNL     1       7.777   5.748  19.483  0.00  0.00    +0.000 C 
ATOM     20  O   UNL     1       8.151   5.295  20.551  0.00  0.00    +0.000 OA
ATOM     21  O   UNL     1       8.236   6.885  18.902  0.00  0.00    +0.000 OA
ATOM     22  C   UNL     1       7.540   7.087  17.687  0.00  0.00    +0.000 C 
ENDBRANCH  16  17
ENDBRANCH  15  16
ENDBRANCH  14  15
TORSDOF 3
ENDMDL
MODEL 2
REMARK VINA RESULT:      -8.0      0.859      1.495
REMARK  Name = 
REMARK  6 active torsions:
REMARK  status: ('A' for Active; 'I' for Inactive)
REMARK    1  A    between atoms: C_6  and  C_7
REMARK    2  A    between atoms: C_6  and  C_8
REMARK    3  A    between atoms: C_12  and  C_13
REMARK    4  A    between atoms: C_14  and  C_15
REMARK    5  A    between atoms: C_15  and  C_16
REMARK    6  A    between atoms: C_16  and  C_17
REMARK                            x       y       z     vdW  Elec       q    Type
REMARK                         _______ _______ _______ _____ _____    ______ ____
ROOT
ATOM      1  C   UNL     1       1.947   7.982  17.881  0.00  0.00    +0.000 C 
ATOM      2  C   UNL     1       2.720   7.137  18.584  0.00  0.00    +0.000 C 
ATOM      3  C   UNL     1       2.582   7.052  20.073  0.00  0.00    +0.000 C 
ATOM      4  C   UNL     1       1.878   5.731  20.364  0.00  0.00    +0.000 C 
ATOM      5  C   UNL     1       2.652   4.524  19.769  0.00  0.00    +0.000 C 
ATOM      6  C   UNL     1       2.098   3.140  20.240  0.00  0.00    +0.000 C 
ATOM      7  C   UNL     1       2.144   3.058  21.790  0.00  0.00    +0.000 C 
ATOM      8  C   UNL     1       0.634   2.883  19.840  0.00  0.00    +0.000 C 
ATOM      9  C   UNL     1       3.026   2.023  19.701  0.00  0.00    +0.000 C 
ATOM     10  C   UNL     1       3.349   2.126  18.212  0.00  0.00    +0.000 C 
ATOM     11  C   UNL     1       3.908   3.499  17.819  0.00  0.00    +0.000 C 
ATOM     12  C   UNL     1       2.971   4.669  18.212  0.00  0.00    +0.000 C 
ATOM     13  C   UNL     1       1.733   4.628  17.282  0.00  0.00    +0.000 C 
ATOM     14  C   UNL     1       3.681   6.070  18.037  0.00  0.00    +0.000 C 
ENDROOT
BRANCH  14  15
ATOM     15  C   UNL     1       4.375   6.427  16.687  0.00  0.00    +0.000 C 
BRANCH  15  16
ATOM     16  C   UNL     1       5.873   6.108  16.826  0.00  0.00    +0.000 C 
BRANCH  16  17
ATOM     17  C   UNL     1       6.865   6.995  17.476  0.00  0.00    +0.000 C 
ATOM     18  C   UNL     1       7.186   8.276  17.329  0.00  0.00    +0.000 C 
ATOM     19  C   UNL     1       8.295   8.524  18.263  0.00  0.00    +0.000 C 
ATOM     20  O   UNL     1       8.872   9.591  18.381  0.00  0.00    +0.000 OA
ATOM     21  O   UNL     1       8.578   7.392  18.956  0.00  0.00    +0.000 OA
ATOM     22  C   UNL     1       7.710   6.364  18.519  0.00  0.00    +0.000 C 
ENDBRANCH  16  17
ENDBRANCH  15  16
ENDBRANCH  14  15
TORSDOF 3
ENDMDL
MODEL 3
REMARK VINA RESULT:      -7.6      2.040      2.591
REMARK  Name = 
REMARK  6 active torsions:
REMARK  status: ('A' for Active; 'I' for Inactive)
REMARK    1  A    between atoms: C_6  and  C_7
REMARK    2  A    between atoms: C_6  and  C_8
REMARK    3  A    between atoms: C_12  and  C_13
REMARK    4  A    between atoms: C_14  and  C_15
REMARK    5  A    between atoms: C_15  and  C_16
REMARK    6  A    between atoms: C_16  and  C_17
REMARK                            x       y       z     vdW  Elec       q    Type
REMARK                         _______ _______ _______ _____ _____    ______ ____
ROOT
ATOM      1  C   UNL     1       1.425   8.217  18.412  0.00  0.00    +0.000 C 
ATOM      2  C   UNL     1       2.286   7.390  19.030  0.00  0.00    +0.000 C 
ATOM      3  C   UNL     1       2.181   7.159  20.506  0.00  0.00    +0.000 C 
ATOM      4  C   UNL     1       1.611   5.756  20.680  0.00  0.00    +0.000 C 
ATOM      5  C   UNL     1       2.488   4.687  19.973  0.00  0.00    +0.000 C 
ATOM      6  C   UNL     1       2.077   3.220  20.319  0.00  0.00    +0.000 C 
ATOM      7  C   UNL     1       2.155   3.004  21.855  0.00  0.00    +0.000 C 
ATOM      8  C   UNL     1       0.638   2.859  19.908  0.00  0.00    +0.000 C 
ATOM      9  C   UNL     1       3.098   2.251  19.674  0.00  0.00    +0.000 C 
ATOM     10  C   UNL     1       3.387   2.518  18.198  0.00  0.00    +0.000 C 
ATOM     11  C   UNL     1       3.806   3.968  17.929  0.00  0.00    +0.000 C 
ATOM     12  C   UNL     1       2.767   5.003  18.433  0.00  0.00    +0.000 C 
ATOM     13  C   UNL     1       1.525   4.926  17.511  0.00  0.00    +0.000 C 
ATOM     14  C   UNL     1       3.337   6.475  18.382  0.00  0.00    +0.000 C 
ENDROOT
BRANCH  14  15
ATOM     15  C   UNL     1       3.972   7.019  17.065  0.00  0.00    +0.000 C 
BRANCH  15  16
ATOM     16  C   UNL     1       5.419   6.502  16.990  0.00  0.00    +0.000 C 
BRANCH  16  17
ATOM     17  C   UNL     1       5.956   5.663  15.895  0.00  0.00    +0.000 C 
ATOM     18  C   UNL     1       5.416   5.099  14.820  0.00  0.00    +0.000 C 
ATOM     19  C   UNL     1       6.504   4.359  14.162  0.00  0.00    +0.000 C 
ATOM     20  O   UNL     1       6.369   3.687  13.153  0.00  0.00    +0.000 OA
ATOM     21  O   UNL     1       7.662   4.531  14.848  0.00  0.00    +0.000 OA
ATOM     22  C   UNL     1       7.405   5.354  15.970  0.00  0.00    +0.000 C 
ENDBRANCH  16  17
ENDBRANCH  15  16
ENDBRANCH  14  15
TORSDOF 3
ENDMDL
MODEL 4
REMARK VINA RESULT:      -7.3      2.836      3.680
REMARK  Name = 
REMARK  6 active torsions:
REMARK  status: ('A' for Active; 'I' for Inactive)
REMARK    1  A    between atoms: C_6  and  C_7
REMARK    2  A    between atoms: C_6  and  C_8
REMARK    3  A    between atoms: C_12  and  C_13
REMARK    4  A    between atoms: C_14  and  C_15
REMARK    5  A    between atoms: C_15  and  C_16
REMARK    6  A    between atoms: C_16  and  C_17
REMARK                            x       y       z     vdW  Elec       q    Type
REMARK                         _______ _______ _______ _____ _____    ______ ____
ROOT
ATOM      1  C   UNL     1       4.723   6.701  17.185  0.00  0.00    +0.000 C 
ATOM      2  C   UNL     1       4.721   5.498  17.784  0.00  0.00    +0.000 C 
ATOM      3  C   UNL     1       5.155   5.366  19.211  0.00  0.00    +0.000 C 
ATOM      4  C   UNL     1       3.888   5.126  20.024  0.00  0.00    +0.000 C 
ATOM      5  C   UNL     1       3.110   3.880  19.522  0.00  0.00    +0.000 C 
ATOM      6  C   UNL     1       1.937   3.459  20.466  0.00  0.00    +0.000 C 
ATOM      7  C   UNL     1       2.489   3.174  21.890  0.00  0.00    +0.000 C 
ATOM      8  C   UNL     1       0.852   4.539  20.636  0.00  0.00    +0.000 C 
ATOM      9  C   UNL     1       1.327   2.136  19.944  0.00  0.00    +0.000 C 
ATOM     10  C   UNL     1       1.000   2.129  18.452  0.00  0.00    +0.000 C 
ATOM     11  C   UNL     1       2.196   2.528  17.580  0.00  0.00    +0.000 C 
ATOM     12  C   UNL     1       2.787   3.910  17.959  0.00  0.00    +0.000 C 
ATOM     13  C   UNL     1       1.781   5.002  17.517  0.00  0.00    +0.000 C 
ATOM     14  C   UNL     1       4.164   4.176  17.231  0.00  0.00    +0.000 C 
ENDROOT
BRANCH  14  15
ATOM     15  C   UNL     1       4.273   4.002  15.684  0.00  0.00    +0.000 C 
BRANCH  15  16
ATOM     16  C   UNL     1       5.725   3.618  15.354  0.00  0.00    +0.000 C 
BRANCH  16  17
ATOM     17  C   UNL     1       6.528   4.222  14.266  0.00  0.00    +0.000 C 
ATOM     18  C   UNL     1       7.370   5.247  14.207  0.00  0.00    +0.000 C 
ATOM     19  C   UNL     1       7.798   5.338  12.802  0.00  0.00    +0.000 C 
ATOM     20  O   UNL     1       8.553   6.190  12.366  0.00  0.00    +0.000 OA
ATOM     21  O   UNL     1       7.221   4.347  12.077  0.00  0.00    +0.000 OA
ATOM     22  C   UNL     1       6.394   3.582  12.934  0.00  0.00    +0.000 C 
ENDBRANCH  16  17
ENDBRANCH  15  16
ENDBRANCH  14  15
TORSDOF 3
ENDMDL
MODEL 5
REMARK VINA RESULT:      -7.3      0.984      1.514
REMARK  Name = 
REMARK  6 active torsions:
REMARK  status: ('A' for Active; 'I' for Inactive)
REMARK    1  A    between atoms: C_6  and  C_7
REMARK    2  A    between atoms: C_6  and  C_8
REMARK    3  A    between atoms: C_12  and  C_13
REMARK    4  A    between atoms: C_14  and  C_15
REMARK    5  A    between atoms: C_15  and  C_16
REMARK    6  A    between atoms: C_16  and  C_17
REMARK                            x       y       z     vdW  Elec       q    Type
REMARK                         _______ _______ _______ _____ _____    ______ ____
ROOT
ATOM      1  C   UNL     1       3.257   7.316  17.119  0.00  0.00    +0.000 C 
ATOM      2  C   UNL     1       3.766   6.391  17.949  0.00  0.00    +0.000 C 
ATOM      3  C   UNL     1       3.721   6.602  19.431  0.00  0.00    +0.000 C 
ATOM      4  C   UNL     1       2.652   5.655  19.966  0.00  0.00    +0.000 C 
ATOM      5  C   UNL     1       2.948   4.180  19.586  0.00  0.00    +0.000 C 
ATOM      6  C   UNL     1       2.014   3.154  20.307  0.00  0.00    +0.000 C 
ATOM      7  C   UNL     1       2.148   3.318  21.846  0.00  0.00    +0.000 C 
ATOM      8  C   UNL     1       0.520   3.335  19.985  0.00  0.00    +0.000 C 
ATOM      9  C   UNL     1       2.488   1.721  19.962  0.00  0.00    +0.000 C 
ATOM     10  C   UNL     1       2.714   1.465  18.473  0.00  0.00    +0.000 C 
ATOM     11  C   UNL     1       3.655   2.491  17.831  0.00  0.00    +0.000 C 
ATOM     12  C   UNL     1       3.179   3.953  18.022  0.00  0.00    +0.000 C 
ATOM     13  C   UNL     1       1.928   4.172  17.136  0.00  0.00    +0.000 C 
ATOM     14  C   UNL     1       4.287   4.991  17.586  0.00  0.00    +0.000 C 
ENDROOT
BRANCH  14  15
ATOM     15  C   UNL     1       4.956   4.872  16.182  0.00  0.00    +0.000 C 
BRANCH  15  16
ATOM     16  C   UNL     1       6.477   5.003  16.370  0.00  0.00    +0.000 C 
BRANCH  16  17
ATOM     17  C   UNL     1       7.135   6.043  17.194  0.00  0.00    +0.000 C 
ATOM     18  C   UNL     1       7.334   7.347  17.039  0.00  0.00    +0.000 C 
ATOM     19  C   UNL     1       8.098   7.782  18.219  0.00  0.00    +0.000 C 
ATOM     20  O   UNL     1       8.491   8.921  18.404  0.00  0.00    +0.000 OA
ATOM     21  O   UNL     1       8.303   6.730  19.051  0.00  0.00    +0.000 OA
ATOM     22  C   UNL     1       7.718   5.577  18.476  0.00  0.00    +0.000 C 
ENDBRANCH  16  17
ENDBRANCH  15  16
ENDBRANCH  14  15
TORSDOF 3
ENDMDL
MODEL 6
REMARK VINA RESULT:      -7.2      3.789      6.137
REMARK  Name = 
REMARK  6 active torsions:
REMARK  status: ('A' for Active; 'I' for Inactive)
REMARK    1  A    between atoms: C_6  and  C_7
REMARK    2  A    between atoms: C_6  and  C_8
REMARK    3  A    between atoms: C_12  and  C_13
REMARK    4  A    between atoms: C_14  and  C_15
REMARK    5  A    between atoms: C_15  and  C_16
REMARK    6  A    between atoms: C_16  and  C_17
REMARK                            x       y       z     vdW  Elec       q    Type
REMARK                         _______ _______ _______ _____ _____    ______ ____
ROOT
ATOM      1  C   UNL     1       1.159   3.113  20.557  0.00  0.00    +0.000 C 
ATOM      2  C   UNL     1       2.263   3.878  20.557  0.00  0.00    +0.000 C 
ATOM      3  C   UNL     1       3.614   3.252  20.714  0.00  0.00    +0.000 C 
ATOM      4  C   UNL     1       4.276   3.312  19.342  0.00  0.00    +0.000 C 
ATOM      5  C   UNL     1       4.355   4.766  18.805  0.00  0.00    +0.000 C 
ATOM      6  C   UNL     1       5.231   4.905  17.517  0.00  0.00    +0.000 C 
ATOM      7  C   UNL     1       6.668   4.392  17.805  0.00  0.00    +0.000 C 
ATOM      8  C   UNL     1       4.715   4.087  16.319  0.00  0.00    +0.000 C 
ATOM      9  C   UNL     1       5.351   6.405  17.156  0.00  0.00    +0.000 C 
ATOM     10  C   UNL     1       4.025   7.164  17.130  0.00  0.00    +0.000 C 
ATOM     11  C   UNL     1       3.225   7.005  18.428  0.00  0.00    +0.000 C 
ATOM     12  C   UNL     1       2.950   5.524  18.794  0.00  0.00    +0.000 C 
ATOM     13  C   UNL     1       1.911   4.965  17.790  0.00  0.00    +0.000 C 
ATOM     14  C   UNL     1       2.362   5.382  20.253  0.00  0.00    +0.000 C 
ENDROOT
BRANCH  14  15
ATOM     15  C   UNL     1       1.125   6.231  20.680  0.00  0.00    +0.000 C 
BRANCH  15  16
ATOM     16  C   UNL     1       1.595   7.682  20.880  0.00  0.00    +0.000 C 
BRANCH  16  17
ATOM     17  C   UNL     1       0.750   8.772  21.421  0.00  0.00    +0.000 C 
ATOM     18  C   UNL     1       0.383   9.127  22.647  0.00  0.00    +0.000 C 
ATOM     19  C   UNL     1      -0.504  10.289  22.482  0.00  0.00    +0.000 C 
ATOM     20  O   UNL     1      -1.061  10.867  23.401  0.00  0.00    +0.000 OA
ATOM     21  O   UNL     1      -0.612  10.606  21.168  0.00  0.00    +0.000 OA
ATOM     22  C   UNL     1       0.161   9.690  20.416  0.00  0.00    +0.000 C 
ENDBRANCH  16  17
ENDBRANCH  15  16
ENDBRANCH  14  15
TORSDOF 3
ENDMDL
MODEL 7
REMARK VINA RESULT:      -7.2      3.902      5.188
REMARK  Name = 
REMARK  6 active torsions:
REMARK  status: ('A' for Active; 'I' for Inactive)
REMARK    1  A    between atoms: C_6  and  C_7
REMARK    2  A    between atoms: C_6  and  C_8
REMARK    3  A    between atoms: C_12  and  C_13
REMARK    4  A    between atoms: C_14  and  C_15
REMARK    5  A    between atoms: C_15  and  C_16
REMARK    6  A    between atoms: C_16  and  C_17
REMARK                            x       y       z     vdW  Elec       q    Type
REMARK                         _______ _______ _______ _____ _____    ______ ____
ROOT
ATOM      1  C   UNL     1       7.323   6.983  17.224  0.00  0.00    +0.000 C 
ATOM      2  C   UNL     1       6.939   5.698  17.296  0.00  0.00    +0.000 C 
ATOM      3  C   UNL     1       7.382   4.842  18.443  0.00  0.00    +0.000 C 
ATOM      4  C   UNL     1       6.160   4.654  19.334  0.00  0.00    +0.000 C 
ATOM      5  C   UNL     1       4.969   4.032  18.555  0.00  0.00    +0.000 C 
ATOM      6  C   UNL     1       3.780   3.605  19.475  0.00  0.00    +0.000 C 
ATOM      7  C   UNL     1       4.280   2.586  20.535  0.00  0.00    +0.000 C 
ATOM      8  C   UNL     1       3.149   4.768  20.262  0.00  0.00    +0.000 C 
ATOM      9  C   UNL     1       2.720   2.877  18.613  0.00  0.00    +0.000 C 
ATOM     10  C   UNL     1       2.325   3.611  17.333  0.00  0.00    +0.000 C 
ATOM     11  C   UNL     1       3.533   3.982  16.465  0.00  0.00    +0.000 C 
ATOM     12  C   UNL     1       4.588   4.827  17.224  0.00  0.00    +0.000 C 
ATOM     13  C   UNL     1       3.999   6.242  17.450  0.00  0.00    +0.000 C 
ATOM     14  C   UNL     1       5.926   4.970  16.397  0.00  0.00    +0.000 C 
ENDROOT
BRANCH  14  15
ATOM     15  C   UNL     1       5.879   5.458  14.917  0.00  0.00    +0.000 C 
BRANCH  15  16
ATOM     16  C   UNL     1       6.439   4.332  14.030  0.00  0.00    +0.000 C 
BRANCH  16  17
ATOM     17  C   UNL     1       5.710   3.710  12.901  0.00  0.00    +0.000 C 
ATOM     18  C   UNL     1       4.525   3.927  12.342  0.00  0.00    +0.000 C 
ATOM     19  C   UNL     1       4.392   2.924  11.274  0.00  0.00    +0.000 C 
ATOM     20  O   UNL     1       3.409   2.800  10.564  0.00  0.00    +0.000 OA
ATOM     21  O   UNL     1       5.513   2.162  11.213  0.00  0.00    +0.000 OA
ATOM     22  C   UNL     1       6.412   2.598  12.215  0.00  0.00    +0.000 C 
ENDBRANCH  16  17
ENDBRANCH  15  16
ENDBRANCH  14  15
TORSDOF 3
ENDMDL
MODEL 8
REMARK VINA RESULT:      -7.1      3.256      5.821
REMARK  Name = 
REMARK  6 active torsions:
REMARK  status: ('A' for Active; 'I' for Inactive)
REMARK    1  A    between atoms: C_6  and  C_7
REMARK    2  A    between atoms: C_6  and  C_8
REMARK    3  A    between atoms: C_12  and  C_13
REMARK    4  A    between atoms: C_14  and  C_15
REMARK    5  A    between atoms: C_15  and  C_16
REMARK    6  A    between atoms: C_16  and  C_17
REMARK                            x       y       z     vdW  Elec       q    Type
REMARK                         _______ _______ _______ _____ _____    ______ ____
ROOT
ATOM      1  C   UNL     1       1.165   2.877  20.262  0.00  0.00    +0.000 C 
ATOM      2  C   UNL     1       2.243   3.676  20.328  0.00  0.00    +0.000 C 
ATOM      3  C   UNL     1       3.608   3.088  20.512  0.00  0.00    +0.000 C 
ATOM      4  C   UNL     1       4.315   3.217  19.167  0.00  0.00    +0.000 C 
ATOM      5  C   UNL     1       4.365   4.691  18.683  0.00  0.00    +0.000 C 
ATOM      6  C   UNL     1       5.279   4.902  17.433  0.00  0.00    +0.000 C 
ATOM      7  C   UNL     1       6.722   4.425  17.754  0.00  0.00    +0.000 C 
ATOM      8  C   UNL     1       4.833   4.111  16.190  0.00  0.00    +0.000 C 
ATOM      9  C   UNL     1       5.362   6.418  17.127  0.00  0.00    +0.000 C 
ATOM     10  C   UNL     1       4.014   7.134  17.079  0.00  0.00    +0.000 C 
ATOM     11  C   UNL     1       3.175   6.905  18.342  0.00  0.00    +0.000 C 
ATOM     12  C   UNL     1       2.937   5.404  18.647  0.00  0.00    +0.000 C 
ATOM     13  C   UNL     1       1.952   4.848  17.589  0.00  0.00    +0.000 C 
ATOM     14  C   UNL     1       2.303   5.192  20.079  0.00  0.00    +0.000 C 
ENDROOT
BRANCH  14  15
ATOM     15  C   UNL     1       1.025   5.986  20.490  0.00  0.00    +0.000 C 
BRANCH  15  16
ATOM     16  C   UNL     1       1.464   7.157  21.385  0.00  0.00    +0.000 C 
BRANCH  16  17
ATOM     17  C   UNL     1       1.141   8.579  21.128  0.00  0.00    +0.000 C 
ATOM     18  C   UNL     1       0.915   9.285  20.025  0.00  0.00    +0.000 C 
ATOM     19  C   UNL     1       0.690  10.669  20.470  0.00  0.00    +0.000 C 
ATOM     20  O   UNL     1       0.482  11.608  19.721  0.00  0.00    +0.000 OA
ATOM     21  O   UNL     1       0.758  10.736  21.823  0.00  0.00    +0.000 OA
ATOM     22  C   UNL     1       1.040   9.445  22.328  0.00  0.00    +0.000 C 
ENDBRANCH  16  17
ENDBRANCH  15  16
ENDBRANCH  14  15
TORSDOF 3
ENDMDL
MODEL 9
REMARK VINA RESULT:      -7.0      3.270      5.242
REMARK  Name = 
REMARK  6 active torsions:
REMARK  status: ('A' for Active; 'I' for Inactive)
REMARK    1  A    between atoms: C_6  and  C_7
REMARK    2  A    between atoms: C_6  and  C_8
REMARK    3  A    between atoms: C_12  and  C_13
REMARK    4  A    between atoms: C_14  and  C_15
REMARK    5  A    between atoms: C_15  and  C_16
REMARK    6  A    between atoms: C_16  and  C_17
REMARK                            x       y       z     vdW  Elec       q    Type
REMARK                         _______ _______ _______ _____ _____    ______ ____
ROOT
ATOM      1  C   UNL     1       6.095   6.743  16.829  0.00  0.00    +0.000 C 
ATOM      2  C   UNL     1       4.876   6.184  16.761  0.00  0.00    +0.000 C 
ATOM      3  C   UNL     1       4.658   4.947  15.946  0.00  0.00    +0.000 C 
ATOM      4  C   UNL     1       4.491   3.803  16.940  0.00  0.00    +0.000 C 
ATOM      5  C   UNL     1       3.330   4.070  17.935  0.00  0.00    +0.000 C 
ATOM      6  C   UNL     1       2.971   2.830  18.816  0.00  0.00    +0.000 C 
ATOM      7  C   UNL     1       2.591   1.632  17.903  0.00  0.00    +0.000 C 
ATOM      8  C   UNL     1       4.126   2.340  19.708  0.00  0.00    +0.000 C 
ATOM      9  C   UNL     1       1.719   3.166  19.663  0.00  0.00    +0.000 C 
ATOM     10  C   UNL     1       1.792   4.498  20.407  0.00  0.00    +0.000 C 
ATOM     11  C   UNL     1       2.126   5.676  19.484  0.00  0.00    +0.000 C 
ATOM     12  C   UNL     1       3.442   5.471  18.691  0.00  0.00    +0.000 C 
ATOM     13  C   UNL     1       4.625   5.588  19.684  0.00  0.00    +0.000 C 
ATOM     14  C   UNL     1       3.623   6.565  17.567  0.00  0.00    +0.000 C 
ENDROOT
BRANCH  14  15
ATOM     15  C   UNL     1       3.496   8.078  17.925  0.00  0.00    +0.000 C 
BRANCH  15  16
ATOM     16  C   UNL     1       2.044   8.507  17.657  0.00  0.00    +0.000 C 
BRANCH  16  17
ATOM     17  C   UNL     1       1.163   9.160  18.651  0.00  0.00    +0.000 C 
ATOM     18  C   UNL     1       1.125   9.169  19.980  0.00  0.00    +0.000 C 
ATOM     19  C   UNL     1      -0.037   9.993  20.345  0.00  0.00    +0.000 C 
ATOM     20  O   UNL     1      -0.404  10.199  21.490  0.00  0.00    +0.000 OA
ATOM     21  O   UNL     1      -0.636  10.471  19.226  0.00  0.00    +0.000 OA
ATOM     22  C   UNL     1       0.068   9.992  18.096  0.00  0.00    +0.000 C 
ENDBRANCH  16  17
ENDBRANCH  15  16
ENDBRANCH  14  15
TORSDOF 3
ENDMDL
