MODEL 1
REMARK VINA RESULT:      -8.1      0.000      0.000
REMARK  Name = 
REMARK  17 active torsions:
REMARK  status: ('A' for Active; 'I' for Inactive)
REMARK    1  A    between atoms: C_1  and  C_2
REMARK    2  A    between atoms: C_2  and  C_3
REMARK    3  A    between atoms: C_3  and  C_4
REMARK    4  A    between atoms: C_3  and  C_5
REMARK    5  A    between atoms: C_5  and  N_6
REMARK    6  A    between atoms: C_5  and  C_23
REMARK    7  A    between atoms: C_7  and  C_9
REMARK    8  A    between atoms: C_9  and  C_10
REMARK    9  A    between atoms: C_9  and  N_17
REMARK   10  A    between atoms: C_10  and  C_11
REMARK   11  A    between atoms: N_17  and  C_18
REMARK   12  A    between atoms: C_18  and  C_19
REMARK   13  A    between atoms: C_23  and  O_25
REMARK   14  A    between atoms: O_25  and  C_26
REMARK   15  A    between atoms: C_26  and  C_27
REMARK   16  A    between atoms: C_26  and  C_28
REMARK   17  A    between atoms: C_26  and  C_29
REMARK                            x       y       z     vdW  Elec       q    Type
REMARK                         _______ _______ _______ _____ _____    ______ ____
ROOT
ATOM      1  N   UNL     1       4.891   4.721  16.409  0.00  0.00    +0.000 N 
ATOM      2  C   UNL     1       4.438   4.212  17.602  0.00  0.00    +0.000 C 
ATOM      3  O   UNL     1       5.084   3.402  18.259  0.00  0.00    +0.000 OA
ATOM      4  H   UNL     1       4.307   5.424  15.956  0.00  0.00    +0.000 HD
ENDROOT
BRANCH   1   5
ATOM      5  C   UNL     1       6.086   4.226  15.711  0.00  0.00    +0.000 C 
BRANCH   5   6
ATOM      6  C   UNL     1       6.083   4.690  14.224  0.00  0.00    +0.000 C 
ATOM      7  C   UNL     1       7.498   4.880  13.658  0.00  0.00    +0.000 C 
BRANCH   6   9
ATOM      8  C   UNL     1       6.043   3.173  12.121  0.00  0.00    +0.000 C 
ATOM      9  C   UNL     1       5.268   3.767  13.289  0.00  0.00    +0.000 C 
ENDBRANCH   6   9
ENDBRANCH   5   6
BRANCH   5  10
ATOM     10  C   UNL     1       7.291   4.809  16.463  0.00  0.00    +0.000 C 
ATOM     11  O   UNL     1       8.112   4.124  17.057  0.00  0.00    +0.000 OA
BRANCH  10  12
ATOM     12  O   UNL     1       7.321   6.169  16.357  0.00  0.00    +0.000 OA
BRANCH  12  13
ATOM     13  C   UNL     1       7.186   7.011  17.536  0.00  0.00    +0.000 C 
ATOM     14  C   UNL     1       8.181   8.179  17.528  0.00  0.00    +0.000 C 
ATOM     15  C   UNL     1       5.765   7.595  17.466  0.00  0.00    +0.000 C 
ATOM     16  C   UNL     1       7.301   6.169  18.811  0.00  0.00    +0.000 C 
ENDBRANCH  12  13
ENDBRANCH  10  12
ENDBRANCH   5  10
ENDBRANCH   1   5
BRANCH   2  17
ATOM     17  C   UNL     1       3.085   4.794  18.099  0.00  0.00    +0.000 C 
BRANCH  17  18
ATOM     18  N   UNL     1       2.118   3.695  18.386  0.00  0.00    +0.000 NA
ATOM     19  H   UNL     1       2.217   2.972  17.667  0.00  0.00    +0.000 HD
BRANCH  18  20
ATOM     20  C   UNL     1       2.345   3.096  19.730  0.00  0.00    +0.000 C 
BRANCH  20  21
ATOM     21  C   UNL     1       1.486   3.620  20.904  0.00  0.00    +0.000 C 
ATOM     22  F   UNL     1       0.527   4.480  20.496  0.00  0.00    +0.000 F 
ATOM     23  F   UNL     1       0.864   2.590  21.529  0.00  0.00    +0.000 F 
ATOM     24  F   UNL     1       2.250   4.250  21.822  0.00  0.00    +0.000 F 
ENDBRANCH  20  21
ENDBRANCH  18  20
ENDBRANCH  17  18
BRANCH  17  25
ATOM     25  C   UNL     1       3.326   5.799  19.256  0.00  0.00    +0.000 C 
BRANCH  25  26
ATOM     26  C   UNL     1       2.501   7.070  19.205  0.00  0.00    +0.000 A 
ATOM     27  C   UNL     1       2.363   7.770  18.000  0.00  0.00    +0.000 A 
ATOM     28  C   UNL     1       1.645   8.966  17.948  0.00  0.00    +0.000 A 
ATOM     29  C   UNL     1       1.052   9.477  19.099  0.00  0.00    +0.000 A 
ATOM     30  C   UNL     1       1.159   8.780  20.299  0.00  0.00    +0.000 A 
ATOM     31  C   UNL     1       1.868   7.578  20.349  0.00  0.00    +0.000 A 
ENDBRANCH  25  26
ENDBRANCH  17  25
ENDBRANCH   2  17
TORSDOF 12
ENDMDL
MODEL 2
REMARK VINA RESULT:      -8.0      0.692      1.129
REMARK  Name = 
REMARK  17 active torsions:
REMARK  status: ('A' for Active; 'I' for Inactive)
REMARK    1  A    between atoms: C_1  and  C_2
REMARK    2  A    between atoms: C_2  and  C_3
REMARK    3  A    between atoms: C_3  and  C_4
REMARK    4  A    between atoms: C_3  and  C_5
REMARK    5  A    between atoms: C_5  and  N_6
REMARK    6  A    between atoms: C_5  and  C_23
REMARK    7  A    between atoms: C_7  and  C_9
REMARK    8  A    between atoms: C_9  and  C_10
REMARK    9  A    between atoms: C_9  and  N_17
REMARK   10  A    between atoms: C_10  and  C_11
REMARK   11  A    between atoms: N_17  and  C_18
REMARK   12  A    between atoms: C_18  and  C_19
REMARK   13  A    between atoms: C_23  and  O_25
REMARK   14  A    between atoms: O_25  and  C_26
REMARK   15  A    between atoms: C_26  and  C_27
REMARK   16  A    between atoms: C_26  and  C_28
REMARK   17  A    between atoms: C_26  and  C_29
REMARK                            x       y       z     vdW  Elec       q    Type
REMARK                         _______ _______ _______ _____ _____    ______ ____
ROOT
ATOM      1  N   UNL     1       4.846   4.904  16.389  0.00  0.00    +0.000 N 
ATOM      2  C   UNL     1       4.128   4.276  17.377  0.00  0.00    +0.000 C 
ATOM      3  O   UNL     1       4.503   3.230  17.899  0.00  0.00    +0.000 OA
ATOM      4  H   UNL     1       4.479   5.793  16.047  0.00  0.00    +0.000 HD
ENDROOT
BRANCH   1   5
ATOM      5  C   UNL     1       6.021   4.314  15.731  0.00  0.00    +0.000 C 
BRANCH   5   6
ATOM      6  C   UNL     1       6.069   4.720  14.228  0.00  0.00    +0.000 C 
ATOM      7  C   UNL     1       7.502   4.871  13.699  0.00  0.00    +0.000 C 
BRANCH   6   9
ATOM      8  C   UNL     1       6.029   3.250  12.092  0.00  0.00    +0.000 C 
ATOM      9  C   UNL     1       5.270   3.771  13.306  0.00  0.00    +0.000 C 
ENDBRANCH   6   9
ENDBRANCH   5   6
BRANCH   5  10
ATOM     10  C   UNL     1       7.246   4.856  16.483  0.00  0.00    +0.000 C 
ATOM     11  O   UNL     1       8.059   4.141  17.052  0.00  0.00    +0.000 OA
BRANCH  10  12
ATOM     12  O   UNL     1       7.302   6.217  16.407  0.00  0.00    +0.000 OA
BRANCH  12  13
ATOM     13  C   UNL     1       7.146   7.037  17.599  0.00  0.00    +0.000 C 
ATOM     14  C   UNL     1       7.471   6.259  18.881  0.00  0.00    +0.000 C 
ATOM     15  C   UNL     1       8.173   8.173  17.456  0.00  0.00    +0.000 C 
ATOM     16  C   UNL     1       5.745   7.655  17.643  0.00  0.00    +0.000 C 
ENDBRANCH  12  13
ENDBRANCH  10  12
ENDBRANCH   5  10
ENDBRANCH   1   5
BRANCH   2  17
ATOM     17  C   UNL     1       2.847   5.023  17.843  0.00  0.00    +0.000 C 
BRANCH  17  18
ATOM     18  N   UNL     1       1.725   4.061  18.043  0.00  0.00    +0.000 NA
ATOM     19  H   UNL     1       2.026   3.132  17.730  0.00  0.00    +0.000 HD
BRANCH  18  20
ATOM     20  C   UNL     1       1.304   3.993  19.469  0.00  0.00    +0.000 C 
BRANCH  20  21
ATOM     21  C   UNL     1       1.729   2.750  20.286  0.00  0.00    +0.000 C 
ATOM     22  F   UNL     1       0.945   2.556  21.369  0.00  0.00    +0.000 F 
ATOM     23  F   UNL     1       1.646   1.634  19.522  0.00  0.00    +0.000 F 
ATOM     24  F   UNL     1       3.007   2.860  20.707  0.00  0.00    +0.000 F 
ENDBRANCH  20  21
ENDBRANCH  18  20
ENDBRANCH  17  18
BRANCH  17  25
ATOM     25  C   UNL     1       3.170   5.943  19.050  0.00  0.00    +0.000 C 
BRANCH  25  26
ATOM     26  C   UNL     1       2.387   7.239  19.116  0.00  0.00    +0.000 A 
ATOM     27  C   UNL     1       2.226   8.022  17.966  0.00  0.00    +0.000 A 
ATOM     28  C   UNL     1       1.547   9.240  18.022  0.00  0.00    +0.000 A 
ATOM     29  C   UNL     1       1.018   9.692  19.228  0.00  0.00    +0.000 A 
ATOM     30  C   UNL     1       1.148   8.914  20.374  0.00  0.00    +0.000 A 
ATOM     31  C   UNL     1       1.818   7.690  20.316  0.00  0.00    +0.000 A 
ENDBRANCH  25  26
ENDBRANCH  17  25
ENDBRANCH   2  17
TORSDOF 12
ENDMDL
MODEL 3
REMARK VINA RESULT:      -7.4      3.086      7.356
REMARK  Name = 
REMARK  17 active torsions:
REMARK  status: ('A' for Active; 'I' for Inactive)
REMARK    1  A    between atoms: C_1  and  C_2
REMARK    2  A    between atoms: C_2  and  C_3
REMARK    3  A    between atoms: C_3  and  C_4
REMARK    4  A    between atoms: C_3  and  C_5
REMARK    5  A    between atoms: C_5  and  N_6
REMARK    6  A    between atoms: C_5  and  C_23
REMARK    7  A    between atoms: C_7  and  C_9
REMARK    8  A    between atoms: C_9  and  C_10
REMARK    9  A    between atoms: C_9  and  N_17
REMARK   10  A    between atoms: C_10  and  C_11
REMARK   11  A    between atoms: N_17  and  C_18
REMARK   12  A    between atoms: C_18  and  C_19
REMARK   13  A    between atoms: C_23  and  O_25
REMARK   14  A    between atoms: O_25  and  C_26
REMARK   15  A    between atoms: C_26  and  C_27
REMARK   16  A    between atoms: C_26  and  C_28
REMARK   17  A    between atoms: C_26  and  C_29
REMARK                            x       y       z     vdW  Elec       q    Type
REMARK                         _______ _______ _______ _____ _____    ______ ____
ROOT
ATOM      1  N   UNL     1       3.832   5.653  17.846  0.00  0.00    +0.000 N 
ATOM      2  C   UNL     1       5.114   5.242  18.116  0.00  0.00    +0.000 C 
ATOM      3  O   UNL     1       5.449   4.811  19.216  0.00  0.00    +0.000 OA
ATOM      4  H   UNL     1       3.635   5.952  16.890  0.00  0.00    +0.000 HD
ENDROOT
BRANCH   1   5
ATOM      5  C   UNL     1       2.786   5.794  18.869  0.00  0.00    +0.000 C 
BRANCH   5   6
ATOM      6  C   UNL     1       2.105   7.191  18.767  0.00  0.00    +0.000 C 
ATOM      7  C   UNL     1       1.887   7.848  20.139  0.00  0.00    +0.000 C 
BRANCH   6   9
ATOM      8  C   UNL     1       2.214   9.553  17.702  0.00  0.00    +0.000 C 
ATOM      9  C   UNL     1       2.846   8.174  17.831  0.00  0.00    +0.000 C 
ENDBRANCH   6   9
ENDBRANCH   5   6
BRANCH   5  10
ATOM     10  C   UNL     1       1.773   4.671  18.600  0.00  0.00    +0.000 C 
ATOM     11  O   UNL     1       1.415   4.339  17.479  0.00  0.00    +0.000 OA
BRANCH  10  12
ATOM     12  O   UNL     1       1.357   4.100  19.767  0.00  0.00    +0.000 OA
BRANCH  12  13
ATOM     13  C   UNL     1       1.719   2.729  20.096  0.00  0.00    +0.000 C 
ATOM     14  C   UNL     1       3.223   2.476  19.938  0.00  0.00    +0.000 C 
ATOM     15  C   UNL     1       1.358   2.551  21.580  0.00  0.00    +0.000 C 
ATOM     16  C   UNL     1       0.882   1.744  19.274  0.00  0.00    +0.000 C 
ENDBRANCH  12  13
ENDBRANCH  10  12
ENDBRANCH   5  10
ENDBRANCH   1   5
BRANCH   2  17
ATOM     17  C   UNL     1       6.093   5.286  16.910  0.00  0.00    +0.000 C 
BRANCH  17  18
ATOM     18  N   UNL     1       7.499   5.436  17.383  0.00  0.00    +0.000 NA
ATOM     19  H   UNL     1       8.096   5.661  16.580  0.00  0.00    +0.000 HD
BRANCH  18  20
ATOM     20  C   UNL     1       7.625   6.504  18.411  0.00  0.00    +0.000 C 
BRANCH  20  21
ATOM     21  C   UNL     1       7.973   7.931  17.927  0.00  0.00    +0.000 C 
ATOM     22  F   UNL     1       8.891   8.532  18.716  0.00  0.00    +0.000 F 
ATOM     23  F   UNL     1       8.484   7.891  16.672  0.00  0.00    +0.000 F 
ATOM     24  F   UNL     1       6.873   8.714  17.893  0.00  0.00    +0.000 F 
ENDBRANCH  20  21
ENDBRANCH  18  20
ENDBRANCH  17  18
BRANCH  17  25
ATOM     25  C   UNL     1       5.826   4.091  15.957  0.00  0.00    +0.000 C 
BRANCH  25  26
ATOM     26  C   UNL     1       6.317   4.263  14.533  0.00  0.00    +0.000 A 
ATOM     27  C   UNL     1       5.774   3.483  13.504  0.00  0.00    +0.000 A 
ATOM     28  C   UNL     1       6.248   3.598  12.196  0.00  0.00    +0.000 A 
ATOM     29  C   UNL     1       7.268   4.496  11.898  0.00  0.00    +0.000 A 
ATOM     30  C   UNL     1       7.801   5.296  12.904  0.00  0.00    +0.000 A 
ATOM     31  C   UNL     1       7.319   5.190  14.211  0.00  0.00    +0.000 A 
ENDBRANCH  25  26
ENDBRANCH  17  25
ENDBRANCH   2  17
TORSDOF 12
ENDMDL
MODEL 4
REMARK VINA RESULT:      -7.4      2.993      5.438
REMARK  Name = 
REMARK  17 active torsions:
REMARK  status: ('A' for Active; 'I' for Inactive)
REMARK    1  A    between atoms: C_1  and  C_2
REMARK    2  A    between atoms: C_2  and  C_3
REMARK    3  A    between atoms: C_3  and  C_4
REMARK    4  A    between atoms: C_3  and  C_5
REMARK    5  A    between atoms: C_5  and  N_6
REMARK    6  A    between atoms: C_5  and  C_23
REMARK    7  A    between atoms: C_7  and  C_9
REMARK    8  A    between atoms: C_9  and  C_10
REMARK    9  A    between atoms: C_9  and  N_17
REMARK   10  A    between atoms: C_10  and  C_11
REMARK   11  A    between atoms: N_17  and  C_18
REMARK   12  A    between atoms: C_18  and  C_19
REMARK   13  A    between atoms: C_23  and  O_25
REMARK   14  A    between atoms: O_25  and  C_26
REMARK   15  A    between atoms: C_26  and  C_27
REMARK   16  A    between atoms: C_26  and  C_28
REMARK   17  A    between atoms: C_26  and  C_29
REMARK                            x       y       z     vdW  Elec       q    Type
REMARK                         _______ _______ _______ _____ _____    ______ ____
ROOT
ATOM      1  N   UNL     1       2.558   6.693  18.525  0.00  0.00    +0.000 N 
ATOM      2  C   UNL     1       2.233   8.010  18.316  0.00  0.00    +0.000 C 
ATOM      3  O   UNL     1       2.562   8.616  17.300  0.00  0.00    +0.000 OA
ATOM      4  H   UNL     1       2.201   6.259  19.378  0.00  0.00    +0.000 HD
ENDROOT
BRANCH   1   5
ATOM      5  C   UNL     1       3.472   5.929  17.664  0.00  0.00    +0.000 C 
BRANCH   5   6
ATOM      6  C   UNL     1       4.946   6.110  18.132  0.00  0.00    +0.000 C 
ATOM      7  C   UNL     1       5.300   5.226  19.338  0.00  0.00    +0.000 C 
BRANCH   6   9
ATOM      8  C   UNL     1       6.964   4.752  17.233  0.00  0.00    +0.000 C 
ATOM      9  C   UNL     1       5.984   5.895  17.007  0.00  0.00    +0.000 C 
ENDBRANCH   6   9
ENDBRANCH   5   6
BRANCH   5  10
ATOM     10  C   UNL     1       3.038   4.460  17.778  0.00  0.00    +0.000 C 
ATOM     11  O   UNL     1       3.541   3.555  17.130  0.00  0.00    +0.000 OA
BRANCH  10  12
ATOM     12  O   UNL     1       2.045   4.316  18.704  0.00  0.00    +0.000 OA
BRANCH  12  13
ATOM     13  C   UNL     1       1.907   3.081  19.461  0.00  0.00    +0.000 C 
ATOM     14  C   UNL     1       3.267   2.460  19.806  0.00  0.00    +0.000 C 
ATOM     15  C   UNL     1       1.217   3.479  20.778  0.00  0.00    +0.000 C 
ATOM     16  C   UNL     1       0.999   2.097  18.718  0.00  0.00    +0.000 C 
ENDBRANCH  12  13
ENDBRANCH  10  12
ENDBRANCH   5  10
ENDBRANCH   1   5
BRANCH   2  17
ATOM     17  C   UNL     1       1.352   8.660  19.419  0.00  0.00    +0.000 C 
BRANCH  17  18
ATOM     18  N   UNL     1       1.832   8.260  20.774  0.00  0.00    +0.000 NA
ATOM     19  H   UNL     1       2.856   8.220  20.763  0.00  0.00    +0.000 HD
BRANCH  18  20
ATOM     20  C   UNL     1       1.382   9.215  21.823  0.00  0.00    +0.000 C 
BRANCH  20  21
ATOM     21  C   UNL     1      -0.099   9.153  22.264  0.00  0.00    +0.000 C 
ATOM     22  F   UNL     1      -0.726   8.049  21.802  0.00  0.00    +0.000 F 
ATOM     23  F   UNL     1      -0.188   9.131  23.616  0.00  0.00    +0.000 F 
ATOM     24  F   UNL     1      -0.781  10.235  21.830  0.00  0.00    +0.000 F 
ENDBRANCH  20  21
ENDBRANCH  18  20
ENDBRANCH  17  18
BRANCH  17  25
ATOM     25  C   UNL     1       1.221  10.186  19.174  0.00  0.00    +0.000 C 
BRANCH  25  26
ATOM     26  C   UNL     1      -0.117  10.654  18.637  0.00  0.00    +0.000 A 
ATOM     27  C   UNL     1      -0.873   9.816  17.809  0.00  0.00    +0.000 A 
ATOM     28  C   UNL     1      -2.086  10.250  17.271  0.00  0.00    +0.000 A 
ATOM     29  C   UNL     1      -2.561  11.527  17.556  0.00  0.00    +0.000 A 
ATOM     30  C   UNL     1      -1.833  12.363  18.397  0.00  0.00    +0.000 A 
ATOM     31  C   UNL     1      -0.625  11.925  18.945  0.00  0.00    +0.000 A 
ENDBRANCH  25  26
ENDBRANCH  17  25
ENDBRANCH   2  17
TORSDOF 12
ENDMDL
MODEL 5
REMARK VINA RESULT:      -7.4      2.946      6.549
REMARK  Name = 
REMARK  17 active torsions:
REMARK  status: ('A' for Active; 'I' for Inactive)
REMARK    1  A    between atoms: C_1  and  C_2
REMARK    2  A    between atoms: C_2  and  C_3
REMARK    3  A    between atoms: C_3  and  C_4
REMARK    4  A    between atoms: C_3  and  C_5
REMARK    5  A    between atoms: C_5  and  N_6
REMARK    6  A    between atoms: C_5  and  C_23
REMARK    7  A    between atoms: C_7  and  C_9
REMARK    8  A    between atoms: C_9  and  C_10
REMARK    9  A    between atoms: C_9  and  N_17
REMARK   10  A    between atoms: C_10  and  C_11
REMARK   11  A    between atoms: N_17  and  C_18
REMARK   12  A    between atoms: C_18  and  C_19
REMARK   13  A    between atoms: C_23  and  O_25
REMARK   14  A    between atoms: O_25  and  C_26
REMARK   15  A    between atoms: C_26  and  C_27
REMARK   16  A    between atoms: C_26  and  C_28
REMARK   17  A    between atoms: C_26  and  C_29
REMARK                            x       y       z     vdW  Elec       q    Type
REMARK                         _______ _______ _______ _____ _____    ______ ____
ROOT
ATOM      1  N   UNL     1       5.300   5.646  18.541  0.00  0.00    +0.000 N 
ATOM      2  C   UNL     1       6.612   5.714  18.939  0.00  0.00    +0.000 C 
ATOM      3  O   UNL     1       6.969   5.435  20.080  0.00  0.00    +0.000 OA
ATOM      4  H   UNL     1       5.104   5.852  17.560  0.00  0.00    +0.000 HD
ENDROOT
BRANCH   1   5
ATOM      5  C   UNL     1       4.177   5.417  19.461  0.00  0.00    +0.000 C 
BRANCH   5   6
ATOM      6  C   UNL     1       2.925   6.226  19.010  0.00  0.00    +0.000 C 
ATOM      7  C   UNL     1       2.178   6.871  20.186  0.00  0.00    +0.000 C 
BRANCH   6   9
ATOM      8  C   UNL     1       2.218   8.427  17.835  0.00  0.00    +0.000 C 
ATOM      9  C   UNL     1       3.232   7.296  17.938  0.00  0.00    +0.000 C 
ENDBRANCH   6   9
ENDBRANCH   5   6
BRANCH   5  10
ATOM     10  C   UNL     1       3.896   3.907  19.422  0.00  0.00    +0.000 C 
ATOM     11  O   UNL     1       4.681   3.064  19.831  0.00  0.00    +0.000 OA
BRANCH  10  12
ATOM     12  O   UNL     1       2.663   3.654  18.896  0.00  0.00    +0.000 OA
BRANCH  12  13
ATOM     13  C   UNL     1       1.751   2.726  19.547  0.00  0.00    +0.000 C 
ATOM     14  C   UNL     1       1.468   3.121  21.002  0.00  0.00    +0.000 C 
ATOM     15  C   UNL     1       0.433   2.822  18.761  0.00  0.00    +0.000 C 
ATOM     16  C   UNL     1       2.278   1.292  19.435  0.00  0.00    +0.000 C 
ENDBRANCH  12  13
ENDBRANCH  10  12
ENDBRANCH   5  10
ENDBRANCH   1   5
BRANCH   2  17
ATOM     17  C   UNL     1       7.626   6.093  17.823  0.00  0.00    +0.000 C 
BRANCH  17  18
ATOM     18  N   UNL     1       7.803   4.959  16.871  0.00  0.00    +0.000 NA
ATOM     19  H   UNL     1       7.387   4.116  17.279  0.00  0.00    +0.000 HD
BRANCH  18  20
ATOM     20  C   UNL     1       7.169   5.239  15.554  0.00  0.00    +0.000 C 
BRANCH  20  21
ATOM     21  C   UNL     1       5.894   4.445  15.187  0.00  0.00    +0.000 C 
ATOM     22  F   UNL     1       4.763   5.118  15.496  0.00  0.00    +0.000 F 
ATOM     23  F   UNL     1       5.862   4.193  13.856  0.00  0.00    +0.000 F 
ATOM     24  F   UNL     1       5.861   3.256  15.826  0.00  0.00    +0.000 F 
ENDBRANCH  20  21
ENDBRANCH  18  20
ENDBRANCH  17  18
BRANCH  17  25
ATOM     25  C   UNL     1       7.239   7.454  17.186  0.00  0.00    +0.000 C 
BRANCH  25  26
ATOM     26  C   UNL     1       7.899   8.676  17.793  0.00  0.00    +0.000 A 
ATOM     27  C   UNL     1       7.666   9.944  17.247  0.00  0.00    +0.000 A 
ATOM     28  C   UNL     1       8.303  11.073  17.767  0.00  0.00    +0.000 A 
ATOM     29  C   UNL     1       9.177  10.949  18.843  0.00  0.00    +0.000 A 
ATOM     30  C   UNL     1       9.400   9.699  19.412  0.00  0.00    +0.000 A 
ATOM     31  C   UNL     1       8.755   8.572  18.899  0.00  0.00    +0.000 A 
ENDBRANCH  25  26
ENDBRANCH  17  25
ENDBRANCH   2  17
TORSDOF 12
ENDMDL
MODEL 6
REMARK VINA RESULT:      -7.4      1.099      2.067
REMARK  Name = 
REMARK  17 active torsions:
REMARK  status: ('A' for Active; 'I' for Inactive)
REMARK    1  A    between atoms: C_1  and  C_2
REMARK    2  A    between atoms: C_2  and  C_3
REMARK    3  A    between atoms: C_3  and  C_4
REMARK    4  A    between atoms: C_3  and  C_5
REMARK    5  A    between atoms: C_5  and  N_6
REMARK    6  A    between atoms: C_5  and  C_23
REMARK    7  A    between atoms: C_7  and  C_9
REMARK    8  A    between atoms: C_9  and  C_10
REMARK    9  A    between atoms: C_9  and  N_17
REMARK   10  A    between atoms: C_10  and  C_11
REMARK   11  A    between atoms: N_17  and  C_18
REMARK   12  A    between atoms: C_18  and  C_19
REMARK   13  A    between atoms: C_23  and  O_25
REMARK   14  A    between atoms: O_25  and  C_26
REMARK   15  A    between atoms: C_26  and  C_27
REMARK   16  A    between atoms: C_26  and  C_28
REMARK   17  A    between atoms: C_26  and  C_29
REMARK                            x       y       z     vdW  Elec       q    Type
REMARK                         _______ _______ _______ _____ _____    ______ ____
ROOT
ATOM      1  N   UNL     1       5.110   4.135  16.513  0.00  0.00    +0.000 N 
ATOM      2  C   UNL     1       5.036   3.897  17.863  0.00  0.00    +0.000 C 
ATOM      3  O   UNL     1       5.969   4.134  18.626  0.00  0.00    +0.000 OA
ATOM      4  H   UNL     1       4.269   3.951  15.965  0.00  0.00    +0.000 HD
ENDROOT
BRANCH   1   5
ATOM      5  C   UNL     1       6.347   4.516  15.817  0.00  0.00    +0.000 C 
BRANCH   5   6
ATOM      6  C   UNL     1       6.385   3.897  14.388  0.00  0.00    +0.000 C 
ATOM      7  C   UNL     1       4.995   3.808  13.741  0.00  0.00    +0.000 C 
BRANCH   6   9
ATOM      8  C   UNL     1       7.183   4.288  11.952  0.00  0.00    +0.000 C 
ATOM      9  C   UNL     1       7.361   4.615  13.429  0.00  0.00    +0.000 C 
ENDBRANCH   6   9
ENDBRANCH   5   6
BRANCH   5  10
ATOM     10  C   UNL     1       6.341   6.051  15.748  0.00  0.00    +0.000 C 
ATOM     11  O   UNL     1       5.452   6.699  15.216  0.00  0.00    +0.000 OA
BRANCH  10  12
ATOM     12  O   UNL     1       7.438   6.571  16.371  0.00  0.00    +0.000 OA
BRANCH  12  13
ATOM     13  C   UNL     1       7.318   7.225  17.665  0.00  0.00    +0.000 C 
ATOM     14  C   UNL     1       8.041   6.448  18.774  0.00  0.00    +0.000 C 
ATOM     15  C   UNL     1       8.015   8.587  17.506  0.00  0.00    +0.000 C 
ATOM     16  C   UNL     1       5.845   7.473  18.005  0.00  0.00    +0.000 C 
ENDBRANCH  12  13
ENDBRANCH  10  12
ENDBRANCH   5  10
ENDBRANCH   1   5
BRANCH   2  17
ATOM     17  C   UNL     1       3.660   3.381  18.371  0.00  0.00    +0.000 C 
BRANCH  17  18
ATOM     18  N   UNL     1       3.666   3.254  19.857  0.00  0.00    +0.000 NA
ATOM     19  H   UNL     1       3.525   4.182  20.268  0.00  0.00    +0.000 HD
BRANCH  18  20
ATOM     20  C   UNL     1       2.602   2.330  20.337  0.00  0.00    +0.000 C 
BRANCH  20  21
ATOM     21  C   UNL     1       1.645   2.845  21.437  0.00  0.00    +0.000 C 
ATOM     22  F   UNL     1       1.241   1.859  22.268  0.00  0.00    +0.000 F 
ATOM     23  F   UNL     1       2.261   3.785  22.195  0.00  0.00    +0.000 F 
ATOM     24  F   UNL     1       0.546   3.415  20.898  0.00  0.00    +0.000 F 
ENDBRANCH  20  21
ENDBRANCH  18  20
ENDBRANCH  17  18
BRANCH  17  25
ATOM     25  C   UNL     1       2.512   4.234  17.772  0.00  0.00    +0.000 C 
BRANCH  25  26
ATOM     26  C   UNL     1       2.387   5.644  18.315  0.00  0.00    +0.000 A 
ATOM     27  C   UNL     1       2.228   5.855  19.690  0.00  0.00    +0.000 A 
ATOM     28  C   UNL     1       2.067   7.145  20.200  0.00  0.00    +0.000 A 
ATOM     29  C   UNL     1       2.066   8.241  19.342  0.00  0.00    +0.000 A 
ATOM     30  C   UNL     1       2.247   8.049  17.975  0.00  0.00    +0.000 A 
ATOM     31  C   UNL     1       2.419   6.760  17.466  0.00  0.00    +0.000 A 
ENDBRANCH  25  26
ENDBRANCH  17  25
ENDBRANCH   2  17
TORSDOF 12
ENDMDL
MODEL 7
REMARK VINA RESULT:      -7.3      2.901      6.573
REMARK  Name = 
REMARK  17 active torsions:
REMARK  status: ('A' for Active; 'I' for Inactive)
REMARK    1  A    between atoms: C_1  and  C_2
REMARK    2  A    between atoms: C_2  and  C_3
REMARK    3  A    between atoms: C_3  and  C_4
REMARK    4  A    between atoms: C_3  and  C_5
REMARK    5  A    between atoms: C_5  and  N_6
REMARK    6  A    between atoms: C_5  and  C_23
REMARK    7  A    between atoms: C_7  and  C_9
REMARK    8  A    between atoms: C_9  and  C_10
REMARK    9  A    between atoms: C_9  and  N_17
REMARK   10  A    between atoms: C_10  and  C_11
REMARK   11  A    between atoms: N_17  and  C_18
REMARK   12  A    between atoms: C_18  and  C_19
REMARK   13  A    between atoms: C_23  and  O_25
REMARK   14  A    between atoms: O_25  and  C_26
REMARK   15  A    between atoms: C_26  and  C_27
REMARK   16  A    between atoms: C_26  and  C_28
REMARK   17  A    between atoms: C_26  and  C_29
REMARK                            x       y       z     vdW  Elec       q    Type
REMARK                         _______ _______ _______ _____ _____    ______ ____
ROOT
ATOM      1  N   UNL     1       5.232   5.727  18.500  0.00  0.00    +0.000 N 
ATOM      2  C   UNL     1       6.544   5.732  18.904  0.00  0.00    +0.000 C 
ATOM      3  O   UNL     1       6.891   5.355  20.020  0.00  0.00    +0.000 OA
ATOM      4  H   UNL     1       5.044   6.015  17.539  0.00  0.00    +0.000 HD
ENDROOT
BRANCH   1   5
ATOM      5  C   UNL     1       4.101   5.452  19.398  0.00  0.00    +0.000 C 
BRANCH   5   6
ATOM      6  C   UNL     1       2.854   6.287  18.981  0.00  0.00    +0.000 C 
ATOM      7  C   UNL     1       2.161   6.957  20.177  0.00  0.00    +0.000 C 
BRANCH   6   9
ATOM      8  C   UNL     1       2.183   8.516  17.839  0.00  0.00    +0.000 C 
ATOM      9  C   UNL     1       3.152   7.343  17.893  0.00  0.00    +0.000 C 
ENDBRANCH   6   9
ENDBRANCH   5   6
BRANCH   5  10
ATOM     10  C   UNL     1       3.817   3.947  19.275  0.00  0.00    +0.000 C 
ATOM     11  O   UNL     1       4.647   3.082  19.514  0.00  0.00    +0.000 OA
BRANCH  10  12
ATOM     12  O   UNL     1       2.527   3.724  18.889  0.00  0.00    +0.000 OA
BRANCH  12  13
ATOM     13  C   UNL     1       1.669   2.824  19.644  0.00  0.00    +0.000 C 
ATOM     14  C   UNL     1       1.426   3.322  21.074  0.00  0.00    +0.000 C 
ATOM     15  C   UNL     1       0.320   2.821  18.904  0.00  0.00    +0.000 C 
ATOM     16  C   UNL     1       2.235   1.400  19.620  0.00  0.00    +0.000 C 
ENDBRANCH  12  13
ENDBRANCH  10  12
ENDBRANCH   5  10
ENDBRANCH   1   5
BRANCH   2  17
ATOM     17  C   UNL     1       7.569   6.175  17.823  0.00  0.00    +0.000 C 
BRANCH  17  18
ATOM     18  N   UNL     1       7.784   5.085  16.828  0.00  0.00    +0.000 NA
ATOM     19  H   UNL     1       7.478   4.198  17.239  0.00  0.00    +0.000 HD
BRANCH  18  20
ATOM     20  C   UNL     1       7.035   5.334  15.566  0.00  0.00    +0.000 C 
BRANCH  20  21
ATOM     21  C   UNL     1       5.811   4.437  15.268  0.00  0.00    +0.000 C 
ATOM     22  F   UNL     1       5.767   4.039  13.978  0.00  0.00    +0.000 F 
ATOM     23  F   UNL     1       5.847   3.320  16.035  0.00  0.00    +0.000 F 
ATOM     24  F   UNL     1       4.657   5.082  15.546  0.00  0.00    +0.000 F 
ENDBRANCH  20  21
ENDBRANCH  18  20
ENDBRANCH  17  18
BRANCH  17  25
ATOM     25  C   UNL     1       7.168   7.554  17.235  0.00  0.00    +0.000 C 
BRANCH  25  26
ATOM     26  C   UNL     1       7.912   8.750  17.797  0.00  0.00    +0.000 A 
ATOM     27  C   UNL     1       8.764   8.593  18.896  0.00  0.00    +0.000 A 
ATOM     28  C   UNL     1       9.421   9.693  19.453  0.00  0.00    +0.000 A 
ATOM     29  C   UNL     1       9.236  10.963  18.915  0.00  0.00    +0.000 A 
ATOM     30  C   UNL     1       8.411  11.131  17.807  0.00  0.00    +0.000 A 
ATOM     31  C   UNL     1       7.763  10.030  17.243  0.00  0.00    +0.000 A 
ENDBRANCH  25  26
ENDBRANCH  17  25
ENDBRANCH   2  17
TORSDOF 12
ENDMDL
MODEL 8
REMARK VINA RESULT:      -7.3      3.066      5.511
REMARK  Name = 
REMARK  17 active torsions:
REMARK  status: ('A' for Active; 'I' for Inactive)
REMARK    1  A    between atoms: C_1  and  C_2
REMARK    2  A    between atoms: C_2  and  C_3
REMARK    3  A    between atoms: C_3  and  C_4
REMARK    4  A    between atoms: C_3  and  C_5
REMARK    5  A    between atoms: C_5  and  N_6
REMARK    6  A    between atoms: C_5  and  C_23
REMARK    7  A    between atoms: C_7  and  C_9
REMARK    8  A    between atoms: C_9  and  C_10
REMARK    9  A    between atoms: C_9  and  N_17
REMARK   10  A    between atoms: C_10  and  C_11
REMARK   11  A    between atoms: N_17  and  C_18
REMARK   12  A    between atoms: C_18  and  C_19
REMARK   13  A    between atoms: C_23  and  O_25
REMARK   14  A    between atoms: O_25  and  C_26
REMARK   15  A    between atoms: C_26  and  C_27
REMARK   16  A    between atoms: C_26  and  C_28
REMARK   17  A    between atoms: C_26  and  C_29
REMARK                            x       y       z     vdW  Elec       q    Type
REMARK                         _______ _______ _______ _____ _____    ______ ____
ROOT
ATOM      1  N   UNL     1       2.486   6.722  18.591  0.00  0.00    +0.000 N 
ATOM      2  C   UNL     1       2.167   8.039  18.368  0.00  0.00    +0.000 C 
ATOM      3  O   UNL     1       2.512   8.636  17.352  0.00  0.00    +0.000 OA
ATOM      4  H   UNL     1       2.117   6.296  19.442  0.00  0.00    +0.000 HD
ENDROOT
BRANCH   1   5
ATOM      5  C   UNL     1       3.408   5.950  17.747  0.00  0.00    +0.000 C 
BRANCH   5   6
ATOM      6  C   UNL     1       4.886   6.230  18.151  0.00  0.00    +0.000 C 
ATOM      7  C   UNL     1       5.378   5.314  19.282  0.00  0.00    +0.000 C 
BRANCH   6   9
ATOM      8  C   UNL     1       5.243   6.274  15.583  0.00  0.00    +0.000 C 
ATOM      9  C   UNL     1       5.875   6.169  16.965  0.00  0.00    +0.000 C 
ENDBRANCH   6   9
ENDBRANCH   5   6
BRANCH   5  10
ATOM     10  C   UNL     1       3.052   4.472  17.968  0.00  0.00    +0.000 C 
ATOM     11  O   UNL     1       3.455   3.566  17.253  0.00  0.00    +0.000 OA
BRANCH  10  12
ATOM     12  O   UNL     1       2.256   4.321  19.066  0.00  0.00    +0.000 OA
BRANCH  12  13
ATOM     13  C   UNL     1       2.024   3.006  19.643  0.00  0.00    +0.000 C 
ATOM     14  C   UNL     1       1.268   2.080  18.682  0.00  0.00    +0.000 C 
ATOM     15  C   UNL     1       3.420   2.408  19.883  0.00  0.00    +0.000 C 
ATOM     16  C   UNL     1       1.313   3.133  20.994  0.00  0.00    +0.000 C 
ENDBRANCH  12  13
ENDBRANCH  10  12
ENDBRANCH   5  10
ENDBRANCH   1   5
BRANCH   2  17
ATOM     17  C   UNL     1       1.274   8.699  19.455  0.00  0.00    +0.000 C 
BRANCH  17  18
ATOM     18  N   UNL     1       1.767   8.351  20.819  0.00  0.00    +0.000 NA
ATOM     19  H   UNL     1       2.790   8.293  20.796  0.00  0.00    +0.000 HD
BRANCH  18  20
ATOM     20  C   UNL     1       1.348   9.358  21.832  0.00  0.00    +0.000 C 
BRANCH  20  21
ATOM     21  C   UNL     1      -0.072   9.227  22.430  0.00  0.00    +0.000 C 
ATOM     22  F   UNL     1      -0.054   9.134  23.778  0.00  0.00    +0.000 F 
ATOM     23  F   UNL     1      -0.819  10.312  22.111  0.00  0.00    +0.000 F 
ATOM     24  F   UNL     1      -0.706   8.139  21.944  0.00  0.00    +0.000 F 
ENDBRANCH  20  21
ENDBRANCH  18  20
ENDBRANCH  17  18
BRANCH  17  25
ATOM     25  C   UNL     1       1.106  10.214  19.166  0.00  0.00    +0.000 C 
BRANCH  25  26
ATOM     26  C   UNL     1      -0.291  10.658  18.779  0.00  0.00    +0.000 A 
ATOM     27  C   UNL     1      -1.022   9.931  17.832  0.00  0.00    +0.000 A 
ATOM     28  C   UNL     1      -2.292  10.354  17.432  0.00  0.00    +0.000 A 
ATOM     29  C   UNL     1      -2.848  11.508  17.977  0.00  0.00    +0.000 A 
ATOM     30  C   UNL     1      -2.144  12.228  18.938  0.00  0.00    +0.000 A 
ATOM     31  C   UNL     1      -0.879  11.799  19.346  0.00  0.00    +0.000 A 
ENDBRANCH  25  26
ENDBRANCH  17  25
ENDBRANCH   2  17
TORSDOF 12
ENDMDL
MODEL 9
REMARK VINA RESULT:      -7.2      3.002      6.735
REMARK  Name = 
REMARK  17 active torsions:
REMARK  status: ('A' for Active; 'I' for Inactive)
REMARK    1  A    between atoms: C_1  and  C_2
REMARK    2  A    between atoms: C_2  and  C_3
REMARK    3  A    between atoms: C_3  and  C_4
REMARK    4  A    between atoms: C_3  and  C_5
REMARK    5  A    between atoms: C_5  and  N_6
REMARK    6  A    between atoms: C_5  and  C_23
REMARK    7  A    between atoms: C_7  and  C_9
REMARK    8  A    between atoms: C_9  and  C_10
REMARK    9  A    between atoms: C_9  and  N_17
REMARK   10  A    between atoms: C_10  and  C_11
REMARK   11  A    between atoms: N_17  and  C_18
REMARK   12  A    between atoms: C_18  and  C_19
REMARK   13  A    between atoms: C_23  and  O_25
REMARK   14  A    between atoms: O_25  and  C_26
REMARK   15  A    between atoms: C_26  and  C_27
REMARK   16  A    between atoms: C_26  and  C_28
REMARK   17  A    between atoms: C_26  and  C_29
REMARK                            x       y       z     vdW  Elec       q    Type
REMARK                         _______ _______ _______ _____ _____    ______ ____
ROOT
ATOM      1  N   UNL     1       4.929   5.969  18.364  0.00  0.00    +0.000 N 
ATOM      2  C   UNL     1       6.190   5.634  18.794  0.00  0.00    +0.000 C 
ATOM      3  O   UNL     1       6.385   4.994  19.823  0.00  0.00    +0.000 OA
ATOM      4  H   UNL     1       4.862   6.462  17.473  0.00  0.00    +0.000 HD
ENDROOT
BRANCH   1   5
ATOM      5  C   UNL     1       3.712   5.763  19.161  0.00  0.00    +0.000 C 
BRANCH   5   6
ATOM      6  C   UNL     1       2.950   7.107  19.356  0.00  0.00    +0.000 C 
ATOM      7  C   UNL     1       2.374   7.660  18.044  0.00  0.00    +0.000 C 
BRANCH   6   9
ATOM      8  C   UNL     1       1.357   8.383  20.956  0.00  0.00    +0.000 C 
ATOM      9  C   UNL     1       1.837   7.038  20.426  0.00  0.00    +0.000 C 
ENDBRANCH   6   9
ENDBRANCH   5   6
BRANCH   5  10
ATOM     10  C   UNL     1       2.855   4.757  18.377  0.00  0.00    +0.000 C 
ATOM     11  O   UNL     1       3.112   4.394  17.239  0.00  0.00    +0.000 OA
BRANCH  10  12
ATOM     12  O   UNL     1       1.800   4.325  19.129  0.00  0.00    +0.000 OA
BRANCH  12  13
ATOM     13  C   UNL     1       1.800   2.994  19.715  0.00  0.00    +0.000 C 
ATOM     14  C   UNL     1       1.276   2.999  21.157  0.00  0.00    +0.000 C 
ATOM     15  C   UNL     1       0.830   2.165  18.857  0.00  0.00    +0.000 C 
ATOM     16  C   UNL     1       3.194   2.365  19.614  0.00  0.00    +0.000 C 
ENDBRANCH  12  13
ENDBRANCH  10  12
ENDBRANCH   5  10
ENDBRANCH   1   5
BRANCH   2  17
ATOM     17  C   UNL     1       7.348   6.057  17.847  0.00  0.00    +0.000 C 
BRANCH  17  18
ATOM     18  N   UNL     1       7.675   4.954  16.897  0.00  0.00    +0.000 NA
ATOM     19  H   UNL     1       7.316   4.073  17.278  0.00  0.00    +0.000 HD
BRANCH  18  20
ATOM     20  C   UNL     1       7.085   5.192  15.551  0.00  0.00    +0.000 C 
BRANCH  20  21
ATOM     21  C   UNL     1       6.051   4.168  15.029  0.00  0.00    +0.000 C 
ATOM     22  F   UNL     1       4.911   4.759  14.607  0.00  0.00    +0.000 F 
ATOM     23  F   UNL     1       6.559   3.477  13.980  0.00  0.00    +0.000 F 
ATOM     24  F   UNL     1       5.728   3.273  15.987  0.00  0.00    +0.000 F 
ENDBRANCH  20  21
ENDBRANCH  18  20
ENDBRANCH  17  18
BRANCH  17  25
ATOM     25  C   UNL     1       7.038   7.433  17.202  0.00  0.00    +0.000 C 
BRANCH  25  26
ATOM     26  C   UNL     1       7.777   8.618  17.793  0.00  0.00    +0.000 A 
ATOM     27  C   UNL     1       7.581   9.901  17.267  0.00  0.00    +0.000 A 
ATOM     28  C   UNL     1       8.288  10.994  17.771  0.00  0.00    +0.000 A 
ATOM     29  C   UNL     1       9.198  10.820  18.810  0.00  0.00    +0.000 A 
ATOM     30  C   UNL     1       9.386   9.555  19.359  0.00  0.00    +0.000 A 
ATOM     31  C   UNL     1       8.670   8.463  18.863  0.00  0.00    +0.000 A 
ENDBRANCH  25  26
ENDBRANCH  17  25
ENDBRANCH   2  17
TORSDOF 12
ENDMDL
