MODEL 1
REMARK VINA RESULT:      -7.3      0.000      0.000
REMARK  Name = 
REMARK  3 active torsions:
REMARK  status: ('A' for Active; 'I' for Inactive)
REMARK    1  A    between atoms: C_1  and  O_2
REMARK    2  A    between atoms: O_2  and  C_3
REMARK    3  A    between atoms: C_9  and  C_10
REMARK                            x       y       z     vdW  Elec       q    Type
REMARK                         _______ _______ _______ _____ _____    ______ ____
ROOT
ATOM      1  C   UNL     1       1.789   5.304  20.253  0.00  0.00    +0.000 A 
ATOM      2  C   UNL     1       0.936   4.239  20.543  0.00  0.00    +0.000 A 
ATOM      3  C   UNL     1       1.113   2.982  19.949  0.00  0.00    +0.000 A 
ATOM      4  C   UNL     1       2.173   2.832  19.048  0.00  0.00    +0.000 A 
ATOM      5  N   UNL     1       2.565   1.735  18.314  0.00  0.00    +0.000 N 
ATOM      6  C   UNL     1       3.655   2.045  17.543  0.00  0.00    +0.000 A 
ATOM      7  C   UNL     1       3.982   3.358  17.792  0.00  0.00    +0.000 A 
ATOM      8  C   UNL     1       3.049   3.873  18.738  0.00  0.00    +0.000 A 
ATOM      9  C   UNL     1       2.853   5.123  19.359  0.00  0.00    +0.000 A 
ATOM     10  H   UNL     1       2.100   0.838  18.332  0.00  0.00    +0.000 HD
ENDROOT
BRANCH   7  11
ATOM     11  C   UNL     1       5.053   4.051  17.162  0.00  0.00    +0.000 C 
ATOM     12  C   UNL     1       5.116   4.284  15.840  0.00  0.00    +0.000 C 
ATOM     13  C   UNL     1       6.252   5.011  15.188  0.00  0.00    +0.000 C 
ATOM     14  N   UNL     1       7.155   5.685  16.128  0.00  0.00    +0.000 NA
ATOM     15  C   UNL     1       7.436   4.826  17.285  0.00  0.00    +0.000 C 
ATOM     16  C   UNL     1       6.162   4.498  18.079  0.00  0.00    +0.000 C 
ATOM     17  H   UNL     1       6.687   6.529  16.459  0.00  0.00    +0.000 HD
ENDBRANCH   7  11
BRANCH   1  19
ATOM     18  C   UNL     1       1.985   7.645  19.890  0.00  0.00    +0.000 C 
ATOM     19  O   UNL     1       1.696   6.568  20.773  0.00  0.00    +0.000 OA
ENDBRANCH   1  19
TORSDOF 2
ENDMDL
MODEL 2
REMARK VINA RESULT:      -7.2      0.232      1.209
REMARK  Name = 
REMARK  3 active torsions:
REMARK  status: ('A' for Active; 'I' for Inactive)
REMARK    1  A    between atoms: C_1  and  O_2
REMARK    2  A    between atoms: O_2  and  C_3
REMARK    3  A    between atoms: C_9  and  C_10
REMARK                            x       y       z     vdW  Elec       q    Type
REMARK                         _______ _______ _______ _____ _____    ______ ____
ROOT
ATOM      1  C   UNL     1       1.739   5.270  20.297  0.00  0.00    +0.000 A 
ATOM      2  C   UNL     1       0.870   4.210  20.554  0.00  0.00    +0.000 A 
ATOM      3  C   UNL     1       1.066   2.951  19.970  0.00  0.00    +0.000 A 
ATOM      4  C   UNL     1       2.162   2.794  19.115  0.00  0.00    +0.000 A 
ATOM      5  N   UNL     1       2.579   1.693  18.401  0.00  0.00    +0.000 N 
ATOM      6  C   UNL     1       3.703   1.995  17.676  0.00  0.00    +0.000 A 
ATOM      7  C   UNL     1       4.025   3.308  17.936  0.00  0.00    +0.000 A 
ATOM      8  C   UNL     1       3.056   3.829  18.841  0.00  0.00    +0.000 A 
ATOM      9  C   UNL     1       2.839   5.082  19.450  0.00  0.00    +0.000 A 
ATOM     10  H   UNL     1       2.110   0.798  18.402  0.00  0.00    +0.000 HD
ENDROOT
BRANCH   7  11
ATOM     11  C   UNL     1       5.125   3.994  17.350  0.00  0.00    +0.000 C 
ATOM     12  C   UNL     1       6.167   4.470  18.053  0.00  0.00    +0.000 C 
ATOM     13  C   UNL     1       7.318   5.195  17.425  0.00  0.00    +0.000 C 
ATOM     14  N   UNL     1       7.357   5.111  15.961  0.00  0.00    +0.000 NA
ATOM     15  C   UNL     1       6.014   5.290  15.394  0.00  0.00    +0.000 C 
ATOM     16  C   UNL     1       5.044   4.191  15.859  0.00  0.00    +0.000 C 
ATOM     17  H   UNL     1       7.690   4.180  15.711  0.00  0.00    +0.000 HD
ENDBRANCH   7  11
BRANCH   1  19
ATOM     18  C   UNL     1       2.010   7.607  19.955  0.00  0.00    +0.000 C 
ATOM     19  O   UNL     1       1.631   6.536  20.810  0.00  0.00    +0.000 OA
ENDBRANCH   1  19
TORSDOF 2
ENDMDL
MODEL 3
REMARK VINA RESULT:      -7.0      3.308      6.786
REMARK  Name = 
REMARK  3 active torsions:
REMARK  status: ('A' for Active; 'I' for Inactive)
REMARK    1  A    between atoms: C_1  and  O_2
REMARK    2  A    between atoms: O_2  and  C_3
REMARK    3  A    between atoms: C_9  and  C_10
REMARK                            x       y       z     vdW  Elec       q    Type
REMARK                         _______ _______ _______ _____ _____    ______ ____
ROOT
ATOM      1  C   UNL     1       5.823   3.484  12.461  0.00  0.00    +0.000 A 
ATOM      2  C   UNL     1       7.017   4.120  12.122  0.00  0.00    +0.000 A 
ATOM      3  C   UNL     1       7.705   4.918  13.046  0.00  0.00    +0.000 A 
ATOM      4  C   UNL     1       7.150   5.059  14.323  0.00  0.00    +0.000 A 
ATOM      5  N   UNL     1       7.592   5.785  15.407  0.00  0.00    +0.000 N 
ATOM      6  C   UNL     1       6.721   5.647  16.456  0.00  0.00    +0.000 A 
ATOM      7  C   UNL     1       5.707   4.809  16.050  0.00  0.00    +0.000 A 
ATOM      8  C   UNL     1       5.962   4.432  14.699  0.00  0.00    +0.000 A 
ATOM      9  C   UNL     1       5.297   3.629  13.751  0.00  0.00    +0.000 A 
ATOM     10  H   UNL     1       8.429   6.349  15.415  0.00  0.00    +0.000 HD
ENDROOT
BRANCH   7  11
ATOM     11  C   UNL     1       4.599   4.439  16.861  0.00  0.00    +0.000 C 
ATOM     12  C   UNL     1       4.232   3.166  17.087  0.00  0.00    +0.000 C 
ATOM     13  C   UNL     1       3.059   2.789  17.941  0.00  0.00    +0.000 C 
ATOM     14  N   UNL     1       2.506   3.897  18.728  0.00  0.00    +0.000 NA
ATOM     15  C   UNL     1       2.429   5.121  17.919  0.00  0.00    +0.000 C 
ATOM     16  C   UNL     1       3.816   5.585  17.447  0.00  0.00    +0.000 C 
ATOM     17  H   UNL     1       3.136   4.068  19.512  0.00  0.00    +0.000 HD
ENDBRANCH   7  11
BRANCH   1  19
ATOM     18  C   UNL     1       3.889   3.271  11.094  0.00  0.00    +0.000 C 
ATOM     19  O   UNL     1       5.074   2.694  11.629  0.00  0.00    +0.000 OA
ENDBRANCH   1  19
TORSDOF 2
ENDMDL
MODEL 4
REMARK VINA RESULT:      -6.9      2.709      6.016
REMARK  Name = 
REMARK  3 active torsions:
REMARK  status: ('A' for Active; 'I' for Inactive)
REMARK    1  A    between atoms: C_1  and  O_2
REMARK    2  A    between atoms: O_2  and  C_3
REMARK    3  A    between atoms: C_9  and  C_10
REMARK                            x       y       z     vdW  Elec       q    Type
REMARK                         _______ _______ _______ _____ _____    ______ ____
ROOT
ATOM      1  C   UNL     1       5.258   4.776  15.919  0.00  0.00    +0.000 A 
ATOM      2  C   UNL     1       5.486   6.077  15.470  0.00  0.00    +0.000 A 
ATOM      3  C   UNL     1       4.862   7.176  16.077  0.00  0.00    +0.000 A 
ATOM      4  C   UNL     1       3.997   6.923  17.147  0.00  0.00    +0.000 A 
ATOM      5  N   UNL     1       3.247   7.795  17.906  0.00  0.00    +0.000 N 
ATOM      6  C   UNL     1       2.527   7.105  18.846  0.00  0.00    +0.000 A 
ATOM      7  C   UNL     1       2.826   5.769  18.703  0.00  0.00    +0.000 A 
ATOM      8  C   UNL     1       3.751   5.637  17.627  0.00  0.00    +0.000 A 
ATOM      9  C   UNL     1       4.400   4.552  17.004  0.00  0.00    +0.000 A 
ATOM     10  H   UNL     1       3.222   8.795  17.772  0.00  0.00    +0.000 HD
ENDROOT
BRANCH   7  11
ATOM     11  C   UNL     1       2.257   4.731  19.492  0.00  0.00    +0.000 C 
ATOM     12  C   UNL     1       2.563   4.522  20.784  0.00  0.00    +0.000 C 
ATOM     13  C   UNL     1       1.960   3.423  21.603  0.00  0.00    +0.000 C 
ATOM     14  N   UNL     1       0.813   2.760  20.972  0.00  0.00    +0.000 NA
ATOM     15  C   UNL     1       1.072   2.520  19.546  0.00  0.00    +0.000 C 
ATOM     16  C   UNL     1       1.285   3.831  18.774  0.00  0.00    +0.000 C 
ATOM     17  H   UNL     1       0.010   3.383  21.053  0.00  0.00    +0.000 HD
ENDBRANCH   7  11
BRANCH   1  19
ATOM     18  C   UNL     1       6.256   3.712  14.042  0.00  0.00    +0.000 C 
ATOM     19  O   UNL     1       5.810   3.639  15.391  0.00  0.00    +0.000 OA
ENDBRANCH   1  19
TORSDOF 2
ENDMDL
MODEL 5
REMARK VINA RESULT:      -6.9      3.122      5.504
REMARK  Name = 
REMARK  3 active torsions:
REMARK  status: ('A' for Active; 'I' for Inactive)
REMARK    1  A    between atoms: C_1  and  O_2
REMARK    2  A    between atoms: O_2  and  C_3
REMARK    3  A    between atoms: C_9  and  C_10
REMARK                            x       y       z     vdW  Elec       q    Type
REMARK                         _______ _______ _______ _____ _____    ______ ____
ROOT
ATOM      1  C   UNL     1       6.765   6.246  16.720  0.00  0.00    +0.000 A 
ATOM      2  C   UNL     1       6.895   4.918  16.317  0.00  0.00    +0.000 A 
ATOM      3  C   UNL     1       5.830   4.014  16.434  0.00  0.00    +0.000 A 
ATOM      4  C   UNL     1       4.630   4.490  16.975  0.00  0.00    +0.000 A 
ATOM      5  N   UNL     1       3.446   3.832  17.221  0.00  0.00    +0.000 N 
ATOM      6  C   UNL     1       2.533   4.690  17.777  0.00  0.00    +0.000 A 
ATOM      7  C   UNL     1       3.131   5.925  17.881  0.00  0.00    +0.000 A 
ATOM      8  C   UNL     1       4.462   5.813  17.382  0.00  0.00    +0.000 A 
ATOM      9  C   UNL     1       5.548   6.702  17.243  0.00  0.00    +0.000 A 
ATOM     10  H   UNL     1       3.284   2.853  17.032  0.00  0.00    +0.000 HD
ENDROOT
BRANCH   7  11
ATOM     11  C   UNL     1       2.503   7.077  18.430  0.00  0.00    +0.000 C 
ATOM     12  C   UNL     1       2.359   8.237  17.767  0.00  0.00    +0.000 C 
ATOM     13  C   UNL     1       1.699   9.444  18.359  0.00  0.00    +0.000 C 
ATOM     14  N   UNL     1       0.984   9.186  19.614  0.00  0.00    +0.000 NA
ATOM     15  C   UNL     1       1.771   8.309  20.490  0.00  0.00    +0.000 C 
ATOM     16  C   UNL     1       2.020   6.934  19.850  0.00  0.00    +0.000 C 
ATOM     17  H   UNL     1       0.111   8.711  19.383  0.00  0.00    +0.000 HD
ENDBRANCH   7  11
BRANCH   1  19
ATOM     18  C   UNL     1       7.780   8.155  17.710  0.00  0.00    +0.000 C 
ATOM     19  O   UNL     1       7.745   7.202  16.655  0.00  0.00    +0.000 OA
ENDBRANCH   1  19
TORSDOF 2
ENDMDL
MODEL 6
REMARK VINA RESULT:      -6.8      3.274      6.763
REMARK  Name = 
REMARK  3 active torsions:
REMARK  status: ('A' for Active; 'I' for Inactive)
REMARK    1  A    between atoms: C_1  and  O_2
REMARK    2  A    between atoms: O_2  and  C_3
REMARK    3  A    between atoms: C_9  and  C_10
REMARK                            x       y       z     vdW  Elec       q    Type
REMARK                         _______ _______ _______ _____ _____    ______ ____
ROOT
ATOM      1  C   UNL     1       5.825   3.514  12.509  0.00  0.00    +0.000 A 
ATOM      2  C   UNL     1       7.052   4.099  12.194  0.00  0.00    +0.000 A 
ATOM      3  C   UNL     1       7.740   4.891  13.123  0.00  0.00    +0.000 A 
ATOM      4  C   UNL     1       7.151   5.081  14.378  0.00  0.00    +0.000 A 
ATOM      5  N   UNL     1       7.586   5.815  15.460  0.00  0.00    +0.000 N 
ATOM      6  C   UNL     1       6.679   5.732  16.484  0.00  0.00    +0.000 A 
ATOM      7  C   UNL     1       5.648   4.922  16.064  0.00  0.00    +0.000 A 
ATOM      8  C   UNL     1       5.930   4.507  14.730  0.00  0.00    +0.000 A 
ATOM      9  C   UNL     1       5.265   3.706  13.779  0.00  0.00    +0.000 A 
ATOM     10  H   UNL     1       8.443   6.348  15.482  0.00  0.00    +0.000 HD
ENDROOT
BRANCH   7  11
ATOM     11  C   UNL     1       4.503   4.611  16.847  0.00  0.00    +0.000 C 
ATOM     12  C   UNL     1       3.692   5.538  17.386  0.00  0.00    +0.000 C 
ATOM     13  C   UNL     1       2.490   5.198  18.213  0.00  0.00    +0.000 C 
ATOM     14  N   UNL     1       2.109   3.782  18.167  0.00  0.00    +0.000 NA
ATOM     15  C   UNL     1       3.296   2.921  18.256  0.00  0.00    +0.000 C 
ATOM     16  C   UNL     1       4.254   3.142  17.074  0.00  0.00    +0.000 C 
ATOM     17  H   UNL     1       1.652   3.610  17.271  0.00  0.00    +0.000 HD
ENDBRANCH   7  11
BRANCH   1  19
ATOM     18  C   UNL     1       3.887   3.317  11.146  0.00  0.00    +0.000 C 
ATOM     19  O   UNL     1       5.073   2.733  11.671  0.00  0.00    +0.000 OA
ENDBRANCH   1  19
TORSDOF 2
ENDMDL
MODEL 7
REMARK VINA RESULT:      -6.8      2.238      3.132
REMARK  Name = 
REMARK  3 active torsions:
REMARK  status: ('A' for Active; 'I' for Inactive)
REMARK    1  A    between atoms: C_1  and  O_2
REMARK    2  A    between atoms: O_2  and  C_3
REMARK    3  A    between atoms: C_9  and  C_10
REMARK                            x       y       z     vdW  Elec       q    Type
REMARK                         _______ _______ _______ _____ _____    ______ ____
ROOT
ATOM      1  C   UNL     1       2.882   3.786  20.447  0.00  0.00    +0.000 A 
ATOM      2  C   UNL     1       1.908   4.643  20.960  0.00  0.00    +0.000 A 
ATOM      3  C   UNL     1       1.715   5.925  20.429  0.00  0.00    +0.000 A 
ATOM      4  C   UNL     1       2.537   6.320  19.368  0.00  0.00    +0.000 A 
ATOM      5  N   UNL     1       2.582   7.510  18.675  0.00  0.00    +0.000 N 
ATOM      6  C   UNL     1       3.560   7.464  17.717  0.00  0.00    +0.000 A 
ATOM      7  C   UNL     1       4.149   6.222  17.780  0.00  0.00    +0.000 A 
ATOM      8  C   UNL     1       3.516   5.487  18.825  0.00  0.00    +0.000 A 
ATOM      9  C   UNL     1       3.681   4.199  19.373  0.00  0.00    +0.000 A 
ATOM     10  H   UNL     1       1.987   8.304  18.863  0.00  0.00    +0.000 HD
ENDROOT
BRANCH   7  11
ATOM     11  C   UNL     1       5.224   5.801  16.951  0.00  0.00    +0.000 C 
ATOM     12  C   UNL     1       5.107   5.582  15.630  0.00  0.00    +0.000 C 
ATOM     13  C   UNL     1       6.247   5.135  14.767  0.00  0.00    +0.000 C 
ATOM     14  N   UNL     1       7.561   5.213  15.416  0.00  0.00    +0.000 NA
ATOM     15  C   UNL     1       7.487   4.726  16.800  0.00  0.00    +0.000 C 
ATOM     16  C   UNL     1       6.537   5.578  17.657  0.00  0.00    +0.000 C 
ATOM     17  H   UNL     1       7.842   6.193  15.434  0.00  0.00    +0.000 HD
ENDBRANCH   7  11
BRANCH   1  19
ATOM     18  C   UNL     1       4.413   1.969  20.538  0.00  0.00    +0.000 C 
ATOM     19  O   UNL     1       3.154   2.521  20.900  0.00  0.00    +0.000 OA
ENDBRANCH   1  19
TORSDOF 2
ENDMDL
MODEL 8
REMARK VINA RESULT:      -6.8      0.923      1.175
REMARK  Name = 
REMARK  3 active torsions:
REMARK  status: ('A' for Active; 'I' for Inactive)
REMARK    1  A    between atoms: C_1  and  O_2
REMARK    2  A    between atoms: O_2  and  C_3
REMARK    3  A    between atoms: C_9  and  C_10
REMARK                            x       y       z     vdW  Elec       q    Type
REMARK                         _______ _______ _______ _____ _____    ______ ____
ROOT
ATOM      1  C   UNL     1       1.698   5.080  20.389  0.00  0.00    +0.000 A 
ATOM      2  C   UNL     1       1.143   3.887  20.852  0.00  0.00    +0.000 A 
ATOM      3  C   UNL     1       1.484   2.655  20.276  0.00  0.00    +0.000 A 
ATOM      4  C   UNL     1       2.396   2.663  19.216  0.00  0.00    +0.000 A 
ATOM      5  N   UNL     1       2.888   1.621  18.461  0.00  0.00    +0.000 N 
ATOM      6  C   UNL     1       3.755   2.093  17.510  0.00  0.00    +0.000 A 
ATOM      7  C   UNL     1       3.835   3.459  17.659  0.00  0.00    +0.000 A 
ATOM      8  C   UNL     1       2.975   3.836  18.731  0.00  0.00    +0.000 A 
ATOM      9  C   UNL     1       2.622   5.059  19.337  0.00  0.00    +0.000 A 
ATOM     10  H   UNL     1       2.631   0.653  18.585  0.00  0.00    +0.000 HD
ENDROOT
BRANCH   7  11
ATOM     11  C   UNL     1       4.624   4.310  16.838  0.00  0.00    +0.000 C 
ATOM     12  C   UNL     1       4.504   5.649  16.817  0.00  0.00    +0.000 C 
ATOM     13  C   UNL     1       5.339   6.535  15.944  0.00  0.00    +0.000 C 
ATOM     14  N   UNL     1       6.479   5.859  15.314  0.00  0.00    +0.000 NA
ATOM     15  C   UNL     1       6.085   4.537  14.810  0.00  0.00    +0.000 C 
ATOM     16  C   UNL     1       5.612   3.610  15.941  0.00  0.00    +0.000 C 
ATOM     17  H   UNL     1       7.198   5.731  16.026  0.00  0.00    +0.000 HD
ENDBRANCH   7  11
BRANCH   1  19
ATOM     18  C   UNL     1       1.969   7.431  20.158  0.00  0.00    +0.000 C 
ATOM     19  O   UNL     1       1.425   6.331  20.878  0.00  0.00    +0.000 OA
ENDBRANCH   1  19
TORSDOF 2
ENDMDL
MODEL 9
REMARK VINA RESULT:      -6.7      0.934      1.511
REMARK  Name = 
REMARK  3 active torsions:
REMARK  status: ('A' for Active; 'I' for Inactive)
REMARK    1  A    between atoms: C_1  and  O_2
REMARK    2  A    between atoms: O_2  and  C_3
REMARK    3  A    between atoms: C_9  and  C_10
REMARK                            x       y       z     vdW  Elec       q    Type
REMARK                         _______ _______ _______ _____ _____    ______ ____
ROOT
ATOM      1  C   UNL     1       2.102   6.390  20.042  0.00  0.00    +0.000 A 
ATOM      2  C   UNL     1       1.269   5.410  20.580  0.00  0.00    +0.000 A 
ATOM      3  C   UNL     1       1.425   4.058  20.245  0.00  0.00    +0.000 A 
ATOM      4  C   UNL     1       2.444   3.725  19.346  0.00  0.00    +0.000 A 
ATOM      5  N   UNL     1       2.808   2.499  18.832  0.00  0.00    +0.000 N 
ATOM      6  C   UNL     1       3.861   2.643  17.967  0.00  0.00    +0.000 A 
ATOM      7  C   UNL     1       4.192   3.978  17.929  0.00  0.00    +0.000 A 
ATOM      8  C   UNL     1       3.300   4.677  18.793  0.00  0.00    +0.000 A 
ATOM      9  C   UNL     1       3.125   6.028  19.156  0.00  0.00    +0.000 A 
ATOM     10  H   UNL     1       2.350   1.627  19.053  0.00  0.00    +0.000 HD
ENDROOT
BRANCH   7  11
ATOM     11  C   UNL     1       5.230   4.524  17.125  0.00  0.00    +0.000 C 
ATOM     12  C   UNL     1       6.171   5.364  17.590  0.00  0.00    +0.000 C 
ATOM     13  C   UNL     1       7.257   5.936  16.731  0.00  0.00    +0.000 C 
ATOM     14  N   UNL     1       7.379   5.304  15.412  0.00  0.00    +0.000 NA
ATOM     15  C   UNL     1       6.054   5.077  14.820  0.00  0.00    +0.000 C 
ATOM     16  C   UNL     1       5.201   4.124  15.673  0.00  0.00    +0.000 C 
ATOM     17  H   UNL     1       7.833   4.400  15.541  0.00  0.00    +0.000 HD
ENDBRANCH   7  11
BRANCH   1  19
ATOM     18  C   UNL     1       1.056   8.149  21.253  0.00  0.00    +0.000 C 
ATOM     19  O   UNL     1       2.026   7.734  20.299  0.00  0.00    +0.000 OA
ENDBRANCH   1  19
TORSDOF 2
ENDMDL
