MODEL 1
REMARK VINA RESULT:      -8.4      0.000      0.000
REMARK  Name = 
REMARK  8 active torsions:
REMARK  status: ('A' for Active; 'I' for Inactive)
REMARK    1  A    between atoms: C_1  and  O_2
REMARK    2  A    between atoms: O_2  and  C_3
REMARK    3  A    between atoms: N_16  and  C_17
REMARK    4  A    between atoms: C_17  and  C_18
REMARK    5  A    between atoms: C_18  and  C_19
REMARK    6  A    between atoms: C_20  and  C_21
REMARK    7  A    between atoms: C_23  and  C_24
REMARK    8  A    between atoms: C_26  and  C_27
REMARK                            x       y       z     vdW  Elec       q    Type
REMARK                         _______ _______ _______ _____ _____    ______ ____
ROOT
ATOM      1  C   UNL     1       6.958   5.056  15.130  0.00  0.00    +0.000 A 
ATOM      2  C   UNL     1       5.739   4.647  14.581  0.00  0.00    +0.000 A 
ATOM      3  C   UNL     1       4.617   4.479  15.392  0.00  0.00    +0.000 A 
ATOM      4  C   UNL     1       4.696   4.719  16.773  0.00  0.00    +0.000 A 
ATOM      5  C   UNL     1       5.911   5.172  17.337  0.00  0.00    +0.000 A 
ATOM      6  C   UNL     1       7.037   5.319  16.513  0.00  0.00    +0.000 A 
ATOM      7  C   UNL     1       6.030   5.496  18.816  0.00  0.00    +0.000 C 
ATOM      8  C   UNL     1       4.655   5.555  19.542  0.00  0.00    +0.000 C 
ATOM      9  C   UNL     1       3.727   4.365  19.159  0.00  0.00    +0.000 C 
ATOM     10  C   UNL     1       4.520   3.050  19.487  0.00  0.00    +0.000 C 
ATOM     11  C   UNL     1       3.699   1.799  19.221  0.00  0.00    +0.000 C 
ATOM     12  C   UNL     1       2.458   1.853  20.084  0.00  0.00    +0.000 C 
ATOM     13  C   UNL     1       1.649   3.097  19.745  0.00  0.00    +0.000 C 
ATOM     14  N   UNL     1       2.430   4.359  19.945  0.00  0.00    +0.000 NA
ATOM     15  C   UNL     1       3.519   4.478  17.644  0.00  0.00    +0.000 C 
ATOM     16  O   UNL     1       2.416   4.362  17.136  0.00  0.00    +0.000 OA
ENDROOT
BRANCH   1  18
ATOM     17  C   UNL     1       7.964   5.304  12.929  0.00  0.00    +0.000 C 
ATOM     18  O   UNL     1       8.026   5.183  14.301  0.00  0.00    +0.000 OA
ENDBRANCH   1  18
BRANCH  14  19
ATOM     19  C   UNL     1       1.520   5.546  19.771  0.00  0.00    +0.000 C 
BRANCH  19  20
ATOM     20  C   UNL     1       2.150   6.831  20.383  0.00  0.00    +0.000 C 
BRANCH  20  21
ATOM     21  C   UNL     1       1.608   8.189  19.923  0.00  0.00    +0.000 A 
ATOM     22  C   UNL     1       1.903   8.704  18.620  0.00  0.00    +0.000 A 
ATOM     23  C   UNL     1       2.834   8.038  17.636  0.00  0.00    +0.000 C 
ATOM     24  C   UNL     1       1.267   9.874  18.167  0.00  0.00    +0.000 A 
ATOM     25  C   UNL     1       0.356  10.559  18.969  0.00  0.00    +0.000 A 
ATOM     26  C   UNL     1      -0.363  11.777  18.460  0.00  0.00    +0.000 C 
ATOM     27  C   UNL     1       0.091  10.090  20.256  0.00  0.00    +0.000 A 
ATOM     28  C   UNL     1       0.693   8.916  20.739  0.00  0.00    +0.000 A 
ATOM     29  C   UNL     1       0.328   8.460  22.130  0.00  0.00    +0.000 C 
ENDBRANCH  20  21
ENDBRANCH  19  20
ENDBRANCH  14  19
TORSDOF 4
ENDMDL
MODEL 2
REMARK VINA RESULT:      -8.3      0.220      1.643
REMARK  Name = 
REMARK  8 active torsions:
REMARK  status: ('A' for Active; 'I' for Inactive)
REMARK    1  A    between atoms: C_1  and  O_2
REMARK    2  A    between atoms: O_2  and  C_3
REMARK    3  A    between atoms: N_16  and  C_17
REMARK    4  A    between atoms: C_17  and  C_18
REMARK    5  A    between atoms: C_18  and  C_19
REMARK    6  A    between atoms: C_20  and  C_21
REMARK    7  A    between atoms: C_23  and  C_24
REMARK    8  A    between atoms: C_26  and  C_27
REMARK                            x       y       z     vdW  Elec       q    Type
REMARK                         _______ _______ _______ _____ _____    ______ ____
ROOT
ATOM      1  C   UNL     1       6.950   5.058  15.110  0.00  0.00    +0.000 A 
ATOM      2  C   UNL     1       5.730   4.644  14.569  0.00  0.00    +0.000 A 
ATOM      3  C   UNL     1       4.613   4.474  15.386  0.00  0.00    +0.000 A 
ATOM      4  C   UNL     1       4.698   4.718  16.766  0.00  0.00    +0.000 A 
ATOM      5  C   UNL     1       5.915   5.177  17.322  0.00  0.00    +0.000 A 
ATOM      6  C   UNL     1       7.036   5.326  16.492  0.00  0.00    +0.000 A 
ATOM      7  C   UNL     1       6.041   5.506  18.800  0.00  0.00    +0.000 C 
ATOM      8  C   UNL     1       4.669   5.562  19.533  0.00  0.00    +0.000 C 
ATOM      9  C   UNL     1       3.743   4.368  19.158  0.00  0.00    +0.000 C 
ATOM     10  C   UNL     1       4.542   3.057  19.486  0.00  0.00    +0.000 C 
ATOM     11  C   UNL     1       3.724   1.802  19.228  0.00  0.00    +0.000 C 
ATOM     12  C   UNL     1       2.487   1.855  20.097  0.00  0.00    +0.000 C 
ATOM     13  C   UNL     1       1.673   3.096  19.759  0.00  0.00    +0.000 C 
ATOM     14  N   UNL     1       2.450   4.361  19.952  0.00  0.00    +0.000 NA
ATOM     15  C   UNL     1       3.527   4.477  17.644  0.00  0.00    +0.000 C 
ATOM     16  O   UNL     1       2.421   4.356  17.143  0.00  0.00    +0.000 OA
ENDROOT
BRANCH   1  18
ATOM     17  C   UNL     1       7.945   5.281  12.901  0.00  0.00    +0.000 C 
ATOM     18  O   UNL     1       8.013   5.186  14.275  0.00  0.00    +0.000 OA
ENDBRANCH   1  18
BRANCH  14  19
ATOM     19  C   UNL     1       1.536   5.544  19.778  0.00  0.00    +0.000 C 
BRANCH  19  20
ATOM     20  C   UNL     1       2.218   6.856  20.266  0.00  0.00    +0.000 C 
BRANCH  20  21
ATOM     21  C   UNL     1       1.628   8.192  19.798  0.00  0.00    +0.000 A 
ATOM     22  C   UNL     1       0.784   8.972  20.653  0.00  0.00    +0.000 A 
ATOM     23  C   UNL     1       0.315   8.527  22.017  0.00  0.00    +0.000 C 
ATOM     24  C   UNL     1       0.387  10.262  20.259  0.00  0.00    +0.000 A 
ATOM     25  C   UNL     1       0.788  10.801  19.038  0.00  0.00    +0.000 A 
ATOM     26  C   UNL     1       0.408  12.203  18.646  0.00  0.00    +0.000 C 
ATOM     27  C   UNL     1       1.576  10.036  18.178  0.00  0.00    +0.000 A 
ATOM     28  C   UNL     1       2.008   8.749  18.542  0.00  0.00    +0.000 A 
ATOM     29  C   UNL     1       2.884   8.000  17.569  0.00  0.00    +0.000 C 
ENDBRANCH  20  21
ENDBRANCH  19  20
ENDBRANCH  14  19
TORSDOF 4
ENDMDL
MODEL 3
REMARK VINA RESULT:      -8.3      2.387      6.535
REMARK  Name = 
REMARK  8 active torsions:
REMARK  status: ('A' for Active; 'I' for Inactive)
REMARK    1  A    between atoms: C_1  and  O_2
REMARK    2  A    between atoms: O_2  and  C_3
REMARK    3  A    between atoms: N_16  and  C_17
REMARK    4  A    between atoms: C_17  and  C_18
REMARK    5  A    between atoms: C_18  and  C_19
REMARK    6  A    between atoms: C_20  and  C_21
REMARK    7  A    between atoms: C_23  and  C_24
REMARK    8  A    between atoms: C_26  and  C_27
REMARK                            x       y       z     vdW  Elec       q    Type
REMARK                         _______ _______ _______ _____ _____    ______ ____
ROOT
ATOM      1  C   UNL     1       0.776   9.477  20.067  0.00  0.00    +0.000 A 
ATOM      2  C   UNL     1       0.805   8.606  21.161  0.00  0.00    +0.000 A 
ATOM      3  C   UNL     1       1.466   7.382  21.076  0.00  0.00    +0.000 A 
ATOM      4  C   UNL     1       2.113   7.005  19.889  0.00  0.00    +0.000 A 
ATOM      5  C   UNL     1       2.128   7.891  18.787  0.00  0.00    +0.000 A 
ATOM      6  C   UNL     1       1.443   9.112  18.879  0.00  0.00    +0.000 A 
ATOM      7  C   UNL     1       2.861   7.550  17.501  0.00  0.00    +0.000 C 
ATOM      8  C   UNL     1       3.794   6.312  17.638  0.00  0.00    +0.000 C 
ATOM      9  C   UNL     1       3.110   5.131  18.388  0.00  0.00    +0.000 C 
ATOM     10  C   UNL     1       1.790   4.801  17.604  0.00  0.00    +0.000 C 
ATOM     11  C   UNL     1       1.049   3.613  18.194  0.00  0.00    +0.000 C 
ATOM     12  C   UNL     1       1.965   2.410  18.143  0.00  0.00    +0.000 C 
ATOM     13  C   UNL     1       3.231   2.693  18.941  0.00  0.00    +0.000 C 
ATOM     14  N   UNL     1       3.976   3.886  18.428  0.00  0.00    +0.000 NA
ATOM     15  C   UNL     1       2.763   5.675  19.779  0.00  0.00    +0.000 C 
ATOM     16  O   UNL     1       2.992   5.039  20.793  0.00  0.00    +0.000 OA
ENDROOT
BRANCH   1  18
ATOM     17  C   UNL     1       0.304  11.587  21.181  0.00  0.00    +0.000 C 
ATOM     18  O   UNL     1       0.099  10.646  20.193  0.00  0.00    +0.000 OA
ENDBRANCH   1  18
BRANCH  14  19
ATOM     19  C   UNL     1       5.298   3.996  19.139  0.00  0.00    +0.000 C 
BRANCH  19  20
ATOM     20  C   UNL     1       6.469   4.157  18.124  0.00  0.00    +0.000 C 
BRANCH  20  21
ATOM     21  C   UNL     1       7.118   5.538  17.987  0.00  0.00    +0.000 A 
ATOM     22  C   UNL     1       6.879   6.362  16.840  0.00  0.00    +0.000 A 
ATOM     23  C   UNL     1       6.075   5.928  15.638  0.00  0.00    +0.000 C 
ATOM     24  C   UNL     1       7.359   7.684  16.812  0.00  0.00    +0.000 A 
ATOM     25  C   UNL     1       8.081   8.214  17.880  0.00  0.00    +0.000 A 
ATOM     26  C   UNL     1       8.544   9.644  17.870  0.00  0.00    +0.000 C 
ATOM     27  C   UNL     1       8.356   7.408  18.986  0.00  0.00    +0.000 A 
ATOM     28  C   UNL     1       7.880   6.089  19.059  0.00  0.00    +0.000 A 
ATOM     29  C   UNL     1       8.195   5.296  20.303  0.00  0.00    +0.000 C 
ENDBRANCH  20  21
ENDBRANCH  19  20
ENDBRANCH  14  19
TORSDOF 4
ENDMDL
MODEL 4
REMARK VINA RESULT:      -7.9      3.725      7.467
REMARK  Name = 
REMARK  8 active torsions:
REMARK  status: ('A' for Active; 'I' for Inactive)
REMARK    1  A    between atoms: C_1  and  O_2
REMARK    2  A    between atoms: O_2  and  C_3
REMARK    3  A    between atoms: N_16  and  C_17
REMARK    4  A    between atoms: C_17  and  C_18
REMARK    5  A    between atoms: C_18  and  C_19
REMARK    6  A    between atoms: C_20  and  C_21
REMARK    7  A    between atoms: C_23  and  C_24
REMARK    8  A    between atoms: C_26  and  C_27
REMARK                            x       y       z     vdW  Elec       q    Type
REMARK                         _______ _______ _______ _____ _____    ______ ____
ROOT
ATOM      1  C   UNL     1       2.311   5.754  19.618  0.00  0.00    +0.000 A 
ATOM      2  C   UNL     1       2.629   6.315  18.377  0.00  0.00    +0.000 A 
ATOM      3  C   UNL     1       2.383   7.664  18.125  0.00  0.00    +0.000 A 
ATOM      4  C   UNL     1       1.813   8.479  19.115  0.00  0.00    +0.000 A 
ATOM      5  C   UNL     1       1.522   7.936  20.388  0.00  0.00    +0.000 A 
ATOM      6  C   UNL     1       1.757   6.573  20.623  0.00  0.00    +0.000 A 
ATOM      7  C   UNL     1       0.954   8.792  21.508  0.00  0.00    +0.000 C 
ATOM      8  C   UNL     1       1.007  10.317  21.200  0.00  0.00    +0.000 C 
ATOM      9  C   UNL     1       0.533  10.650  19.755  0.00  0.00    +0.000 C 
ATOM     10  C   UNL     1      -0.915  10.060  19.607  0.00  0.00    +0.000 C 
ATOM     11  C   UNL     1      -1.531  10.374  18.254  0.00  0.00    +0.000 C 
ATOM     12  C   UNL     1      -1.594  11.877  18.098  0.00  0.00    +0.000 C 
ATOM     13  C   UNL     1      -0.191  12.463  18.188  0.00  0.00    +0.000 C 
ATOM     14  N   UNL     1       0.480  12.142  19.487  0.00  0.00    +0.000 NA
ATOM     15  C   UNL     1       1.493   9.899  18.824  0.00  0.00    +0.000 C 
ATOM     16  O   UNL     1       1.989  10.433  17.846  0.00  0.00    +0.000 OA
ENDROOT
BRANCH   1  18
ATOM     17  C   UNL     1       1.755   3.570  20.533  0.00  0.00    +0.000 C 
ATOM     18  O   UNL     1       2.549   4.430  19.805  0.00  0.00    +0.000 OA
ENDBRANCH   1  18
BRANCH  14  19
ATOM     19  C   UNL     1       1.777  12.900  19.582  0.00  0.00    +0.000 C 
BRANCH  19  20
ATOM     20  C   UNL     1       1.582  14.256  20.322  0.00  0.00    +0.000 C 
BRANCH  20  21
ATOM     21  C   UNL     1       1.211  15.486  19.486  0.00  0.00    +0.000 A 
ATOM     22  C   UNL     1       2.183  16.158  18.678  0.00  0.00    +0.000 A 
ATOM     23  C   UNL     1       3.651  15.804  18.649  0.00  0.00    +0.000 C 
ATOM     24  C   UNL     1       1.782  17.182  17.802  0.00  0.00    +0.000 A 
ATOM     25  C   UNL     1       0.448  17.573  17.709  0.00  0.00    +0.000 A 
ATOM     26  C   UNL     1       0.015  18.631  16.731  0.00  0.00    +0.000 C 
ATOM     27  C   UNL     1      -0.504  16.955  18.521  0.00  0.00    +0.000 A 
ATOM     28  C   UNL     1      -0.146  15.916  19.396  0.00  0.00    +0.000 A 
ATOM     29  C   UNL     1      -1.240  15.278  20.215  0.00  0.00    +0.000 C 
ENDBRANCH  20  21
ENDBRANCH  19  20
ENDBRANCH  14  19
TORSDOF 4
ENDMDL
MODEL 5
REMARK VINA RESULT:      -7.6      3.669      7.386
REMARK  Name = 
REMARK  8 active torsions:
REMARK  status: ('A' for Active; 'I' for Inactive)
REMARK    1  A    between atoms: C_1  and  O_2
REMARK    2  A    between atoms: O_2  and  C_3
REMARK    3  A    between atoms: N_16  and  C_17
REMARK    4  A    between atoms: C_17  and  C_18
REMARK    5  A    between atoms: C_18  and  C_19
REMARK    6  A    between atoms: C_20  and  C_21
REMARK    7  A    between atoms: C_23  and  C_24
REMARK    8  A    between atoms: C_26  and  C_27
REMARK                            x       y       z     vdW  Elec       q    Type
REMARK                         _______ _______ _______ _____ _____    ______ ____
ROOT
ATOM      1  C   UNL     1       2.380   5.565  19.401  0.00  0.00    +0.000 A 
ATOM      2  C   UNL     1       2.671   6.205  18.193  0.00  0.00    +0.000 A 
ATOM      3  C   UNL     1       2.432   7.570  18.037  0.00  0.00    +0.000 A 
ATOM      4  C   UNL     1       1.895   8.322  19.094  0.00  0.00    +0.000 A 
ATOM      5  C   UNL     1       1.633   7.697  20.336  0.00  0.00    +0.000 A 
ATOM      6  C   UNL     1       1.861   6.320  20.473  0.00  0.00    +0.000 A 
ATOM      7  C   UNL     1       1.103   8.480  21.525  0.00  0.00    +0.000 C 
ATOM      8  C   UNL     1       1.163  10.022  21.318  0.00  0.00    +0.000 C 
ATOM      9  C   UNL     1       0.654  10.455  19.911  0.00  0.00    +0.000 C 
ATOM     10  C   UNL     1      -0.803   9.888  19.764  0.00  0.00    +0.000 C 
ATOM     11  C   UNL     1      -1.451  10.296  18.452  0.00  0.00    +0.000 C 
ATOM     12  C   UNL     1      -1.504  11.807  18.398  0.00  0.00    +0.000 C 
ATOM     13  C   UNL     1      -0.093  12.374  18.489  0.00  0.00    +0.000 C 
ATOM     14  N   UNL     1       0.608  11.962  19.746  0.00  0.00    +0.000 NA
ATOM     15  C   UNL     1       1.583   9.760  18.908  0.00  0.00    +0.000 C 
ATOM     16  O   UNL     1       2.058  10.354  17.955  0.00  0.00    +0.000 OA
ENDROOT
BRANCH   1  18
ATOM     17  C   UNL     1       1.828   3.243  18.931  0.00  0.00    +0.000 C 
ATOM     18  O   UNL     1       2.610   4.230  19.493  0.00  0.00    +0.000 OA
ENDBRANCH   1  18
BRANCH  14  19
ATOM     19  C   UNL     1       1.915  12.701  19.856  0.00  0.00    +0.000 C 
BRANCH  19  20
ATOM     20  C   UNL     1       1.692  14.167  20.333  0.00  0.00    +0.000 C 
BRANCH  20  21
ATOM     21  C   UNL     1       1.418  15.236  19.269  0.00  0.00    +0.000 A 
ATOM     22  C   UNL     1       0.136  15.864  19.160  0.00  0.00    +0.000 A 
ATOM     23  C   UNL     1      -1.071  15.477  19.980  0.00  0.00    +0.000 C 
ATOM     24  C   UNL     1      -0.042  16.950  18.284  0.00  0.00    +0.000 A 
ATOM     25  C   UNL     1       1.008  17.427  17.501  0.00  0.00    +0.000 A 
ATOM     26  C   UNL     1       0.829  18.623  16.607  0.00  0.00    +0.000 C 
ATOM     27  C   UNL     1       2.252  16.797  17.568  0.00  0.00    +0.000 A 
ATOM     28  C   UNL     1       2.473  15.721  18.443  0.00  0.00    +0.000 A 
ATOM     29  C   UNL     1       3.855  15.117  18.478  0.00  0.00    +0.000 C 
ENDBRANCH  20  21
ENDBRANCH  19  20
ENDBRANCH  14  19
TORSDOF 4
ENDMDL
MODEL 6
REMARK VINA RESULT:      -7.5      2.464      6.636
REMARK  Name = 
REMARK  8 active torsions:
REMARK  status: ('A' for Active; 'I' for Inactive)
REMARK    1  A    between atoms: C_1  and  O_2
REMARK    2  A    between atoms: O_2  and  C_3
REMARK    3  A    between atoms: N_16  and  C_17
REMARK    4  A    between atoms: C_17  and  C_18
REMARK    5  A    between atoms: C_18  and  C_19
REMARK    6  A    between atoms: C_20  and  C_21
REMARK    7  A    between atoms: C_23  and  C_24
REMARK    8  A    between atoms: C_26  and  C_27
REMARK                            x       y       z     vdW  Elec       q    Type
REMARK                         _______ _______ _______ _____ _____    ______ ____
ROOT
ATOM      1  C   UNL     1       0.663   9.335  20.380  0.00  0.00    +0.000 A 
ATOM      2  C   UNL     1       0.747   8.411  21.425  0.00  0.00    +0.000 A 
ATOM      3  C   UNL     1       1.434   7.209  21.257  0.00  0.00    +0.000 A 
ATOM      4  C   UNL     1       2.052   6.911  20.032  0.00  0.00    +0.000 A 
ATOM      5  C   UNL     1       2.010   7.853  18.978  0.00  0.00    +0.000 A 
ATOM      6  C   UNL     1       1.300   9.049  19.155  0.00  0.00    +0.000 A 
ATOM      7  C   UNL     1       2.709   7.597  17.653  0.00  0.00    +0.000 C 
ATOM      8  C   UNL     1       3.675   6.377  17.696  0.00  0.00    +0.000 C 
ATOM      9  C   UNL     1       3.044   5.142  18.404  0.00  0.00    +0.000 C 
ATOM     10  C   UNL     1       1.708   4.820  17.645  0.00  0.00    +0.000 C 
ATOM     11  C   UNL     1       1.015   3.584  18.195  0.00  0.00    +0.000 C 
ATOM     12  C   UNL     1       1.957   2.409  18.053  0.00  0.00    +0.000 C 
ATOM     13  C   UNL     1       3.241   2.683  18.825  0.00  0.00    +0.000 C 
ATOM     14  N   UNL     1       3.940   3.919  18.353  0.00  0.00    +0.000 NA
ATOM     15  C   UNL     1       2.729   5.605  19.832  0.00  0.00    +0.000 C 
ATOM     16  O   UNL     1       3.006   4.923  20.804  0.00  0.00    +0.000 OA
ENDROOT
BRANCH   1  18
ATOM     17  C   UNL     1       0.511  11.733  20.756  0.00  0.00    +0.000 C 
ATOM     18  O   UNL     1      -0.037  10.479  20.589  0.00  0.00    +0.000 OA
ENDBRANCH   1  18
BRANCH  14  19
ATOM     19  C   UNL     1       5.282   4.026  19.027  0.00  0.00    +0.000 C 
BRANCH  19  20
ATOM     20  C   UNL     1       6.390   4.426  18.009  0.00  0.00    +0.000 C 
BRANCH  20  21
ATOM     21  C   UNL     1       6.946   5.853  18.073  0.00  0.00    +0.000 A 
ATOM     22  C   UNL     1       7.829   6.261  19.123  0.00  0.00    +0.000 A 
ATOM     23  C   UNL     1       8.208   5.392  20.297  0.00  0.00    +0.000 C 
ATOM     24  C   UNL     1       8.447   7.524  19.070  0.00  0.00    +0.000 A 
ATOM     25  C   UNL     1       8.209   8.402  18.014  0.00  0.00    +0.000 A 
ATOM     26  C   UNL     1       8.914   9.727  17.933  0.00  0.00    +0.000 C 
ATOM     27  C   UNL     1       7.318   8.032  17.005  0.00  0.00    +0.000 A 
ATOM     28  C   UNL     1       6.694   6.774  17.014  0.00  0.00    +0.000 A 
ATOM     29  C   UNL     1       5.770   6.440  15.869  0.00  0.00    +0.000 C 
ENDBRANCH  20  21
ENDBRANCH  19  20
ENDBRANCH  14  19
TORSDOF 4
ENDMDL
MODEL 7
REMARK VINA RESULT:      -7.1      3.598      7.257
REMARK  Name = 
REMARK  8 active torsions:
REMARK  status: ('A' for Active; 'I' for Inactive)
REMARK    1  A    between atoms: C_1  and  O_2
REMARK    2  A    between atoms: O_2  and  C_3
REMARK    3  A    between atoms: N_16  and  C_17
REMARK    4  A    between atoms: C_17  and  C_18
REMARK    5  A    between atoms: C_18  and  C_19
REMARK    6  A    between atoms: C_20  and  C_21
REMARK    7  A    between atoms: C_23  and  C_24
REMARK    8  A    between atoms: C_26  and  C_27
REMARK                            x       y       z     vdW  Elec       q    Type
REMARK                         _______ _______ _______ _____ _____    ______ ____
ROOT
ATOM      1  C   UNL     1       2.556   6.022  19.423  0.00  0.00    +0.000 A 
ATOM      2  C   UNL     1       2.939   6.714  18.270  0.00  0.00    +0.000 A 
ATOM      3  C   UNL     1       2.606   8.058  18.106  0.00  0.00    +0.000 A 
ATOM      4  C   UNL     1       1.880   8.736  19.098  0.00  0.00    +0.000 A 
ATOM      5  C   UNL     1       1.520   8.061  20.287  0.00  0.00    +0.000 A 
ATOM      6  C   UNL     1       1.845   6.704  20.432  0.00  0.00    +0.000 A 
ATOM      7  C   UNL     1       0.781   8.768  21.411  0.00  0.00    +0.000 C 
ATOM      8  C   UNL     1       0.734  10.314  21.236  0.00  0.00    +0.000 C 
ATOM      9  C   UNL     1       0.369  10.738  19.783  0.00  0.00    +0.000 C 
ATOM     10  C   UNL     1      -1.004  10.056  19.445  0.00  0.00    +0.000 C 
ATOM     11  C   UNL     1      -1.517  10.442  18.068  0.00  0.00    +0.000 C 
ATOM     12  C   UNL     1      -1.691  11.944  18.029  0.00  0.00    +0.000 C 
ATOM     13  C   UNL     1      -0.357  12.624  18.306  0.00  0.00    +0.000 C 
ATOM     14  N   UNL     1       0.216  12.240  19.634  0.00  0.00    +0.000 NA
ATOM     15  C   UNL     1       1.471  10.148  18.894  0.00  0.00    +0.000 C 
ATOM     16  O   UNL     1       2.008  10.803  18.017  0.00  0.00    +0.000 OA
ENDROOT
BRANCH   1  18
ATOM     17  C   UNL     1       3.981   4.111  18.938  0.00  0.00    +0.000 C 
ATOM     18  O   UNL     1       2.885   4.709  19.524  0.00  0.00    +0.000 OA
ENDBRANCH   1  18
BRANCH  14  19
ATOM     19  C   UNL     1       1.431  13.081  19.919  0.00  0.00    +0.000 C 
BRANCH  19  20
ATOM     20  C   UNL     1       1.163  14.078  21.085  0.00  0.00    +0.000 C 
BRANCH  20  21
ATOM     21  C   UNL     1      -0.185  14.809  21.113  0.00  0.00    +0.000 A 
ATOM     22  C   UNL     1      -0.458  15.898  20.225  0.00  0.00    +0.000 A 
ATOM     23  C   UNL     1       0.553  16.492  19.275  0.00  0.00    +0.000 C 
ATOM     24  C   UNL     1      -1.752  16.445  20.163  0.00  0.00    +0.000 A 
ATOM     25  C   UNL     1      -2.784  15.956  20.962  0.00  0.00    +0.000 A 
ATOM     26  C   UNL     1      -4.179  16.507  20.852  0.00  0.00    +0.000 C 
ATOM     27  C   UNL     1      -2.520  14.922  21.861  0.00  0.00    +0.000 A 
ATOM     28  C   UNL     1      -1.245  14.338  21.941  0.00  0.00    +0.000 A 
ATOM     29  C   UNL     1      -1.052  13.204  22.917  0.00  0.00    +0.000 C 
ENDBRANCH  20  21
ENDBRANCH  19  20
ENDBRANCH  14  19
TORSDOF 4
ENDMDL
MODEL 8
REMARK VINA RESULT:      -7.1      3.805      9.023
REMARK  Name = 
REMARK  8 active torsions:
REMARK  status: ('A' for Active; 'I' for Inactive)
REMARK    1  A    between atoms: C_1  and  O_2
REMARK    2  A    between atoms: O_2  and  C_3
REMARK    3  A    between atoms: N_16  and  C_17
REMARK    4  A    between atoms: C_17  and  C_18
REMARK    5  A    between atoms: C_18  and  C_19
REMARK    6  A    between atoms: C_20  and  C_21
REMARK    7  A    between atoms: C_23  and  C_24
REMARK    8  A    between atoms: C_26  and  C_27
REMARK                            x       y       z     vdW  Elec       q    Type
REMARK                         _______ _______ _______ _____ _____    ______ ____
ROOT
ATOM      1  C   UNL     1       0.508  15.883  18.962  0.00  0.00    +0.000 A 
ATOM      2  C   UNL     1       1.549  15.620  19.857  0.00  0.00    +0.000 A 
ATOM      3  C   UNL     1       1.734  14.338  20.372  0.00  0.00    +0.000 A 
ATOM      4  C   UNL     1       0.876  13.291  19.998  0.00  0.00    +0.000 A 
ATOM      5  C   UNL     1      -0.157  13.533  19.063  0.00  0.00    +0.000 A 
ATOM      6  C   UNL     1      -0.344  14.831  18.566  0.00  0.00    +0.000 A 
ATOM      7  C   UNL     1      -1.077  12.420  18.587  0.00  0.00    +0.000 C 
ATOM      8  C   UNL     1      -0.585  11.002  18.999  0.00  0.00    +0.000 C 
ATOM      9  C   UNL     1      -0.121  10.940  20.484  0.00  0.00    +0.000 C 
ATOM     10  C   UNL     1      -1.332  11.430  21.356  0.00  0.00    +0.000 C 
ATOM     11  C   UNL     1      -1.038  11.357  22.845  0.00  0.00    +0.000 C 
ATOM     12  C   UNL     1      -0.728   9.918  23.198  0.00  0.00    +0.000 C 
ATOM     13  C   UNL     1       0.476   9.441  22.397  0.00  0.00    +0.000 C 
ATOM     14  N   UNL     1       0.255   9.537  20.920  0.00  0.00    +0.000 NA
ATOM     15  C   UNL     1       1.034  11.942  20.595  0.00  0.00    +0.000 C 
ATOM     16  O   UNL     1       2.072  11.664  21.173  0.00  0.00    +0.000 OA
ENDROOT
BRANCH   1  18
ATOM     17  C   UNL     1      -0.814  17.697  18.024  0.00  0.00    +0.000 C 
ATOM     18  O   UNL     1       0.357  17.154  18.507  0.00  0.00    +0.000 OA
ENDBRANCH   1  18
BRANCH  14  19
ATOM     19  C   UNL     1       1.402   8.882  20.197  0.00  0.00    +0.000 C 
BRANCH  19  20
ATOM     20  C   UNL     1       1.510   7.373  20.567  0.00  0.00    +0.000 C 
BRANCH  20  21
ATOM     21  C   UNL     1       2.371   6.472  19.675  0.00  0.00    +0.000 A 
ATOM     22  C   UNL     1       2.625   5.106  20.022  0.00  0.00    +0.000 A 
ATOM     23  C   UNL     1       2.177   4.462  21.311  0.00  0.00    +0.000 C 
ATOM     24  C   UNL     1       3.283   4.261  19.110  0.00  0.00    +0.000 A 
ATOM     25  C   UNL     1       3.710   4.728  17.869  0.00  0.00    +0.000 A 
ATOM     26  C   UNL     1       4.363   3.807  16.875  0.00  0.00    +0.000 C 
ATOM     27  C   UNL     1       3.505   6.068  17.535  0.00  0.00    +0.000 A 
ATOM     28  C   UNL     1       2.837   6.939  18.411  0.00  0.00    +0.000 A 
ATOM     29  C   UNL     1       2.628   8.364  17.961  0.00  0.00    +0.000 C 
ENDBRANCH  20  21
ENDBRANCH  19  20
ENDBRANCH  14  19
TORSDOF 4
ENDMDL
MODEL 9
REMARK VINA RESULT:      -7.1      3.888      9.022
REMARK  Name = 
REMARK  8 active torsions:
REMARK  status: ('A' for Active; 'I' for Inactive)
REMARK    1  A    between atoms: C_1  and  O_2
REMARK    2  A    between atoms: O_2  and  C_3
REMARK    3  A    between atoms: N_16  and  C_17
REMARK    4  A    between atoms: C_17  and  C_18
REMARK    5  A    between atoms: C_18  and  C_19
REMARK    6  A    between atoms: C_20  and  C_21
REMARK    7  A    between atoms: C_23  and  C_24
REMARK    8  A    between atoms: C_26  and  C_27
REMARK                            x       y       z     vdW  Elec       q    Type
REMARK                         _______ _______ _______ _____ _____    ______ ____
ROOT
ATOM      1  C   UNL     1       0.420  16.116  19.176  0.00  0.00    +0.000 A 
ATOM      2  C   UNL     1       1.519  15.783  19.973  0.00  0.00    +0.000 A 
ATOM      3  C   UNL     1       1.719  14.468  20.392  0.00  0.00    +0.000 A 
ATOM      4  C   UNL     1       0.817  13.459  20.018  0.00  0.00    +0.000 A 
ATOM      5  C   UNL     1      -0.277  13.773  19.179  0.00  0.00    +0.000 A 
ATOM      6  C   UNL     1      -0.477  15.103  18.780  0.00  0.00    +0.000 A 
ATOM      7  C   UNL     1      -1.249  12.705  18.705  0.00  0.00    +0.000 C 
ATOM      8  C   UNL     1      -0.753  11.257  18.990  0.00  0.00    +0.000 C 
ATOM      9  C   UNL     1      -0.182  11.094  20.429  0.00  0.00    +0.000 C 
ATOM     10  C   UNL     1      -1.317  11.543  21.418  0.00  0.00    +0.000 C 
ATOM     11  C   UNL     1      -0.915  11.371  22.873  0.00  0.00    +0.000 C 
ATOM     12  C   UNL     1      -0.605   9.910  23.111  0.00  0.00    +0.000 C 
ATOM     13  C   UNL     1       0.528   9.469  22.194  0.00  0.00    +0.000 C 
ATOM     14  N   UNL     1       0.200   9.661  20.746  0.00  0.00    +0.000 NA
ATOM     15  C   UNL     1       0.996  12.072  20.516  0.00  0.00    +0.000 C 
ATOM     16  O   UNL     1       2.068  11.745  20.996  0.00  0.00    +0.000 OA
ENDROOT
BRANCH   1  18
ATOM     17  C   UNL     1      -0.107  17.857  17.561  0.00  0.00    +0.000 C 
ATOM     18  O   UNL     1       0.258  17.415  18.815  0.00  0.00    +0.000 OA
ENDBRANCH   1  18
BRANCH  14  19
ATOM     19  C   UNL     1       1.279   9.039  19.901  0.00  0.00    +0.000 C 
BRANCH  19  20
ATOM     20  C   UNL     1       1.688   7.641  20.452  0.00  0.00    +0.000 C 
BRANCH  20  21
ATOM     21  C   UNL     1       2.324   6.641  19.480  0.00  0.00    +0.000 A 
ATOM     22  C   UNL     1       2.915   7.073  18.249  0.00  0.00    +0.000 A 
ATOM     23  C   UNL     1       2.879   8.495  17.745  0.00  0.00    +0.000 C 
ATOM     24  C   UNL     1       3.629   6.158  17.454  0.00  0.00    +0.000 A 
ATOM     25  C   UNL     1       3.767   4.824  17.833  0.00  0.00    +0.000 A 
ATOM     26  C   UNL     1       4.578   3.863  17.009  0.00  0.00    +0.000 C 
ATOM     27  C   UNL     1       3.161   4.382  19.009  0.00  0.00    +0.000 A 
ATOM     28  C   UNL     1       2.454   5.268  19.839  0.00  0.00    +0.000 A 
ATOM     29  C   UNL     1       1.856   4.715  21.109  0.00  0.00    +0.000 C 
ENDBRANCH  20  21
ENDBRANCH  19  20
ENDBRANCH  14  19
TORSDOF 4
ENDMDL
