MODEL 1
REMARK VINA RESULT:      -9.0      0.000      0.000
REMARK  Name = 
REMARK  8 active torsions:
REMARK  status: ('A' for Active; 'I' for Inactive)
REMARK    1  A    between atoms: C_2  and  O_3
REMARK    2  A    between atoms: C_2  and  C_4
REMARK    3  A    between atoms: C_6  and  C_7
REMARK    4  A    between atoms: C_10  and  C_11
REMARK    5  A    between atoms: C_13  and  C_14
REMARK    6  A    between atoms: C_14  and  O_15
REMARK    7  A    between atoms: C_23  and  C_24
REMARK    8  A    between atoms: C_27  and  C_28
REMARK                            x       y       z     vdW  Elec       q    Type
REMARK                         _______ _______ _______ _____ _____    ______ ____
ROOT
ATOM      1  C   UNL     1       2.275   4.105  20.900  0.00  0.00    +0.000 A 
ATOM      2  C   UNL     1       2.974   4.027  19.695  0.00  0.00    +0.000 A 
ATOM      3  C   UNL     1       3.079   5.133  18.827  0.00  0.00    +0.000 A 
ATOM      4  C   UNL     1       2.435   6.355  19.216  0.00  0.00    +0.000 A 
ATOM      5  C   UNL     1       2.384   7.504  18.402  0.00  0.00    +0.000 A 
ATOM      6  C   UNL     1       1.881   8.720  18.856  0.00  0.00    +0.000 A 
ATOM      7  C   UNL     1       1.298   8.843  20.118  0.00  0.00    +0.000 A 
ATOM      8  C   UNL     1       1.249   7.680  20.907  0.00  0.00    +0.000 A 
ATOM      9  C   UNL     1       1.804   6.451  20.482  0.00  0.00    +0.000 A 
ATOM     10  C   UNL     1       1.728   5.321  21.310  0.00  0.00    +0.000 A 
ENDROOT
BRANCH   3  11
ATOM     11  C   UNL     1       3.868   4.985  17.570  0.00  0.00    +0.000 A 
ATOM     12  C   UNL     1       4.466   6.092  16.944  0.00  0.00    +0.000 A 
ATOM     13  C   UNL     1       5.224   5.952  15.774  0.00  0.00    +0.000 A 
ATOM     14  C   UNL     1       5.447   4.692  15.209  0.00  0.00    +0.000 A 
ATOM     15  C   UNL     1       4.854   3.583  15.818  0.00  0.00    +0.000 A 
ATOM     16  C   UNL     1       4.038   3.740  16.941  0.00  0.00    +0.000 A 
BRANCH  14  17
ATOM     17  C   UNL     1       6.232   4.528  13.987  0.00  0.00    +0.000 A 
ATOM     18  C   UNL     1       6.071   3.561  12.960  0.00  0.00    +0.000 A 
ATOM     19  C   UNL     1       7.123   3.775  12.106  0.00  0.00    +0.000 A 
ATOM     20  O   UNL     1       7.841   4.838  12.544  0.00  0.00    +0.000 OA
ATOM     21  N   UNL     1       7.289   5.313  13.712  0.00  0.00    +0.000 NA
BRANCH  19  22
ATOM     22  C   UNL     1       7.618   3.093  10.900  0.00  0.00    +0.000 C 
BRANCH  22  23
ATOM     23  O   UNL     1       7.513   1.693  11.134  0.00  0.00    +0.000 OA
ATOM     24  H   UNL     1       7.661   1.555  12.087  0.00  0.00    +0.000 HD
ENDBRANCH  22  23
ENDBRANCH  19  22
ENDBRANCH  14  17
ENDBRANCH   3  11
BRANCH   7  25
ATOM     25  C   UNL     1       0.756  10.145  20.565  0.00  0.00    +0.000 A 
ATOM     26  C   UNL     1       1.093  11.334  19.889  0.00  0.00    +0.000 A 
ATOM     27  C   UNL     1       0.640  12.581  20.323  0.00  0.00    +0.000 A 
ATOM     28  C   UNL     1      -0.190  12.683  21.439  0.00  0.00    +0.000 A 
ATOM     29  C   UNL     1      -0.553  11.506  22.116  0.00  0.00    +0.000 A 
ATOM     30  C   UNL     1      -0.078  10.261  21.688  0.00  0.00    +0.000 A 
BRANCH  28  31
ATOM     31  C   UNL     1      -0.688  14.022  21.917  0.00  0.00    +0.000 C 
ATOM     32  F   UNL     1      -0.597  14.184  23.268  0.00  0.00    +0.000 F 
ATOM     33  F   UNL     1       0.007  15.058  21.371  0.00  0.00    +0.000 F 
ATOM     34  F   UNL     1      -1.995  14.238  21.604  0.00  0.00    +0.000 F 
ENDBRANCH  28  31
ENDBRANCH   7  25
BRANCH   1  36
ATOM     35  O   UNL     1       1.171   2.566  22.338  0.00  0.00    +0.000 OA
ATOM     36  C   UNL     1       2.176   2.876  21.724  0.00  0.00    +0.000 C 
BRANCH  36  37
ATOM     37  O   UNL     1       3.327   2.172  21.784  0.00  0.00    +0.000 OA
ATOM     38  H   UNL     1       3.457   1.657  22.601  0.00  0.00    +0.000 HD
ENDBRANCH  36  37
ENDBRANCH   1  36
TORSDOF 8
ENDMDL
MODEL 2
REMARK VINA RESULT:      -9.0      0.254      1.075
REMARK  Name = 
REMARK  8 active torsions:
REMARK  status: ('A' for Active; 'I' for Inactive)
REMARK    1  A    between atoms: C_2  and  O_3
REMARK    2  A    between atoms: C_2  and  C_4
REMARK    3  A    between atoms: C_6  and  C_7
REMARK    4  A    between atoms: C_10  and  C_11
REMARK    5  A    between atoms: C_13  and  C_14
REMARK    6  A    between atoms: C_14  and  O_15
REMARK    7  A    between atoms: C_23  and  C_24
REMARK    8  A    between atoms: C_27  and  C_28
REMARK                            x       y       z     vdW  Elec       q    Type
REMARK                         _______ _______ _______ _____ _____    ______ ____
ROOT
ATOM      1  C   UNL     1       2.263   4.104  20.927  0.00  0.00    +0.000 A 
ATOM      2  C   UNL     1       2.960   4.023  19.721  0.00  0.00    +0.000 A 
ATOM      3  C   UNL     1       3.066   5.128  18.852  0.00  0.00    +0.000 A 
ATOM      4  C   UNL     1       2.425   6.352  19.240  0.00  0.00    +0.000 A 
ATOM      5  C   UNL     1       2.376   7.500  18.425  0.00  0.00    +0.000 A 
ATOM      6  C   UNL     1       1.876   8.718  18.878  0.00  0.00    +0.000 A 
ATOM      7  C   UNL     1       1.295   8.843  20.140  0.00  0.00    +0.000 A 
ATOM      8  C   UNL     1       1.244   7.682  20.931  0.00  0.00    +0.000 A 
ATOM      9  C   UNL     1       1.796   6.452  20.506  0.00  0.00    +0.000 A 
ATOM     10  C   UNL     1       1.719   5.323  21.337  0.00  0.00    +0.000 A 
ENDROOT
BRANCH   3  11
ATOM     11  C   UNL     1       3.854   4.977  17.594  0.00  0.00    +0.000 A 
ATOM     12  C   UNL     1       4.453   6.082  16.966  0.00  0.00    +0.000 A 
ATOM     13  C   UNL     1       5.210   5.939  15.795  0.00  0.00    +0.000 A 
ATOM     14  C   UNL     1       5.429   4.677  15.232  0.00  0.00    +0.000 A 
ATOM     15  C   UNL     1       4.835   3.571  15.843  0.00  0.00    +0.000 A 
ATOM     16  C   UNL     1       4.020   3.731  16.967  0.00  0.00    +0.000 A 
BRANCH  14  17
ATOM     17  C   UNL     1       6.213   4.510  14.009  0.00  0.00    +0.000 A 
ATOM     18  C   UNL     1       6.040   3.551  12.977  0.00  0.00    +0.000 A 
ATOM     19  C   UNL     1       7.094   3.756  12.124  0.00  0.00    +0.000 A 
ATOM     20  O   UNL     1       7.826   4.808  12.567  0.00  0.00    +0.000 OA
ATOM     21  N   UNL     1       7.278   5.284  13.738  0.00  0.00    +0.000 NA
BRANCH  19  22
ATOM     22  C   UNL     1       7.582   3.074  10.915  0.00  0.00    +0.000 C 
BRANCH  22  23
ATOM     23  O   UNL     1       7.511   1.674  11.162  0.00  0.00    +0.000 OA
ATOM     24  H   UNL     1       8.245   1.458  11.764  0.00  0.00    +0.000 HD
ENDBRANCH  22  23
ENDBRANCH  19  22
ENDBRANCH  14  17
ENDBRANCH   3  11
BRANCH   7  25
ATOM     25  C   UNL     1       0.756  10.147  20.586  0.00  0.00    +0.000 A 
ATOM     26  C   UNL     1       0.008  10.248  21.775  0.00  0.00    +0.000 A 
ATOM     27  C   UNL     1      -0.558  11.455  22.188  0.00  0.00    +0.000 A 
ATOM     28  C   UNL     1      -0.375  12.616  21.439  0.00  0.00    +0.000 A 
ATOM     29  C   UNL     1       0.384  12.540  20.258  0.00  0.00    +0.000 A 
ATOM     30  C   UNL     1       0.931  11.322  19.838  0.00  0.00    +0.000 A 
BRANCH  28  31
ATOM     31  C   UNL     1      -0.979  13.926  21.874  0.00  0.00    +0.000 C 
ATOM     32  F   UNL     1      -0.942  14.888  20.909  0.00  0.00    +0.000 F 
ATOM     33  F   UNL     1      -2.288  13.801  22.224  0.00  0.00    +0.000 F 
ATOM     34  F   UNL     1      -0.348  14.459  22.956  0.00  0.00    +0.000 F 
ENDBRANCH  28  31
ENDBRANCH   7  25
BRANCH   1  36
ATOM     35  O   UNL     1       1.144   2.548  22.334  0.00  0.00    +0.000 OA
ATOM     36  C   UNL     1       2.163   2.877  21.753  0.00  0.00    +0.000 C 
BRANCH  36  37
ATOM     37  O   UNL     1       3.326   2.199  21.854  0.00  0.00    +0.000 OA
ATOM     38  H   UNL     1       3.383   1.582  22.607  0.00  0.00    +0.000 HD
ENDBRANCH  36  37
ENDBRANCH   1  36
TORSDOF 8
ENDMDL
MODEL 3
REMARK VINA RESULT:      -8.9      0.830      1.663
REMARK  Name = 
REMARK  8 active torsions:
REMARK  status: ('A' for Active; 'I' for Inactive)
REMARK    1  A    between atoms: C_2  and  O_3
REMARK    2  A    between atoms: C_2  and  C_4
REMARK    3  A    between atoms: C_6  and  C_7
REMARK    4  A    between atoms: C_10  and  C_11
REMARK    5  A    between atoms: C_13  and  C_14
REMARK    6  A    between atoms: C_14  and  O_15
REMARK    7  A    between atoms: C_23  and  C_24
REMARK    8  A    between atoms: C_27  and  C_28
REMARK                            x       y       z     vdW  Elec       q    Type
REMARK                         _______ _______ _______ _____ _____    ______ ____
ROOT
ATOM      1  C   UNL     1       2.035   4.772  20.670  0.00  0.00    +0.000 A 
ATOM      2  C   UNL     1       2.797   4.561  19.520  0.00  0.00    +0.000 A 
ATOM      3  C   UNL     1       3.009   5.585  18.575  0.00  0.00    +0.000 A 
ATOM      4  C   UNL     1       2.408   6.865  18.825  0.00  0.00    +0.000 A 
ATOM      5  C   UNL     1       2.464   7.944  17.921  0.00  0.00    +0.000 A 
ATOM      6  C   UNL     1       2.000   9.215  18.245  0.00  0.00    +0.000 A 
ATOM      7  C   UNL     1       1.353   9.470  19.454  0.00  0.00    +0.000 A 
ATOM      8  C   UNL     1       1.198   8.380  20.329  0.00  0.00    +0.000 A 
ATOM      9  C   UNL     1       1.712   7.095  20.038  0.00  0.00    +0.000 A 
ATOM     10  C   UNL     1       1.530   6.043  20.948  0.00  0.00    +0.000 A 
ENDROOT
BRANCH   3  11
ATOM     11  C   UNL     1       3.860   5.297  17.385  0.00  0.00    +0.000 A 
ATOM     12  C   UNL     1       4.023   3.988  16.899  0.00  0.00    +0.000 A 
ATOM     13  C   UNL     1       4.806   3.717  15.769  0.00  0.00    +0.000 A 
ATOM     14  C   UNL     1       5.422   4.752  15.058  0.00  0.00    +0.000 A 
ATOM     15  C   UNL     1       5.273   6.057  15.532  0.00  0.00    +0.000 A 
ATOM     16  C   UNL     1       4.552   6.311  16.702  0.00  0.00    +0.000 A 
BRANCH  14  17
ATOM     17  C   UNL     1       6.246   4.487  13.879  0.00  0.00    +0.000 A 
ATOM     18  C   UNL     1       6.106   3.447  12.923  0.00  0.00    +0.000 A 
ATOM     19  C   UNL     1       7.188   3.584  12.092  0.00  0.00    +0.000 A 
ATOM     20  O   UNL     1       7.906   4.669  12.472  0.00  0.00    +0.000 OA
ATOM     21  N   UNL     1       7.321   5.237  13.581  0.00  0.00    +0.000 NA
BRANCH  19  22
ATOM     22  C   UNL     1       7.714   2.806  10.959  0.00  0.00    +0.000 C 
BRANCH  22  23
ATOM     23  O   UNL     1       7.305   1.456  11.147  0.00  0.00    +0.000 OA
ATOM     24  H   UNL     1       6.918   1.160  10.303  0.00  0.00    +0.000 HD
ENDBRANCH  22  23
ENDBRANCH  19  22
ENDBRANCH  14  17
ENDBRANCH   3  11
BRANCH   7  25
ATOM     25  C   UNL     1       0.855  10.828  19.762  0.00  0.00    +0.000 A 
ATOM     26  C   UNL     1      -0.123  11.028  20.755  0.00  0.00    +0.000 A 
ATOM     27  C   UNL     1      -0.650  12.293  21.025  0.00  0.00    +0.000 A 
ATOM     28  C   UNL     1      -0.198  13.412  20.328  0.00  0.00    +0.000 A 
ATOM     29  C   UNL     1       0.792  13.236  19.345  0.00  0.00    +0.000 A 
ATOM     30  C   UNL     1       1.301  11.962  19.064  0.00  0.00    +0.000 A 
BRANCH  28  31
ATOM     31  C   UNL     1      -0.756  14.782  20.611  0.00  0.00    +0.000 C 
ATOM     32  F   UNL     1      -0.781  15.595  19.517  0.00  0.00    +0.000 F 
ATOM     33  F   UNL     1      -2.037  14.735  21.068  0.00  0.00    +0.000 F 
ATOM     34  F   UNL     1      -0.043  15.453  21.556  0.00  0.00    +0.000 F 
ENDBRANCH  28  31
ENDBRANCH   7  25
BRANCH   1  36
ATOM     35  O   UNL     1       2.581   3.355  22.500  0.00  0.00    +0.000 OA
ATOM     36  C   UNL     1       1.826   3.621  21.582  0.00  0.00    +0.000 C 
BRANCH  36  37
ATOM     37  O   UNL     1       0.759   2.861  21.256  0.00  0.00    +0.000 OA
ATOM     38  H   UNL     1      -0.093   3.334  21.224  0.00  0.00    +0.000 HD
ENDBRANCH  36  37
ENDBRANCH   1  36
TORSDOF 8
ENDMDL
MODEL 4
REMARK VINA RESULT:      -8.9      0.727      1.296
REMARK  Name = 
REMARK  8 active torsions:
REMARK  status: ('A' for Active; 'I' for Inactive)
REMARK    1  A    between atoms: C_2  and  O_3
REMARK    2  A    between atoms: C_2  and  C_4
REMARK    3  A    between atoms: C_6  and  C_7
REMARK    4  A    between atoms: C_10  and  C_11
REMARK    5  A    between atoms: C_13  and  C_14
REMARK    6  A    between atoms: C_14  and  O_15
REMARK    7  A    between atoms: C_23  and  C_24
REMARK    8  A    between atoms: C_27  and  C_28
REMARK                            x       y       z     vdW  Elec       q    Type
REMARK                         _______ _______ _______ _____ _____    ______ ____
ROOT
ATOM      1  C   UNL     1       2.031   4.730  20.686  0.00  0.00    +0.000 A 
ATOM      2  C   UNL     1       2.768   4.545  19.515  0.00  0.00    +0.000 A 
ATOM      3  C   UNL     1       2.974   5.594  18.597  0.00  0.00    +0.000 A 
ATOM      4  C   UNL     1       2.394   6.873  18.897  0.00  0.00    +0.000 A 
ATOM      5  C   UNL     1       2.446   7.977  18.024  0.00  0.00    +0.000 A 
ATOM      6  C   UNL     1       2.003   9.244  18.395  0.00  0.00    +0.000 A 
ATOM      7  C   UNL     1       1.383   9.470  19.624  0.00  0.00    +0.000 A 
ATOM      8  C   UNL     1       1.231   8.356  20.469  0.00  0.00    +0.000 A 
ATOM      9  C   UNL     1       1.724   7.075  20.130  0.00  0.00    +0.000 A 
ATOM     10  C   UNL     1       1.547   5.998  21.011  0.00  0.00    +0.000 A 
ENDROOT
BRANCH   3  11
ATOM     11  C   UNL     1       3.798   5.332  17.382  0.00  0.00    +0.000 A 
ATOM     12  C   UNL     1       4.482   6.367  16.722  0.00  0.00    +0.000 A 
ATOM     13  C   UNL     1       5.273   6.119  15.591  0.00  0.00    +0.000 A 
ATOM     14  C   UNL     1       5.442   4.818  15.105  0.00  0.00    +0.000 A 
ATOM     15  C   UNL     1       4.765   3.780  15.749  0.00  0.00    +0.000 A 
ATOM     16  C   UNL     1       3.919   4.046  16.829  0.00  0.00    +0.000 A 
BRANCH  14  17
ATOM     17  C   UNL     1       6.261   4.541  13.925  0.00  0.00    +0.000 A 
ATOM     18  C   UNL     1       6.098   3.511  12.963  0.00  0.00    +0.000 A 
ATOM     19  C   UNL     1       7.184   3.628  12.134  0.00  0.00    +0.000 A 
ATOM     20  O   UNL     1       7.927   4.693  12.522  0.00  0.00    +0.000 OA
ATOM     21  N   UNL     1       7.354   5.268  13.635  0.00  0.00    +0.000 NA
BRANCH  19  22
ATOM     22  C   UNL     1       7.693   2.846  10.996  0.00  0.00    +0.000 C 
BRANCH  22  23
ATOM     23  O   UNL     1       7.270   1.500  11.186  0.00  0.00    +0.000 OA
ATOM     24  H   UNL     1       6.297   1.504  11.149  0.00  0.00    +0.000 HD
ENDBRANCH  22  23
ENDBRANCH  19  22
ENDBRANCH  14  17
ENDBRANCH   3  11
BRANCH   7  25
ATOM     25  C   UNL     1       0.908  10.824  19.981  0.00  0.00    +0.000 A 
ATOM     26  C   UNL     1       0.319  11.072  21.236  0.00  0.00    +0.000 A 
ATOM     27  C   UNL     1      -0.189  12.328  21.576  0.00  0.00    +0.000 A 
ATOM     28  C   UNL     1      -0.101  13.393  20.680  0.00  0.00    +0.000 A 
ATOM     29  C   UNL     1       0.500  13.171  19.430  0.00  0.00    +0.000 A 
ATOM     30  C   UNL     1       0.988  11.904  19.087  0.00  0.00    +0.000 A 
BRANCH  28  31
ATOM     31  C   UNL     1      -0.642  14.753  21.035  0.00  0.00    +0.000 C 
ATOM     32  F   UNL     1      -2.000  14.783  21.157  0.00  0.00    +0.000 F 
ATOM     33  F   UNL     1      -0.153  15.212  22.219  0.00  0.00    +0.000 F 
ATOM     34  F   UNL     1      -0.331  15.698  20.106  0.00  0.00    +0.000 F 
ENDBRANCH  28  31
ENDBRANCH   7  25
BRANCH   1  36
ATOM     35  O   UNL     1       2.587   3.260  22.470  0.00  0.00    +0.000 OA
ATOM     36  C   UNL     1       1.825   3.555  21.567  0.00  0.00    +0.000 C 
BRANCH  36  37
ATOM     37  O   UNL     1       0.751   2.809  21.230  0.00  0.00    +0.000 OA
ATOM     38  H   UNL     1       0.778   1.882  21.531  0.00  0.00    +0.000 HD
ENDBRANCH  36  37
ENDBRANCH   1  36
TORSDOF 8
ENDMDL
MODEL 5
REMARK VINA RESULT:      -8.3      7.003     12.378
REMARK  Name = 
REMARK  8 active torsions:
REMARK  status: ('A' for Active; 'I' for Inactive)
REMARK    1  A    between atoms: C_2  and  O_3
REMARK    2  A    between atoms: C_2  and  C_4
REMARK    3  A    between atoms: C_6  and  C_7
REMARK    4  A    between atoms: C_10  and  C_11
REMARK    5  A    between atoms: C_13  and  C_14
REMARK    6  A    between atoms: C_14  and  O_15
REMARK    7  A    between atoms: C_23  and  C_24
REMARK    8  A    between atoms: C_27  and  C_28
REMARK                            x       y       z     vdW  Elec       q    Type
REMARK                         _______ _______ _______ _____ _____    ______ ____
ROOT
ATOM      1  C   UNL     1      -2.546  11.139  17.541  0.00  0.00    +0.000 A 
ATOM      2  C   UNL     1      -2.455  11.899  18.708  0.00  0.00    +0.000 A 
ATOM      3  C   UNL     1      -1.443  11.671  19.662  0.00  0.00    +0.000 A 
ATOM      4  C   UNL     1      -0.500  10.621  19.404  0.00  0.00    +0.000 A 
ATOM      5  C   UNL     1       0.501  10.229  20.314  0.00  0.00    +0.000 A 
ATOM      6  C   UNL     1       1.492   9.308  19.985  0.00  0.00    +0.000 A 
ATOM      7  C   UNL     1       1.488   8.638  18.761  0.00  0.00    +0.000 A 
ATOM      8  C   UNL     1       0.437   8.943  17.878  0.00  0.00    +0.000 A 
ATOM      9  C   UNL     1      -0.545   9.914  18.175  0.00  0.00    +0.000 A 
ATOM     10  C   UNL     1      -1.572  10.180  17.256  0.00  0.00    +0.000 A 
ENDROOT
BRANCH   3  11
ATOM     11  C   UNL     1      -1.390  12.543  20.871  0.00  0.00    +0.000 A 
ATOM     12  C   UNL     1      -0.563  13.678  20.922  0.00  0.00    +0.000 A 
ATOM     13  C   UNL     1      -0.526  14.509  22.050  0.00  0.00    +0.000 A 
ATOM     14  C   UNL     1      -1.348  14.258  23.154  0.00  0.00    +0.000 A 
ATOM     15  C   UNL     1      -2.172  13.130  23.119  0.00  0.00    +0.000 A 
ATOM     16  C   UNL     1      -2.147  12.265  22.022  0.00  0.00    +0.000 A 
BRANCH  14  17
ATOM     17  C   UNL     1      -1.320  15.113  24.340  0.00  0.00    +0.000 A 
ATOM     18  C   UNL     1      -0.466  16.214  24.611  0.00  0.00    +0.000 A 
ATOM     19  C   UNL     1      -0.777  16.594  25.892  0.00  0.00    +0.000 A 
ATOM     20  O   UNL     1      -1.792  15.821  26.350  0.00  0.00    +0.000 OA
ATOM     21  N   UNL     1      -2.137  14.901  25.386  0.00  0.00    +0.000 NA
BRANCH  19  22
ATOM     22  C   UNL     1      -0.229  17.590  26.826  0.00  0.00    +0.000 C 
BRANCH  22  23
ATOM     23  O   UNL     1      -0.468  17.109  28.144  0.00  0.00    +0.000 OA
ATOM     24  H   UNL     1      -1.431  16.989  28.229  0.00  0.00    +0.000 HD
ENDBRANCH  22  23
ENDBRANCH  19  22
ENDBRANCH  14  17
ENDBRANCH   3  11
BRANCH   7  25
ATOM     25  C   UNL     1       2.545   7.652  18.448  0.00  0.00    +0.000 A 
ATOM     26  C   UNL     1       3.450   7.878  17.393  0.00  0.00    +0.000 A 
ATOM     27  C   UNL     1       4.421   6.938  17.041  0.00  0.00    +0.000 A 
ATOM     28  C   UNL     1       4.540   5.744  17.752  0.00  0.00    +0.000 A 
ATOM     29  C   UNL     1       3.659   5.508  18.821  0.00  0.00    +0.000 A 
ATOM     30  C   UNL     1       2.673   6.446  19.154  0.00  0.00    +0.000 A 
BRANCH  28  31
ATOM     31  C   UNL     1       5.584   4.723  17.385  0.00  0.00    +0.000 C 
ATOM     32  F   UNL     1       6.224   4.188  18.464  0.00  0.00    +0.000 F 
ATOM     33  F   UNL     1       5.059   3.668  16.703  0.00  0.00    +0.000 F 
ATOM     34  F   UNL     1       6.562   5.236  16.590  0.00  0.00    +0.000 F 
ENDBRANCH  28  31
ENDBRANCH   7  25
BRANCH   1  36
ATOM     35  O   UNL     1      -3.747  10.947  15.498  0.00  0.00    +0.000 OA
ATOM     36  C   UNL     1      -3.673  11.418  16.618  0.00  0.00    +0.000 C 
BRANCH  36  37
ATOM     37  O   UNL     1      -4.571  12.296  17.114  0.00  0.00    +0.000 OA
ATOM     38  H   UNL     1      -4.390  12.608  18.020  0.00  0.00    +0.000 HD
ENDBRANCH  36  37
ENDBRANCH   1  36
TORSDOF 8
ENDMDL
MODEL 6
REMARK VINA RESULT:      -8.3      6.976     12.391
REMARK  Name = 
REMARK  8 active torsions:
REMARK  status: ('A' for Active; 'I' for Inactive)
REMARK    1  A    between atoms: C_2  and  O_3
REMARK    2  A    between atoms: C_2  and  C_4
REMARK    3  A    between atoms: C_6  and  C_7
REMARK    4  A    between atoms: C_10  and  C_11
REMARK    5  A    between atoms: C_13  and  C_14
REMARK    6  A    between atoms: C_14  and  O_15
REMARK    7  A    between atoms: C_23  and  C_24
REMARK    8  A    between atoms: C_27  and  C_28
REMARK                            x       y       z     vdW  Elec       q    Type
REMARK                         _______ _______ _______ _____ _____    ______ ____
ROOT
ATOM      1  C   UNL     1      -2.654  11.116  17.464  0.00  0.00    +0.000 A 
ATOM      2  C   UNL     1      -2.605  11.881  18.629  0.00  0.00    +0.000 A 
ATOM      3  C   UNL     1      -1.615  11.672  19.610  0.00  0.00    +0.000 A 
ATOM      4  C   UNL     1      -0.651  10.634  19.381  0.00  0.00    +0.000 A 
ATOM      5  C   UNL     1       0.332  10.260  20.319  0.00  0.00    +0.000 A 
ATOM      6  C   UNL     1       1.344   9.352  20.019  0.00  0.00    +0.000 A 
ATOM      7  C   UNL     1       1.381   8.678  18.799  0.00  0.00    +0.000 A 
ATOM      8  C   UNL     1       0.349   8.963  17.887  0.00  0.00    +0.000 A 
ATOM      9  C   UNL     1      -0.654   9.922  18.155  0.00  0.00    +0.000 A 
ATOM     10  C   UNL     1      -1.661  10.169  17.209  0.00  0.00    +0.000 A 
ENDROOT
BRANCH   3  11
ATOM     11  C   UNL     1      -1.605  12.549  20.816  0.00  0.00    +0.000 A 
ATOM     12  C   UNL     1      -2.285  12.188  21.992  0.00  0.00    +0.000 A 
ATOM     13  C   UNL     1      -2.261  13.001  23.133  0.00  0.00    +0.000 A 
ATOM     14  C   UNL     1      -1.521  14.188  23.153  0.00  0.00    +0.000 A 
ATOM     15  C   UNL     1      -0.845  14.563  21.989  0.00  0.00    +0.000 A 
ATOM     16  C   UNL     1      -0.935  13.784  20.833  0.00  0.00    +0.000 A 
BRANCH  14  17
ATOM     17  C   UNL     1      -1.487  15.051  24.333  0.00  0.00    +0.000 A 
ATOM     18  C   UNL     1      -0.573  16.094  24.635  0.00  0.00    +0.000 A 
ATOM     19  C   UNL     1      -0.914  16.507  25.898  0.00  0.00    +0.000 A 
ATOM     20  O   UNL     1      -1.999  15.810  26.315  0.00  0.00    +0.000 OA
ATOM     21  N   UNL     1      -2.363  14.906  25.343  0.00  0.00    +0.000 NA
BRANCH  19  22
ATOM     22  C   UNL     1      -0.342  17.473  26.849  0.00  0.00    +0.000 C 
BRANCH  22  23
ATOM     23  O   UNL     1      -0.371  16.867  28.136  0.00  0.00    +0.000 OA
ATOM     24  H   UNL     1       0.426  17.170  28.607  0.00  0.00    +0.000 HD
ENDBRANCH  22  23
ENDBRANCH  19  22
ENDBRANCH  14  17
ENDBRANCH   3  11
BRANCH   7  25
ATOM     25  C   UNL     1       2.460   7.705  18.518  0.00  0.00    +0.000 A 
ATOM     26  C   UNL     1       2.652   6.584  19.349  0.00  0.00    +0.000 A 
ATOM     27  C   UNL     1       3.697   5.682  19.138  0.00  0.00    +0.000 A 
ATOM     28  C   UNL     1       4.576   5.854  18.069  0.00  0.00    +0.000 A 
ATOM     29  C   UNL     1       4.390   6.957  17.218  0.00  0.00    +0.000 A 
ATOM     30  C   UNL     1       3.353   7.869  17.448  0.00  0.00    +0.000 A 
BRANCH  28  31
ATOM     31  C   UNL     1       5.706   4.888  17.830  0.00  0.00    +0.000 C 
ATOM     32  F   UNL     1       5.992   4.107  18.910  0.00  0.00    +0.000 F 
ATOM     33  F   UNL     1       5.444   4.028  16.808  0.00  0.00    +0.000 F 
ATOM     34  F   UNL     1       6.870   5.514  17.505  0.00  0.00    +0.000 F 
ENDBRANCH  28  31
ENDBRANCH   7  25
BRANCH   1  36
ATOM     35  O   UNL     1      -4.833  11.843  16.849  0.00  0.00    +0.000 OA
ATOM     36  C   UNL     1      -3.762  11.375  16.511  0.00  0.00    +0.000 C 
BRANCH  36  37
ATOM     37  O   UNL     1      -3.491  10.978  15.249  0.00  0.00    +0.000 OA
ATOM     38  H   UNL     1      -2.657  11.319  14.877  0.00  0.00    +0.000 HD
ENDBRANCH  36  37
ENDBRANCH   1  36
TORSDOF 8
ENDMDL
MODEL 7
REMARK VINA RESULT:      -8.3      4.109      6.643
REMARK  Name = 
REMARK  8 active torsions:
REMARK  status: ('A' for Active; 'I' for Inactive)
REMARK    1  A    between atoms: C_2  and  O_3
REMARK    2  A    between atoms: C_2  and  C_4
REMARK    3  A    between atoms: C_6  and  C_7
REMARK    4  A    between atoms: C_10  and  C_11
REMARK    5  A    between atoms: C_13  and  C_14
REMARK    6  A    between atoms: C_14  and  O_15
REMARK    7  A    between atoms: C_23  and  C_24
REMARK    8  A    between atoms: C_27  and  C_28
REMARK                            x       y       z     vdW  Elec       q    Type
REMARK                         _______ _______ _______ _____ _____    ______ ____
ROOT
ATOM      1  C   UNL     1      -2.280  11.051  17.711  0.00  0.00    +0.000 A 
ATOM      2  C   UNL     1      -1.196  10.172  17.735  0.00  0.00    +0.000 A 
ATOM      3  C   UNL     1      -0.174  10.285  18.699  0.00  0.00    +0.000 A 
ATOM      4  C   UNL     1      -0.273  11.343  19.663  0.00  0.00    +0.000 A 
ATOM      5  C   UNL     1       0.722  11.624  20.620  0.00  0.00    +0.000 A 
ATOM      6  C   UNL     1       0.541  12.560  21.634  0.00  0.00    +0.000 A 
ATOM      7  C   UNL     1      -0.604  13.354  21.698  0.00  0.00    +0.000 A 
ATOM      8  C   UNL     1      -1.566  13.158  20.691  0.00  0.00    +0.000 A 
ATOM      9  C   UNL     1      -1.422  12.174  19.687  0.00  0.00    +0.000 A 
ATOM     10  C   UNL     1      -2.414  12.020  18.706  0.00  0.00    +0.000 A 
ENDROOT
BRANCH   3  11
ATOM     11  C   UNL     1       0.938   9.291  18.682  0.00  0.00    +0.000 A 
ATOM     12  C   UNL     1       1.149   8.409  19.756  0.00  0.00    +0.000 A 
ATOM     13  C   UNL     1       2.182   7.461  19.734  0.00  0.00    +0.000 A 
ATOM     14  C   UNL     1       3.016   7.334  18.618  0.00  0.00    +0.000 A 
ATOM     15  C   UNL     1       2.820   8.208  17.546  0.00  0.00    +0.000 A 
ATOM     16  C   UNL     1       1.837   9.199  17.607  0.00  0.00    +0.000 A 
BRANCH  14  17
ATOM     17  C   UNL     1       4.100   6.353  18.580  0.00  0.00    +0.000 A 
ATOM     18  C   UNL     1       5.202   6.295  17.688  0.00  0.00    +0.000 A 
ATOM     19  C   UNL     1       5.855   5.132  18.008  0.00  0.00    +0.000 A 
ATOM     20  O   UNL     1       5.233   4.551  19.064  0.00  0.00    +0.000 OA
ATOM     21  N   UNL     1       4.143   5.310  19.426  0.00  0.00    +0.000 NA
BRANCH  19  22
ATOM     22  C   UNL     1       7.006   4.413  17.440  0.00  0.00    +0.000 C 
BRANCH  22  23
ATOM     23  O   UNL     1       8.051   4.458  18.405  0.00  0.00    +0.000 OA
ATOM     24  H   UNL     1       8.752   3.862  18.087  0.00  0.00    +0.000 HD
ENDBRANCH  22  23
ENDBRANCH  19  22
ENDBRANCH  14  17
ENDBRANCH   3  11
BRANCH   7  25
ATOM     25  C   UNL     1      -0.759  14.353  22.779  0.00  0.00    +0.000 A 
ATOM     26  C   UNL     1      -0.052  15.570  22.739  0.00  0.00    +0.000 A 
ATOM     27  C   UNL     1      -0.137  16.505  23.773  0.00  0.00    +0.000 A 
ATOM     28  C   UNL     1      -0.956  16.267  24.876  0.00  0.00    +0.000 A 
ATOM     29  C   UNL     1      -1.684  15.066  24.926  0.00  0.00    +0.000 A 
ATOM     30  C   UNL     1      -1.577  14.123  23.896  0.00  0.00    +0.000 A 
BRANCH  28  31
ATOM     31  C   UNL     1      -1.058  17.267  25.998  0.00  0.00    +0.000 C 
ATOM     32  F   UNL     1      -2.241  17.945  26.015  0.00  0.00    +0.000 F 
ATOM     33  F   UNL     1      -0.946  16.685  27.223  0.00  0.00    +0.000 F 
ATOM     34  F   UNL     1      -0.086  18.218  25.942  0.00  0.00    +0.000 F 
ENDBRANCH  28  31
ENDBRANCH   7  25
BRANCH   1  36
ATOM     35  O   UNL     1      -3.289   9.934  15.870  0.00  0.00    +0.000 OA
ATOM     36  C   UNL     1      -3.282  10.885  16.630  0.00  0.00    +0.000 C 
BRANCH  36  37
ATOM     37  O   UNL     1      -4.140  11.922  16.526  0.00  0.00    +0.000 OA
ATOM     38  H   UNL     1      -3.799  12.697  16.044  0.00  0.00    +0.000 HD
ENDBRANCH  36  37
ENDBRANCH   1  36
TORSDOF 8
ENDMDL
MODEL 8
REMARK VINA RESULT:      -8.2      6.976     12.325
REMARK  Name = 
REMARK  8 active torsions:
REMARK  status: ('A' for Active; 'I' for Inactive)
REMARK    1  A    between atoms: C_2  and  O_3
REMARK    2  A    between atoms: C_2  and  C_4
REMARK    3  A    between atoms: C_6  and  C_7
REMARK    4  A    between atoms: C_10  and  C_11
REMARK    5  A    between atoms: C_13  and  C_14
REMARK    6  A    between atoms: C_14  and  O_15
REMARK    7  A    between atoms: C_23  and  C_24
REMARK    8  A    between atoms: C_27  and  C_28
REMARK                            x       y       z     vdW  Elec       q    Type
REMARK                         _______ _______ _______ _____ _____    ______ ____
ROOT
ATOM      1  C   UNL     1      -2.632  11.074  17.483  0.00  0.00    +0.000 A 
ATOM      2  C   UNL     1      -2.570  11.861  18.634  0.00  0.00    +0.000 A 
ATOM      3  C   UNL     1      -1.568  11.671  19.607  0.00  0.00    +0.000 A 
ATOM      4  C   UNL     1      -0.605  10.631  19.385  0.00  0.00    +0.000 A 
ATOM      5  C   UNL     1       0.390  10.277  20.317  0.00  0.00    +0.000 A 
ATOM      6  C   UNL     1       1.401   9.366  20.022  0.00  0.00    +0.000 A 
ATOM      7  C   UNL     1       1.425   8.669  18.814  0.00  0.00    +0.000 A 
ATOM      8  C   UNL     1       0.381   8.936  17.910  0.00  0.00    +0.000 A 
ATOM      9  C   UNL     1      -0.621   9.897  18.172  0.00  0.00    +0.000 A 
ATOM     10  C   UNL     1      -1.639  10.125  17.234  0.00  0.00    +0.000 A 
ENDROOT
BRANCH   3  11
ATOM     11  C   UNL     1      -1.546  12.570  20.796  0.00  0.00    +0.000 A 
ATOM     12  C   UNL     1      -2.306  12.287  21.945  0.00  0.00    +0.000 A 
ATOM     13  C   UNL     1      -2.272  13.120  23.071  0.00  0.00    +0.000 A 
ATOM     14  C   UNL     1      -1.443  14.247  23.105  0.00  0.00    +0.000 A 
ATOM     15  C   UNL     1      -0.686  14.543  21.969  0.00  0.00    +0.000 A 
ATOM     16  C   UNL     1      -0.783  13.750  20.823  0.00  0.00    +0.000 A 
BRANCH  14  17
ATOM     17  C   UNL     1      -1.397  15.129  24.271  0.00  0.00    +0.000 A 
ATOM     18  C   UNL     1      -0.528  16.225  24.511  0.00  0.00    +0.000 A 
ATOM     19  C   UNL     1      -0.826  16.639  25.784  0.00  0.00    +0.000 A 
ATOM     20  O   UNL     1      -1.848  15.891  26.267  0.00  0.00    +0.000 OA
ATOM     21  N   UNL     1      -2.210  14.953  25.326  0.00  0.00    +0.000 NA
BRANCH  19  22
ATOM     22  C   UNL     1      -0.260  17.650  26.691  0.00  0.00    +0.000 C 
BRANCH  22  23
ATOM     23  O   UNL     1       0.988  17.150  27.156  0.00  0.00    +0.000 OA
ATOM     24  H   UNL     1       1.599  17.169  26.397  0.00  0.00    +0.000 HD
ENDBRANCH  22  23
ENDBRANCH  19  22
ENDBRANCH  14  17
ENDBRANCH   3  11
BRANCH   7  25
ATOM     25  C   UNL     1       2.502   7.694  18.538  0.00  0.00    +0.000 A 
ATOM     26  C   UNL     1       3.370   7.872  17.443  0.00  0.00    +0.000 A 
ATOM     27  C   UNL     1       4.359   6.938  17.127  0.00  0.00    +0.000 A 
ATOM     28  C   UNL     1       4.535   5.800  17.914  0.00  0.00    +0.000 A 
ATOM     29  C   UNL     1       3.690   5.613  19.022  0.00  0.00    +0.000 A 
ATOM     30  C   UNL     1       2.687   6.543  19.320  0.00  0.00    +0.000 A 
BRANCH  28  31
ATOM     31  C   UNL     1       5.598   4.786  17.586  0.00  0.00    +0.000 C 
ATOM     32  F   UNL     1       5.115   3.673  16.963  0.00  0.00    +0.000 F 
ATOM     33  F   UNL     1       6.556   5.288  16.760  0.00  0.00    +0.000 F 
ATOM     34  F   UNL     1       6.252   4.337  18.693  0.00  0.00    +0.000 F 
ENDBRANCH  28  31
ENDBRANCH   7  25
BRANCH   1  36
ATOM     35  O   UNL     1      -3.838  10.760  15.458  0.00  0.00    +0.000 OA
ATOM     36  C   UNL     1      -3.751  11.313  16.540  0.00  0.00    +0.000 C 
BRANCH  36  37
ATOM     37  O   UNL     1      -4.624  12.251  16.965  0.00  0.00    +0.000 OA
ATOM     38  H   UNL     1      -4.329  12.776  17.732  0.00  0.00    +0.000 HD
ENDBRANCH  36  37
ENDBRANCH   1  36
TORSDOF 8
ENDMDL
MODEL 9
REMARK VINA RESULT:      -8.2      6.926     12.213
REMARK  Name = 
REMARK  8 active torsions:
REMARK  status: ('A' for Active; 'I' for Inactive)
REMARK    1  A    between atoms: C_2  and  O_3
REMARK    2  A    between atoms: C_2  and  C_4
REMARK    3  A    between atoms: C_6  and  C_7
REMARK    4  A    between atoms: C_10  and  C_11
REMARK    5  A    between atoms: C_13  and  C_14
REMARK    6  A    between atoms: C_14  and  O_15
REMARK    7  A    between atoms: C_23  and  C_24
REMARK    8  A    between atoms: C_27  and  C_28
REMARK                            x       y       z     vdW  Elec       q    Type
REMARK                         _______ _______ _______ _____ _____    ______ ____
ROOT
ATOM      1  C   UNL     1      -2.580  10.989  17.378  0.00  0.00    +0.000 A 
ATOM      2  C   UNL     1      -2.363  11.809  18.486  0.00  0.00    +0.000 A 
ATOM      3  C   UNL     1      -1.273  11.604  19.356  0.00  0.00    +0.000 A 
ATOM      4  C   UNL     1      -0.384  10.513  19.074  0.00  0.00    +0.000 A 
ATOM      5  C   UNL     1       0.687  10.143  19.910  0.00  0.00    +0.000 A 
ATOM      6  C   UNL     1       1.620   9.176  19.546  0.00  0.00    +0.000 A 
ATOM      7  C   UNL     1       1.486   8.440  18.368  0.00  0.00    +0.000 A 
ATOM      8  C   UNL     1       0.366   8.726  17.568  0.00  0.00    +0.000 A 
ATOM      9  C   UNL     1      -0.561   9.742  17.897  0.00  0.00    +0.000 A 
ATOM     10  C   UNL     1      -1.661   9.987  17.062  0.00  0.00    +0.000 A 
ENDROOT
BRANCH   3  11
ATOM     11  C   UNL     1      -1.086  12.540  20.502  0.00  0.00    +0.000 A 
ATOM     12  C   UNL     1      -1.762  12.351  21.720  0.00  0.00    +0.000 A 
ATOM     13  C   UNL     1      -1.573  13.218  22.805  0.00  0.00    +0.000 A 
ATOM     14  C   UNL     1      -0.669  14.282  22.725  0.00  0.00    +0.000 A 
ATOM     15  C   UNL     1       0.006  14.484  21.519  0.00  0.00    +0.000 A 
ATOM     16  C   UNL     1      -0.244  13.661  20.418  0.00  0.00    +0.000 A 
BRANCH  14  17
ATOM     17  C   UNL     1      -0.462  15.198  23.847  0.00  0.00    +0.000 A 
ATOM     18  C   UNL     1      -1.293  15.405  24.978  0.00  0.00    +0.000 A 
ATOM     19  C   UNL     1      -0.705  16.438  25.664  0.00  0.00    +0.000 A 
ATOM     20  O   UNL     1       0.440  16.795  25.031  0.00  0.00    +0.000 OA
ATOM     21  N   UNL     1       0.598  16.023  23.902  0.00  0.00    +0.000 NA
BRANCH  19  22
ATOM     22  C   UNL     1      -1.071  17.214  26.858  0.00  0.00    +0.000 C 
BRANCH  22  23
ATOM     23  O   UNL     1      -0.358  16.659  27.958  0.00  0.00    +0.000 OA
ATOM     24  H   UNL     1      -0.741  15.779  28.125  0.00  0.00    +0.000 HD
ENDBRANCH  22  23
ENDBRANCH  19  22
ENDBRANCH  14  17
ENDBRANCH   3  11
BRANCH   7  25
ATOM     25  C   UNL     1       2.485   7.406  18.018  0.00  0.00    +0.000 A 
ATOM     26  C   UNL     1       3.680   7.755  17.359  0.00  0.00    +0.000 A 
ATOM     27  C   UNL     1       4.613   6.793  16.967  0.00  0.00    +0.000 A 
ATOM     28  C   UNL     1       4.397   5.444  17.245  0.00  0.00    +0.000 A 
ATOM     29  C   UNL     1       3.219   5.077  17.919  0.00  0.00    +0.000 A 
ATOM     30  C   UNL     1       2.278   6.045  18.290  0.00  0.00    +0.000 A 
BRANCH  28  31
ATOM     31  C   UNL     1       5.396   4.396  16.831  0.00  0.00    +0.000 C 
ATOM     32  F   UNL     1       6.437   4.263  17.700  0.00  0.00    +0.000 F 
ATOM     33  F   UNL     1       4.836   3.159  16.729  0.00  0.00    +0.000 F 
ATOM     34  F   UNL     1       5.955   4.656  15.618  0.00  0.00    +0.000 F 
ENDBRANCH  28  31
ENDBRANCH   7  25
BRANCH   1  36
ATOM     35  O   UNL     1      -4.811  11.718  16.997  0.00  0.00    +0.000 OA
ATOM     36  C   UNL     1      -3.781  11.250  16.547  0.00  0.00    +0.000 C 
BRANCH  36  37
ATOM     37  O   UNL     1      -3.645  10.856  15.263  0.00  0.00    +0.000 OA
ATOM     38  H   UNL     1      -3.061  10.087  15.125  0.00  0.00    +0.000 HD
ENDBRANCH  36  37
ENDBRANCH   1  36
TORSDOF 8
ENDMDL
