MODEL 1
REMARK VINA RESULT:      -8.9      0.000      0.000
REMARK  Name = 
REMARK  10 active torsions:
REMARK  status: ('A' for Active; 'I' for Inactive)
REMARK    1  A    between atoms: C_1  and  C_2
REMARK    2  A    between atoms: C_6  and  N_7
REMARK    3  A    between atoms: C_8  and  C_10
REMARK    4  A    between atoms: C_10  and  S_11
REMARK    5  A    between atoms: S_11  and  C_12
REMARK    6  A    between atoms: C_15  and  C_16
REMARK    7  A    between atoms: C_18  and  C_19
REMARK    8  A    between atoms: N_20  and  C_21
REMARK    9  A    between atoms: C_27  and  C_28
REMARK   10  A    between atoms: C_30  and  C_31
REMARK                            x       y       z     vdW  Elec       q    Type
REMARK                         _______ _______ _______ _____ _____    ______ ____
ROOT
ATOM      1  C   UNL     1       7.922   7.462  18.306  0.00  0.00    +0.000 A 
ATOM      2  N   UNL     1       7.279   8.015  17.302  0.00  0.00    +0.000 NA
ATOM      3  N   UNL     1       7.707   9.325  17.230  0.00  0.00    +0.000 NA
ATOM      4  C   UNL     1       8.596   9.493  18.191  0.00  0.00    +0.000 A 
ATOM      5  O   UNL     1       8.781   8.339  18.917  0.00  0.00    +0.000 OA
ENDROOT
BRANCH   4   6
ATOM      6  C   UNL     1       9.286  10.792  18.461  0.00  0.00    +0.000 A 
ATOM      7  C   UNL     1      10.460  10.952  19.213  0.00  0.00    +0.000 A 
ATOM      8  C   UNL     1      10.810  12.290  19.187  0.00  0.00    +0.000 A 
ATOM      9  C   UNL     1      11.968  12.896  19.909  0.00  0.00    +0.000 C 
ATOM     10  N   UNL     1       9.838  12.987  18.456  0.00  0.00    +0.000 N 
ATOM     11  C   UNL     1       8.897  12.044  18.003  0.00  0.00    +0.000 A 
ATOM     12  C   UNL     1       7.730  12.332  17.118  0.00  0.00    +0.000 C 
BRANCH  10  13
ATOM     13  C   UNL     1       9.812  14.409  18.237  0.00  0.00    +0.000 A 
ATOM     14  C   UNL     1      10.593  14.994  17.232  0.00  0.00    +0.000 A 
ATOM     15  C   UNL     1      10.613  16.382  17.052  0.00  0.00    +0.000 A 
ATOM     16  C   UNL     1       9.816  17.199  17.847  0.00  0.00    +0.000 A 
ATOM     17  C   UNL     1       9.010  16.629  18.830  0.00  0.00    +0.000 A 
ATOM     18  C   UNL     1       9.022  15.245  19.039  0.00  0.00    +0.000 A 
ENDBRANCH  10  13
ENDBRANCH   4   6
BRANCH   1  19
ATOM     19  S   UNL     1       7.704   5.808  18.782  0.00  0.00    +0.000 S 
BRANCH  19  20
ATOM     20  C   UNL     1       7.289   5.043  17.192  0.00  0.00    +0.000 C 
BRANCH  20  22
ATOM     21  N   UNL     1       5.370   3.931  18.230  0.00  0.00    +0.000 N 
ATOM     22  C   UNL     1       5.808   4.677  17.142  0.00  0.00    +0.000 C 
ATOM     23  O   UNL     1       5.134   5.023  16.175  0.00  0.00    +0.000 OA
ATOM     24  H   UNL     1       6.026   3.868  18.995  0.00  0.00    +0.000 HD
BRANCH  21  30
ATOM     25  C   UNL     1       0.799   4.326  20.305  0.00  0.00    +0.000 C 
ATOM     26  C   UNL     1       1.832   3.611  19.471  0.00  0.00    +0.000 A 
ATOM     27  C   UNL     1       1.455   2.417  18.843  0.00  0.00    +0.000 A 
ATOM     28  C   UNL     1       2.358   1.728  18.050  0.00  0.00    +0.000 A 
ATOM     29  C   UNL     1       3.643   2.230  17.859  0.00  0.00    +0.000 A 
ATOM     30  C   UNL     1       4.059   3.428  18.457  0.00  0.00    +0.000 A 
ATOM     31  C   UNL     1       3.150   4.125  19.296  0.00  0.00    +0.000 A 
ATOM     32  C   UNL     1       3.491   5.417  20.002  0.00  0.00    +0.000 C 
ENDBRANCH  21  30
ENDBRANCH  20  22
ENDBRANCH  19  20
ENDBRANCH   1  19
TORSDOF 6
ENDMDL
MODEL 2
REMARK VINA RESULT:      -8.9      0.953      1.789
REMARK  Name = 
REMARK  10 active torsions:
REMARK  status: ('A' for Active; 'I' for Inactive)
REMARK    1  A    between atoms: C_1  and  C_2
REMARK    2  A    between atoms: C_6  and  N_7
REMARK    3  A    between atoms: C_8  and  C_10
REMARK    4  A    between atoms: C_10  and  S_11
REMARK    5  A    between atoms: S_11  and  C_12
REMARK    6  A    between atoms: C_15  and  C_16
REMARK    7  A    between atoms: C_18  and  C_19
REMARK    8  A    between atoms: N_20  and  C_21
REMARK    9  A    between atoms: C_27  and  C_28
REMARK   10  A    between atoms: C_30  and  C_31
REMARK                            x       y       z     vdW  Elec       q    Type
REMARK                         _______ _______ _______ _____ _____    ______ ____
ROOT
ATOM      1  C   UNL     1       7.971   7.448  18.314  0.00  0.00    +0.000 A 
ATOM      2  N   UNL     1       7.248   8.026  17.381  0.00  0.00    +0.000 NA
ATOM      3  N   UNL     1       7.654   9.343  17.322  0.00  0.00    +0.000 NA
ATOM      4  C   UNL     1       8.612   9.491  18.218  0.00  0.00    +0.000 A 
ATOM      5  O   UNL     1       8.864   8.316  18.889  0.00  0.00    +0.000 OA
ENDROOT
BRANCH   4   6
ATOM      6  C   UNL     1       9.306  10.790  18.480  0.00  0.00    +0.000 A 
ATOM      7  C   UNL     1      10.482  10.951  19.228  0.00  0.00    +0.000 A 
ATOM      8  C   UNL     1      10.835  12.288  19.195  0.00  0.00    +0.000 A 
ATOM      9  C   UNL     1      11.996  12.895  19.911  0.00  0.00    +0.000 C 
ATOM     10  N   UNL     1       9.862  12.983  18.462  0.00  0.00    +0.000 N 
ATOM     11  C   UNL     1       8.918  12.040  18.017  0.00  0.00    +0.000 A 
ATOM     12  C   UNL     1       7.750  12.327  17.133  0.00  0.00    +0.000 C 
BRANCH  10  13
ATOM     13  C   UNL     1       9.839  14.404  18.237  0.00  0.00    +0.000 A 
ATOM     14  C   UNL     1       9.008  15.236  18.998  0.00  0.00    +0.000 A 
ATOM     15  C   UNL     1       8.942  16.612  18.745  0.00  0.00    +0.000 A 
ATOM     16  C   UNL     1       9.740  17.178  17.758  0.00  0.00    +0.000 A 
ATOM     17  C   UNL     1      10.595  16.368  17.015  0.00  0.00    +0.000 A 
ATOM     18  C   UNL     1      10.630  14.986  17.237  0.00  0.00    +0.000 A 
ENDBRANCH  10  13
ENDBRANCH   4   6
BRANCH   1  19
ATOM     19  S   UNL     1       7.808   5.777  18.748  0.00  0.00    +0.000 S 
BRANCH  19  20
ATOM     20  C   UNL     1       6.940   5.126  17.296  0.00  0.00    +0.000 C 
BRANCH  20  22
ATOM     21  N   UNL     1       5.108   5.200  18.919  0.00  0.00    +0.000 N 
ATOM     22  C   UNL     1       5.462   4.907  17.607  0.00  0.00    +0.000 C 
ATOM     23  O   UNL     1       4.718   4.477  16.729  0.00  0.00    +0.000 OA
ATOM     24  H   UNL     1       5.817   5.678  19.455  0.00  0.00    +0.000 HD
BRANCH  21  30
ATOM     25  C   UNL     1       1.572   2.482  21.258  0.00  0.00    +0.000 C 
ATOM     26  C   UNL     1       2.090   3.759  20.645  0.00  0.00    +0.000 A 
ATOM     27  C   UNL     1       1.277   4.897  20.717  0.00  0.00    +0.000 A 
ATOM     28  C   UNL     1       1.711   6.102  20.187  0.00  0.00    +0.000 A 
ATOM     29  C   UNL     1       2.968   6.190  19.594  0.00  0.00    +0.000 A 
ATOM     30  C   UNL     1       3.820   5.079  19.511  0.00  0.00    +0.000 A 
ATOM     31  C   UNL     1       3.371   3.834  20.025  0.00  0.00    +0.000 A 
ATOM     32  C   UNL     1       4.197   2.569  19.981  0.00  0.00    +0.000 C 
ENDBRANCH  21  30
ENDBRANCH  20  22
ENDBRANCH  19  20
ENDBRANCH   1  19
TORSDOF 6
ENDMDL
MODEL 3
REMARK VINA RESULT:      -8.8      1.215      2.030
REMARK  Name = 
REMARK  10 active torsions:
REMARK  status: ('A' for Active; 'I' for Inactive)
REMARK    1  A    between atoms: C_1  and  C_2
REMARK    2  A    between atoms: C_6  and  N_7
REMARK    3  A    between atoms: C_8  and  C_10
REMARK    4  A    between atoms: C_10  and  S_11
REMARK    5  A    between atoms: S_11  and  C_12
REMARK    6  A    between atoms: C_15  and  C_16
REMARK    7  A    between atoms: C_18  and  C_19
REMARK    8  A    between atoms: N_20  and  C_21
REMARK    9  A    between atoms: C_27  and  C_28
REMARK   10  A    between atoms: C_30  and  C_31
REMARK                            x       y       z     vdW  Elec       q    Type
REMARK                         _______ _______ _______ _____ _____    ______ ____
ROOT
ATOM      1  C   UNL     1       7.466   8.008  17.590  0.00  0.00    +0.000 A 
ATOM      2  N   UNL     1       8.137   7.513  18.606  0.00  0.00    +0.000 NA
ATOM      3  N   UNL     1       8.948   8.525  19.076  0.00  0.00    +0.000 NA
ATOM      4  C   UNL     1       8.716   9.585  18.324  0.00  0.00    +0.000 A 
ATOM      5  O   UNL     1       7.777   9.322  17.353  0.00  0.00    +0.000 OA
ENDROOT
BRANCH   4   6
ATOM      6  C   UNL     1       9.418  10.895  18.502  0.00  0.00    +0.000 A 
ATOM      7  C   UNL     1      10.636  11.084  19.172  0.00  0.00    +0.000 A 
ATOM      8  C   UNL     1      10.980  12.420  19.074  0.00  0.00    +0.000 A 
ATOM      9  C   UNL     1      12.178  13.054  19.699  0.00  0.00    +0.000 C 
ATOM     10  N   UNL     1       9.961  13.087  18.379  0.00  0.00    +0.000 N 
ATOM     11  C   UNL     1       8.997  12.127  18.023  0.00  0.00    +0.000 A 
ATOM     12  C   UNL     1       7.775  12.381  17.202  0.00  0.00    +0.000 C 
BRANCH  10  13
ATOM     13  C   UNL     1       9.917  14.501  18.110  0.00  0.00    +0.000 A 
ATOM     14  C   UNL     1       9.043  15.337  18.816  0.00  0.00    +0.000 A 
ATOM     15  C   UNL     1       8.958  16.703  18.519  0.00  0.00    +0.000 A 
ATOM     16  C   UNL     1       9.778  17.256  17.543  0.00  0.00    +0.000 A 
ATOM     17  C   UNL     1      10.674  16.442  16.854  0.00  0.00    +0.000 A 
ATOM     18  C   UNL     1      10.730  15.069  17.120  0.00  0.00    +0.000 A 
ENDBRANCH  10  13
ENDBRANCH   4   6
BRANCH   1  19
ATOM     19  S   UNL     1       6.314   7.091  16.673  0.00  0.00    +0.000 S 
BRANCH  19  20
ATOM     20  C   UNL     1       6.756   5.400  17.152  0.00  0.00    +0.000 C 
BRANCH  20  22
ATOM     21  N   UNL     1       4.445   5.238  17.946  0.00  0.00    +0.000 N 
ATOM     22  C   UNL     1       5.762   4.853  18.172  0.00  0.00    +0.000 C 
ATOM     23  O   UNL     1       6.170   4.163  19.103  0.00  0.00    +0.000 OA
ATOM     24  H   UNL     1       4.279   5.682  17.054  0.00  0.00    +0.000 HD
BRANCH  21  30
ATOM     25  C   UNL     1       0.517   2.256  18.960  0.00  0.00    +0.000 C 
ATOM     26  C   UNL     1       1.384   3.461  19.223  0.00  0.00    +0.000 A 
ATOM     27  C   UNL     1       1.077   4.259  20.332  0.00  0.00    +0.000 A 
ATOM     28  C   UNL     1       1.852   5.368  20.633  0.00  0.00    +0.000 A 
ATOM     29  C   UNL     1       2.953   5.684  19.840  0.00  0.00    +0.000 A 
ATOM     30  C   UNL     1       3.304   4.906  18.727  0.00  0.00    +0.000 A 
ATOM     31  C   UNL     1       2.498   3.786  18.395  0.00  0.00    +0.000 A 
ATOM     32  C   UNL     1       2.773   2.883  17.215  0.00  0.00    +0.000 C 
ENDBRANCH  21  30
ENDBRANCH  20  22
ENDBRANCH  19  20
ENDBRANCH   1  19
TORSDOF 6
ENDMDL
MODEL 4
REMARK VINA RESULT:      -8.4      0.848      1.047
REMARK  Name = 
REMARK  10 active torsions:
REMARK  status: ('A' for Active; 'I' for Inactive)
REMARK    1  A    between atoms: C_1  and  C_2
REMARK    2  A    between atoms: C_6  and  N_7
REMARK    3  A    between atoms: C_8  and  C_10
REMARK    4  A    between atoms: C_10  and  S_11
REMARK    5  A    between atoms: S_11  and  C_12
REMARK    6  A    between atoms: C_15  and  C_16
REMARK    7  A    between atoms: C_18  and  C_19
REMARK    8  A    between atoms: N_20  and  C_21
REMARK    9  A    between atoms: C_27  and  C_28
REMARK   10  A    between atoms: C_30  and  C_31
REMARK                            x       y       z     vdW  Elec       q    Type
REMARK                         _______ _______ _______ _____ _____    ______ ____
ROOT
ATOM      1  C   UNL     1       7.800   7.377  18.239  0.00  0.00    +0.000 A 
ATOM      2  N   UNL     1       7.075   7.990  17.330  0.00  0.00    +0.000 NA
ATOM      3  N   UNL     1       7.514   9.298  17.291  0.00  0.00    +0.000 NA
ATOM      4  C   UNL     1       8.490   9.404  18.173  0.00  0.00    +0.000 A 
ATOM      5  O   UNL     1       8.724   8.210  18.815  0.00  0.00    +0.000 OA
ENDROOT
BRANCH   4   6
ATOM      6  C   UNL     1       9.221  10.680  18.448  0.00  0.00    +0.000 A 
ATOM      7  C   UNL     1      10.402  10.799  19.196  0.00  0.00    +0.000 A 
ATOM      8  C   UNL     1      10.793  12.126  19.178  0.00  0.00    +0.000 A 
ATOM      9  C   UNL     1      11.971  12.691  19.899  0.00  0.00    +0.000 C 
ATOM     10  N   UNL     1       9.838  12.856  18.456  0.00  0.00    +0.000 N 
ATOM     11  C   UNL     1       8.867  11.946  18.001  0.00  0.00    +0.000 A 
ATOM     12  C   UNL     1       7.706  12.276  17.123  0.00  0.00    +0.000 C 
BRANCH  10  13
ATOM     13  C   UNL     1       9.855  14.281  18.247  0.00  0.00    +0.000 A 
ATOM     14  C   UNL     1      10.632  14.846  17.227  0.00  0.00    +0.000 A 
ATOM     15  C   UNL     1      10.694  16.234  17.056  0.00  0.00    +0.000 A 
ATOM     16  C   UNL     1       9.943  17.071  17.874  0.00  0.00    +0.000 A 
ATOM     17  C   UNL     1       9.142  16.521  18.872  0.00  0.00    +0.000 A 
ATOM     18  C   UNL     1       9.113  15.136  19.072  0.00  0.00    +0.000 A 
ENDBRANCH  10  13
ENDBRANCH   4   6
BRANCH   1  19
ATOM     19  S   UNL     1       7.603   5.701  18.641  0.00  0.00    +0.000 S 
BRANCH  19  20
ATOM     20  C   UNL     1       7.266   4.990  17.008  0.00  0.00    +0.000 C 
BRANCH  20  22
ATOM     21  N   UNL     1       5.069   4.716  18.055  0.00  0.00    +0.000 N 
ATOM     22  C   UNL     1       5.864   4.388  16.963  0.00  0.00    +0.000 C 
ATOM     23  O   UNL     1       5.550   3.661  16.024  0.00  0.00    +0.000 OA
ATOM     24  H   UNL     1       5.443   5.439  18.652  0.00  0.00    +0.000 HD
BRANCH  21  30
ATOM     25  C   UNL     1       1.676   2.253  20.844  0.00  0.00    +0.000 C 
ATOM     26  C   UNL     1       2.076   3.092  19.655  0.00  0.00    +0.000 A 
ATOM     27  C   UNL     1       1.065   3.523  18.788  0.00  0.00    +0.000 A 
ATOM     28  C   UNL     1       1.373   4.311  17.691  0.00  0.00    +0.000 A 
ATOM     29  C   UNL     1       2.692   4.693  17.456  0.00  0.00    +0.000 A 
ATOM     30  C   UNL     1       3.734   4.295  18.305  0.00  0.00    +0.000 A 
ATOM     31  C   UNL     1       3.431   3.463  19.414  0.00  0.00    +0.000 A 
ATOM     32  C   UNL     1       4.472   2.963  20.389  0.00  0.00    +0.000 C 
ENDBRANCH  21  30
ENDBRANCH  20  22
ENDBRANCH  19  20
ENDBRANCH   1  19
TORSDOF 6
ENDMDL
MODEL 5
REMARK VINA RESULT:      -8.3      5.572      7.858
REMARK  Name = 
REMARK  10 active torsions:
REMARK  status: ('A' for Active; 'I' for Inactive)
REMARK    1  A    between atoms: C_1  and  C_2
REMARK    2  A    between atoms: C_6  and  N_7
REMARK    3  A    between atoms: C_8  and  C_10
REMARK    4  A    between atoms: C_10  and  S_11
REMARK    5  A    between atoms: S_11  and  C_12
REMARK    6  A    between atoms: C_15  and  C_16
REMARK    7  A    between atoms: C_18  and  C_19
REMARK    8  A    between atoms: N_20  and  C_21
REMARK    9  A    between atoms: C_27  and  C_28
REMARK   10  A    between atoms: C_30  and  C_31
REMARK                            x       y       z     vdW  Elec       q    Type
REMARK                         _______ _______ _______ _____ _____    ______ ____
ROOT
ATOM      1  C   UNL     1       1.649   4.160  20.075  0.00  0.00    +0.000 A 
ATOM      2  N   UNL     1       2.896   4.538  20.246  0.00  0.00    +0.000 NA
ATOM      3  N   UNL     1       2.868   5.894  20.502  0.00  0.00    +0.000 NA
ATOM      4  C   UNL     1       1.601   6.263  20.482  0.00  0.00    +0.000 A 
ATOM      5  O   UNL     1       0.768   5.201  20.215  0.00  0.00    +0.000 OA
ENDROOT
BRANCH   4   6
ATOM      6  C   UNL     1       1.148   7.673  20.698  0.00  0.00    +0.000 A 
ATOM      7  C   UNL     1       0.544   8.167  21.864  0.00  0.00    +0.000 A 
ATOM      8  C   UNL     1       0.321   9.521  21.694  0.00  0.00    +0.000 A 
ATOM      9  C   UNL     1      -0.353  10.418  22.678  0.00  0.00    +0.000 C 
ATOM     10  N   UNL     1       0.744   9.879  20.406  0.00  0.00    +0.000 N 
ATOM     11  C   UNL     1       1.261   8.722  19.796  0.00  0.00    +0.000 A 
ATOM     12  C   UNL     1       1.895   8.657  18.446  0.00  0.00    +0.000 C 
BRANCH  10  13
ATOM     13  C   UNL     1       0.638  11.191  19.823  0.00  0.00    +0.000 A 
ATOM     14  C   UNL     1      -0.472  11.540  19.041  0.00  0.00    +0.000 A 
ATOM     15  C   UNL     1      -0.553  12.796  18.428  0.00  0.00    +0.000 A 
ATOM     16  C   UNL     1       0.453  13.735  18.626  0.00  0.00    +0.000 A 
ATOM     17  C   UNL     1       1.548  13.413  19.426  0.00  0.00    +0.000 A 
ATOM     18  C   UNL     1       1.651  12.142  20.005  0.00  0.00    +0.000 A 
ENDBRANCH  10  13
ENDBRANCH   4   6
BRANCH   1  19
ATOM     19  S   UNL     1       1.189   2.525  19.725  0.00  0.00    +0.000 S 
BRANCH  19  20
ATOM     20  C   UNL     1       2.709   1.892  18.967  0.00  0.00    +0.000 C 
BRANCH  20  22
ATOM     21  N   UNL     1       4.531   3.230  18.024  0.00  0.00    +0.000 N 
ATOM     22  C   UNL     1       3.204   2.842  17.879  0.00  0.00    +0.000 C 
ATOM     23  O   UNL     1       2.427   3.210  17.002  0.00  0.00    +0.000 OA
ATOM     24  H   UNL     1       5.053   2.713  18.717  0.00  0.00    +0.000 HD
BRANCH  21  30
ATOM     25  C   UNL     1       7.661   7.125  17.402  0.00  0.00    +0.000 C 
ATOM     26  C   UNL     1       6.785   6.015  16.876  0.00  0.00    +0.000 A 
ATOM     27  C   UNL     1       6.742   5.816  15.491  0.00  0.00    +0.000 A 
ATOM     28  C   UNL     1       5.969   4.799  14.953  0.00  0.00    +0.000 A 
ATOM     29  C   UNL     1       5.242   3.959  15.793  0.00  0.00    +0.000 A 
ATOM     30  C   UNL     1       5.265   4.114  17.187  0.00  0.00    +0.000 A 
ATOM     31  C   UNL     1       6.032   5.172  17.743  0.00  0.00    +0.000 A 
ATOM     32  C   UNL     1       6.122   5.442  19.228  0.00  0.00    +0.000 C 
ENDBRANCH  21  30
ENDBRANCH  20  22
ENDBRANCH  19  20
ENDBRANCH   1  19
TORSDOF 6
ENDMDL
MODEL 6
REMARK VINA RESULT:      -8.3      5.915      8.122
REMARK  Name = 
REMARK  10 active torsions:
REMARK  status: ('A' for Active; 'I' for Inactive)
REMARK    1  A    between atoms: C_1  and  C_2
REMARK    2  A    between atoms: C_6  and  N_7
REMARK    3  A    between atoms: C_8  and  C_10
REMARK    4  A    between atoms: C_10  and  S_11
REMARK    5  A    between atoms: S_11  and  C_12
REMARK    6  A    between atoms: C_15  and  C_16
REMARK    7  A    between atoms: C_18  and  C_19
REMARK    8  A    between atoms: N_20  and  C_21
REMARK    9  A    between atoms: C_27  and  C_28
REMARK   10  A    between atoms: C_30  and  C_31
REMARK                            x       y       z     vdW  Elec       q    Type
REMARK                         _______ _______ _______ _____ _____    ______ ____
ROOT
ATOM      1  C   UNL     1       4.195   5.104  19.400  0.00  0.00    +0.000 A 
ATOM      2  N   UNL     1       3.186   4.361  19.796  0.00  0.00    +0.000 NA
ATOM      3  N   UNL     1       2.159   5.224  20.116  0.00  0.00    +0.000 NA
ATOM      4  C   UNL     1       2.598   6.447  19.886  0.00  0.00    +0.000 A 
ATOM      5  O   UNL     1       3.895   6.442  19.425  0.00  0.00    +0.000 OA
ENDROOT
BRANCH   4   6
ATOM      6  C   UNL     1       1.783   7.678  20.130  0.00  0.00    +0.000 A 
ATOM      7  C   UNL     1       1.115   7.991  21.323  0.00  0.00    +0.000 A 
ATOM      8  C   UNL     1       0.522   9.232  21.173  0.00  0.00    +0.000 A 
ATOM      9  C   UNL     1      -0.334   9.912  22.190  0.00  0.00    +0.000 C 
ATOM     10  N   UNL     1       0.777   9.688  19.872  0.00  0.00    +0.000 N 
ATOM     11  C   UNL     1       1.568   8.716  19.233  0.00  0.00    +0.000 A 
ATOM     12  C   UNL     1       2.141   8.823  17.859  0.00  0.00    +0.000 C 
BRANCH  10  13
ATOM     13  C   UNL     1       0.292  10.918  19.304  0.00  0.00    +0.000 A 
ATOM     14  C   UNL     1      -0.963  10.974  18.682  0.00  0.00    +0.000 A 
ATOM     15  C   UNL     1      -1.415  12.155  18.081  0.00  0.00    +0.000 A 
ATOM     16  C   UNL     1      -0.638  13.306  18.134  0.00  0.00    +0.000 A 
ATOM     17  C   UNL     1       0.598  13.274  18.776  0.00  0.00    +0.000 A 
ATOM     18  C   UNL     1       1.070  12.083  19.340  0.00  0.00    +0.000 A 
ENDBRANCH  10  13
ENDBRANCH   4   6
BRANCH   1  19
ATOM     19  S   UNL     1       5.720   4.449  18.894  0.00  0.00    +0.000 S 
BRANCH  19  20
ATOM     20  C   UNL     1       6.530   5.930  18.234  0.00  0.00    +0.000 C 
BRANCH  20  22
ATOM     21  N   UNL     1       7.051   5.024  16.019  0.00  0.00    +0.000 N 
ATOM     22  C   UNL     1       6.359   6.006  16.719  0.00  0.00    +0.000 C 
ATOM     23  O   UNL     1       5.677   6.905  16.234  0.00  0.00    +0.000 OA
ATOM     24  H   UNL     1       7.436   4.286  16.590  0.00  0.00    +0.000 HD
BRANCH  21  30
ATOM     25  C   UNL     1       5.291   2.973  11.770  0.00  0.00    +0.000 C 
ATOM     26  C   UNL     1       6.254   3.846  12.535  0.00  0.00    +0.000 A 
ATOM     27  C   UNL     1       7.212   4.561  11.805  0.00  0.00    +0.000 A 
ATOM     28  C   UNL     1       8.109   5.393  12.455  0.00  0.00    +0.000 A 
ATOM     29  C   UNL     1       8.052   5.534  13.840  0.00  0.00    +0.000 A 
ATOM     30  C   UNL     1       7.102   4.847  14.609  0.00  0.00    +0.000 A 
ATOM     31  C   UNL     1       6.198   3.970  13.954  0.00  0.00    +0.000 A 
ATOM     32  C   UNL     1       5.141   3.170  14.680  0.00  0.00    +0.000 C 
ENDBRANCH  21  30
ENDBRANCH  20  22
ENDBRANCH  19  20
ENDBRANCH   1  19
TORSDOF 6
ENDMDL
MODEL 7
REMARK VINA RESULT:      -8.1      7.384     11.468
REMARK  Name = 
REMARK  10 active torsions:
REMARK  status: ('A' for Active; 'I' for Inactive)
REMARK    1  A    between atoms: C_1  and  C_2
REMARK    2  A    between atoms: C_6  and  N_7
REMARK    3  A    between atoms: C_8  and  C_10
REMARK    4  A    between atoms: C_10  and  S_11
REMARK    5  A    between atoms: S_11  and  C_12
REMARK    6  A    between atoms: C_15  and  C_16
REMARK    7  A    between atoms: C_18  and  C_19
REMARK    8  A    between atoms: N_20  and  C_21
REMARK    9  A    between atoms: C_27  and  C_28
REMARK   10  A    between atoms: C_30  and  C_31
REMARK                            x       y       z     vdW  Elec       q    Type
REMARK                         _______ _______ _______ _____ _____    ______ ____
ROOT
ATOM      1  C   UNL     1       0.327  10.733  19.703  0.00  0.00    +0.000 A 
ATOM      2  N   UNL     1       0.597  10.304  20.916  0.00  0.00    +0.000 NA
ATOM      3  N   UNL     1       1.346   9.155  20.773  0.00  0.00    +0.000 NA
ATOM      4  C   UNL     1       1.500   8.955  19.478  0.00  0.00    +0.000 A 
ATOM      5  O   UNL     1       0.873   9.929  18.735  0.00  0.00    +0.000 OA
ENDROOT
BRANCH   4   6
ATOM      6  C   UNL     1       2.244   7.790  18.904  0.00  0.00    +0.000 A 
ATOM      7  C   UNL     1       3.190   7.855  17.870  0.00  0.00    +0.000 A 
ATOM      8  C   UNL     1       3.690   6.582  17.661  0.00  0.00    +0.000 A 
ATOM      9  C   UNL     1       4.681   6.202  16.611  0.00  0.00    +0.000 C 
ATOM     10  N   UNL     1       3.032   5.702  18.532  0.00  0.00    +0.000 N 
ATOM     11  C   UNL     1       2.138   6.465  19.305  0.00  0.00    +0.000 A 
ATOM     12  C   UNL     1       1.286   5.948  20.416  0.00  0.00    +0.000 C 
BRANCH  10  13
ATOM     13  C   UNL     1       3.231   4.278  18.593  0.00  0.00    +0.000 A 
ATOM     14  C   UNL     1       4.167   3.723  19.476  0.00  0.00    +0.000 A 
ATOM     15  C   UNL     1       4.403   2.343  19.500  0.00  0.00    +0.000 A 
ATOM     16  C   UNL     1       3.674   1.497  18.673  0.00  0.00    +0.000 A 
ATOM     17  C   UNL     1       2.718   2.031  17.811  0.00  0.00    +0.000 A 
ATOM     18  C   UNL     1       2.512   3.415  17.756  0.00  0.00    +0.000 A 
ENDBRANCH  10  13
ENDBRANCH   4   6
BRANCH   1  19
ATOM     19  S   UNL     1      -0.604  12.161  19.383  0.00  0.00    +0.000 S 
BRANCH  19  20
ATOM     20  C   UNL     1      -1.524  11.651  17.907  0.00  0.00    +0.000 C 
BRANCH  20  22
ATOM     21  N   UNL     1      -3.639  12.344  18.928  0.00  0.00    +0.000 N 
ATOM     22  C   UNL     1      -2.971  11.322  18.263  0.00  0.00    +0.000 C 
ATOM     23  O   UNL     1      -3.426  10.217  17.980  0.00  0.00    +0.000 OA
ATOM     24  H   UNL     1      -3.155  13.230  18.943  0.00  0.00    +0.000 HD
BRANCH  21  30
ATOM     25  C   UNL     1      -6.994  12.734  22.663  0.00  0.00    +0.000 C 
ATOM     26  C   UNL     1      -6.620  12.513  21.218  0.00  0.00    +0.000 A 
ATOM     27  C   UNL     1      -7.656  12.342  20.292  0.00  0.00    +0.000 A 
ATOM     28  C   UNL     1      -7.371  12.155  18.949  0.00  0.00    +0.000 A 
ATOM     29  C   UNL     1      -6.048  12.151  18.512  0.00  0.00    +0.000 A 
ATOM     30  C   UNL     1      -4.980  12.331  19.402  0.00  0.00    +0.000 A 
ATOM     31  C   UNL     1      -5.262  12.494  20.784  0.00  0.00    +0.000 A 
ATOM     32  C   UNL     1      -4.194  12.683  21.836  0.00  0.00    +0.000 C 
ENDBRANCH  21  30
ENDBRANCH  20  22
ENDBRANCH  19  20
ENDBRANCH   1  19
TORSDOF 6
ENDMDL
MODEL 8
REMARK VINA RESULT:      -8.1      5.944      7.993
REMARK  Name = 
REMARK  10 active torsions:
REMARK  status: ('A' for Active; 'I' for Inactive)
REMARK    1  A    between atoms: C_1  and  C_2
REMARK    2  A    between atoms: C_6  and  N_7
REMARK    3  A    between atoms: C_8  and  C_10
REMARK    4  A    between atoms: C_10  and  S_11
REMARK    5  A    between atoms: S_11  and  C_12
REMARK    6  A    between atoms: C_15  and  C_16
REMARK    7  A    between atoms: C_18  and  C_19
REMARK    8  A    between atoms: N_20  and  C_21
REMARK    9  A    between atoms: C_27  and  C_28
REMARK   10  A    between atoms: C_30  and  C_31
REMARK                            x       y       z     vdW  Elec       q    Type
REMARK                         _______ _______ _______ _____ _____    ______ ____
ROOT
ATOM      1  C   UNL     1       1.711   3.916  20.355  0.00  0.00    +0.000 A 
ATOM      2  N   UNL     1       2.271   4.302  21.479  0.00  0.00    +0.000 NA
ATOM      3  N   UNL     1       2.296   5.681  21.457  0.00  0.00    +0.000 NA
ATOM      4  C   UNL     1       1.738   6.058  20.322  0.00  0.00    +0.000 A 
ATOM      5  O   UNL     1       1.341   4.976  19.569  0.00  0.00    +0.000 OA
ENDROOT
BRANCH   4   6
ATOM      6  C   UNL     1       1.590   7.488  19.907  0.00  0.00    +0.000 A 
ATOM      7  C   UNL     1       2.187   8.078  18.783  0.00  0.00    +0.000 A 
ATOM      8  C   UNL     1       1.769   9.394  18.713  0.00  0.00    +0.000 A 
ATOM      9  C   UNL     1       2.215  10.392  17.696  0.00  0.00    +0.000 C 
ATOM     10  N   UNL     1       0.940   9.653  19.814  0.00  0.00    +0.000 N 
ATOM     11  C   UNL     1       0.831   8.458  20.548  0.00  0.00    +0.000 A 
ATOM     12  C   UNL     1      -0.019   8.252  21.758  0.00  0.00    +0.000 C 
BRANCH  10  13
ATOM     13  C   UNL     1       0.338  10.921  20.131  0.00  0.00    +0.000 A 
ATOM     14  C   UNL     1       1.028  11.869  20.899  0.00  0.00    +0.000 A 
ATOM     15  C   UNL     1       0.425  13.082  21.256  0.00  0.00    +0.000 A 
ATOM     16  C   UNL     1      -0.857  13.380  20.810  0.00  0.00    +0.000 A 
ATOM     17  C   UNL     1      -1.543  12.461  20.019  0.00  0.00    +0.000 A 
ATOM     18  C   UNL     1      -0.958  11.230  19.698  0.00  0.00    +0.000 A 
ENDBRANCH  10  13
ENDBRANCH   4   6
BRANCH   1  19
ATOM     19  S   UNL     1       1.466   2.250  19.935  0.00  0.00    +0.000 S 
BRANCH  19  20
ATOM     20  C   UNL     1       1.680   2.311  18.137  0.00  0.00    +0.000 C 
BRANCH  20  22
ATOM     21  N   UNL     1       3.415   3.846  17.341  0.00  0.00    +0.000 N 
ATOM     22  C   UNL     1       3.144   2.554  17.777  0.00  0.00    +0.000 C 
ATOM     23  O   UNL     1       3.947   1.630  17.864  0.00  0.00    +0.000 OA
ATOM     24  H   UNL     1       2.663   4.508  17.476  0.00  0.00    +0.000 HD
BRANCH  21  30
ATOM     25  C   UNL     1       7.703   6.307  18.293  0.00  0.00    +0.000 C 
ATOM     26  C   UNL     1       6.758   5.572  17.376  0.00  0.00    +0.000 A 
ATOM     27  C   UNL     1       7.169   5.345  16.057  0.00  0.00    +0.000 A 
ATOM     28  C   UNL     1       6.349   4.658  15.176  0.00  0.00    +0.000 A 
ATOM     29  C   UNL     1       5.115   4.174  15.606  0.00  0.00    +0.000 A 
ATOM     30  C   UNL     1       4.669   4.368  16.921  0.00  0.00    +0.000 A 
ATOM     31  C   UNL     1       5.490   5.096  17.821  0.00  0.00    +0.000 A 
ATOM     32  C   UNL     1       5.108   5.376  19.257  0.00  0.00    +0.000 C 
ENDBRANCH  21  30
ENDBRANCH  20  22
ENDBRANCH  19  20
ENDBRANCH   1  19
TORSDOF 6
ENDMDL
MODEL 9
REMARK VINA RESULT:      -8.0      7.198     10.977
REMARK  Name = 
REMARK  10 active torsions:
REMARK  status: ('A' for Active; 'I' for Inactive)
REMARK    1  A    between atoms: C_1  and  C_2
REMARK    2  A    between atoms: C_6  and  N_7
REMARK    3  A    between atoms: C_8  and  C_10
REMARK    4  A    between atoms: C_10  and  S_11
REMARK    5  A    between atoms: S_11  and  C_12
REMARK    6  A    between atoms: C_15  and  C_16
REMARK    7  A    between atoms: C_18  and  C_19
REMARK    8  A    between atoms: N_20  and  C_21
REMARK    9  A    between atoms: C_27  and  C_28
REMARK   10  A    between atoms: C_30  and  C_31
REMARK                            x       y       z     vdW  Elec       q    Type
REMARK                         _______ _______ _______ _____ _____    ______ ____
ROOT
ATOM      1  C   UNL     1       0.469   9.802  20.114  0.00  0.00    +0.000 A 
ATOM      2  N   UNL     1       0.447   9.321  21.336  0.00  0.00    +0.000 NA
ATOM      3  N   UNL     1       1.179   8.151  21.315  0.00  0.00    +0.000 NA
ATOM      4  C   UNL     1       1.615   7.992  20.080  0.00  0.00    +0.000 A 
ATOM      5  O   UNL     1       1.196   9.015  19.259  0.00  0.00    +0.000 OA
ENDROOT
BRANCH   4   6
ATOM      6  C   UNL     1       2.437   6.823  19.636  0.00  0.00    +0.000 A 
ATOM      7  C   UNL     1       2.418   5.546  20.216  0.00  0.00    +0.000 A 
ATOM      8  C   UNL     1       3.272   4.732  19.494  0.00  0.00    +0.000 A 
ATOM      9  C   UNL     1       3.586   3.307  19.812  0.00  0.00    +0.000 C 
ATOM     10  N   UNL     1       3.866   5.501  18.483  0.00  0.00    +0.000 N 
ATOM     11  C   UNL     1       3.334   6.800  18.577  0.00  0.00    +0.000 A 
ATOM     12  C   UNL     1       3.626   7.931  17.648  0.00  0.00    +0.000 C 
BRANCH  10  13
ATOM     13  C   UNL     1       4.853   5.035  17.545  0.00  0.00    +0.000 A 
ATOM     14  C   UNL     1       4.468   4.500  16.309  0.00  0.00    +0.000 A 
ATOM     15  C   UNL     1       5.422   3.995  15.416  0.00  0.00    +0.000 A 
ATOM     16  C   UNL     1       6.774   4.062  15.730  0.00  0.00    +0.000 A 
ATOM     17  C   UNL     1       7.173   4.620  16.943  0.00  0.00    +0.000 A 
ATOM     18  C   UNL     1       6.218   5.086  17.854  0.00  0.00    +0.000 A 
ENDBRANCH  10  13
ENDBRANCH   4   6
BRANCH   1  19
ATOM     19  S   UNL     1      -0.327  11.274  19.655  0.00  0.00    +0.000 S 
BRANCH  19  20
ATOM     20  C   UNL     1       0.278  12.407  20.933  0.00  0.00    +0.000 C 
BRANCH  20  22
ATOM     21  N   UNL     1      -1.983  12.150  21.839  0.00  0.00    +0.000 N 
ATOM     22  C   UNL     1      -0.887  12.997  21.724  0.00  0.00    +0.000 C 
ATOM     23  O   UNL     1      -0.799  14.141  22.164  0.00  0.00    +0.000 OA
ATOM     24  H   UNL     1      -1.819  11.199  21.543  0.00  0.00    +0.000 HD
BRANCH  21  30
ATOM     25  C   UNL     1      -6.869  13.361  21.712  0.00  0.00    +0.000 C 
ATOM     26  C   UNL     1      -5.594  13.016  22.442  0.00  0.00    +0.000 A 
ATOM     27  C   UNL     1      -5.648  12.903  23.837  0.00  0.00    +0.000 A 
ATOM     28  C   UNL     1      -4.512  12.570  24.557  0.00  0.00    +0.000 A 
ATOM     29  C   UNL     1      -3.312  12.330  23.892  0.00  0.00    +0.000 A 
ATOM     30  C   UNL     1      -3.215  12.420  22.496  0.00  0.00    +0.000 A 
ATOM     31  C   UNL     1      -4.367  12.790  21.754  0.00  0.00    +0.000 A 
ATOM     32  C   UNL     1      -4.378  12.930  20.249  0.00  0.00    +0.000 C 
ENDBRANCH  21  30
ENDBRANCH  20  22
ENDBRANCH  19  20
ENDBRANCH   1  19
TORSDOF 6
ENDMDL
