MODEL 1
REMARK VINA RESULT:      -8.4      0.000      0.000
REMARK  Name = 
REMARK  2 active torsions:
REMARK  status: ('A' for Active; 'I' for Inactive)
REMARK    1  A    between atoms: C_7  and  C_8
REMARK    2  A    between atoms: C_14  and  C_15
REMARK                            x       y       z     vdW  Elec       q    Type
REMARK                         _______ _______ _______ _____ _____    ______ ____
ROOT
ATOM      1  O   UNL     1       7.237   4.484  12.911  0.00  0.00    +0.000 OA
ATOM      2  C   UNL     1       6.772   4.574  14.032  0.00  0.00    +0.000 A 
ATOM      3  N   UNL     1       7.487   4.764  15.224  0.00  0.00    +0.000 N 
ATOM      4  C   UNL     1       6.596   4.720  16.289  0.00  0.00    +0.000 A 
ATOM      5  C   UNL     1       6.832   4.738  17.636  0.00  0.00    +0.000 A 
ATOM      6  C   UNL     1       5.727   4.507  18.477  0.00  0.00    +0.000 A 
ATOM      7  C   UNL     1       4.389   4.363  17.991  0.00  0.00    +0.000 A 
ATOM      8  C   UNL     1       4.207   4.464  16.592  0.00  0.00    +0.000 A 
ATOM      9  C   UNL     1       5.316   4.570  15.775  0.00  0.00    +0.000 A 
ATOM     10  N   UNL     1       5.415   4.493  14.392  0.00  0.00    +0.000 N 
ATOM     11  H   UNL     1       8.491   4.824  15.270  0.00  0.00    +0.000 HD
ATOM     12  H   UNL     1       4.679   4.283  13.738  0.00  0.00    +0.000 HD
ENDROOT
BRANCH   7  13
ATOM     13  C   UNL     1       3.240   4.045  18.920  0.00  0.00    +0.000 A 
ATOM     14  C   UNL     1       2.813   2.692  19.133  0.00  0.00    +0.000 A 
ATOM     15 CL   UNL     1       3.649   1.294  18.512  0.00  0.00    +0.000 Cl
ATOM     16  C   UNL     1       1.730   2.365  19.960  0.00  0.00    +0.000 A 
ATOM     17  C   UNL     1       1.058   3.348  20.658  0.00  0.00    +0.000 A 
ATOM     18  C   UNL     1       1.481   4.663  20.524  0.00  0.00    +0.000 A 
ATOM     19  C   UNL     1       2.540   5.057  19.665  0.00  0.00    +0.000 A 
BRANCH  19  20
ATOM     20  C   UNL     1       2.893   6.541  19.720  0.00  0.00    +0.000 C 
ATOM     21  C   UNL     1       2.500   7.536  18.657  0.00  0.00    +0.000 C 
ATOM     22  C   UNL     1       1.792   7.554  19.976  0.00  0.00    +0.000 C 
ENDBRANCH  19  20
ENDBRANCH   7  13
TORSDOF 2
ENDMDL
MODEL 2
REMARK VINA RESULT:      -8.3      4.659      6.651
REMARK  Name = 
REMARK  2 active torsions:
REMARK  status: ('A' for Active; 'I' for Inactive)
REMARK    1  A    between atoms: C_7  and  C_8
REMARK    2  A    between atoms: C_14  and  C_15
REMARK                            x       y       z     vdW  Elec       q    Type
REMARK                         _______ _______ _______ _____ _____    ______ ____
ROOT
ATOM      1  O   UNL     1       0.121  10.063  22.764  0.00  0.00    +0.000 OA
ATOM      2  C   UNL     1       0.662   9.571  21.791  0.00  0.00    +0.000 A 
ATOM      3  N   UNL     1       0.609  10.047  20.472  0.00  0.00    +0.000 N 
ATOM      4  C   UNL     1       1.281   9.152  19.649  0.00  0.00    +0.000 A 
ATOM      5  C   UNL     1       1.397   9.124  18.287  0.00  0.00    +0.000 A 
ATOM      6  C   UNL     1       2.005   7.987  17.724  0.00  0.00    +0.000 A 
ATOM      7  C   UNL     1       2.583   6.939  18.509  0.00  0.00    +0.000 A 
ATOM      8  C   UNL     1       2.521   7.089  19.913  0.00  0.00    +0.000 A 
ATOM      9  C   UNL     1       1.816   8.150  20.447  0.00  0.00    +0.000 A 
ATOM     10  N   UNL     1       1.451   8.408  21.761  0.00  0.00    +0.000 N 
ATOM     11  H   UNL     1       0.080  10.857  20.191  0.00  0.00    +0.000 HD
ATOM     12  H   UNL     1       1.595   7.815  22.562  0.00  0.00    +0.000 HD
ENDROOT
BRANCH   7  13
ATOM     13  C   UNL     1       3.164   5.699  17.868  0.00  0.00    +0.000 A 
ATOM     14  C   UNL     1       4.444   5.730  17.221  0.00  0.00    +0.000 A 
ATOM     15 CL   UNL     1       5.520   7.101  17.251  0.00  0.00    +0.000 Cl
ATOM     16  C   UNL     1       4.995   4.609  16.588  0.00  0.00    +0.000 A 
ATOM     17  C   UNL     1       4.340   3.395  16.614  0.00  0.00    +0.000 A 
ATOM     18  C   UNL     1       3.127   3.310  17.283  0.00  0.00    +0.000 A 
ATOM     19  C   UNL     1       2.499   4.423  17.900  0.00  0.00    +0.000 A 
BRANCH  19  20
ATOM     20  C   UNL     1       1.205   4.100  18.643  0.00  0.00    +0.000 C 
ATOM     21  C   UNL     1       0.810   2.710  19.073  0.00  0.00    +0.000 C 
ATOM     22  C   UNL     1       1.272   3.693  20.103  0.00  0.00    +0.000 C 
ENDBRANCH  19  20
ENDBRANCH   7  13
TORSDOF 2
ENDMDL
MODEL 3
REMARK VINA RESULT:      -8.2      4.339      6.304
REMARK  Name = 
REMARK  2 active torsions:
REMARK  status: ('A' for Active; 'I' for Inactive)
REMARK    1  A    between atoms: C_7  and  C_8
REMARK    2  A    between atoms: C_14  and  C_15
REMARK                            x       y       z     vdW  Elec       q    Type
REMARK                         _______ _______ _______ _____ _____    ______ ____
ROOT
ATOM      1  O   UNL     1       0.606  12.399  18.814  0.00  0.00    +0.000 OA
ATOM      2  C   UNL     1       0.878  11.214  18.882  0.00  0.00    +0.000 A 
ATOM      3  N   UNL     1       0.884  10.421  20.039  0.00  0.00    +0.000 N 
ATOM      4  C   UNL     1       1.338   9.151  19.705  0.00  0.00    +0.000 A 
ATOM      5  C   UNL     1       1.625   8.079  20.505  0.00  0.00    +0.000 A 
ATOM      6  C   UNL     1       2.234   6.971  19.887  0.00  0.00    +0.000 A 
ATOM      7  C   UNL     1       2.462   6.887  18.477  0.00  0.00    +0.000 A 
ATOM      8  C   UNL     1       2.040   7.990  17.699  0.00  0.00    +0.000 A 
ATOM      9  C   UNL     1       1.555   9.116  18.334  0.00  0.00    +0.000 A 
ATOM     10  N   UNL     1       1.262  10.374  17.823  0.00  0.00    +0.000 N 
ATOM     11  H   UNL     1       0.679  10.773  20.960  0.00  0.00    +0.000 HD
ATOM     12  H   UNL     1       1.415  10.701  16.883  0.00  0.00    +0.000 HD
ENDROOT
BRANCH   7  13
ATOM     13  C   UNL     1       3.184   5.711  17.860  0.00  0.00    +0.000 A 
ATOM     14  C   UNL     1       4.512   5.850  17.336  0.00  0.00    +0.000 A 
ATOM     15 CL   UNL     1       5.482   7.288  17.501  0.00  0.00    +0.000 Cl
ATOM     16  C   UNL     1       5.196   4.789  16.727  0.00  0.00    +0.000 A 
ATOM     17  C   UNL     1       4.628   3.534  16.660  0.00  0.00    +0.000 A 
ATOM     18  C   UNL     1       3.367   3.346  17.211  0.00  0.00    +0.000 A 
ATOM     19  C   UNL     1       2.610   4.393  17.797  0.00  0.00    +0.000 A 
BRANCH  19  20
ATOM     20  C   UNL     1       1.280   3.959  18.408  0.00  0.00    +0.000 C 
ATOM     21  C   UNL     1       0.939   2.530  18.747  0.00  0.00    +0.000 C 
ATOM     22  C   UNL     1       1.245   3.494  19.851  0.00  0.00    +0.000 C 
ENDBRANCH  19  20
ENDBRANCH   7  13
TORSDOF 2
ENDMDL
MODEL 4
REMARK VINA RESULT:      -7.8      1.943      3.110
REMARK  Name = 
REMARK  2 active torsions:
REMARK  status: ('A' for Active; 'I' for Inactive)
REMARK    1  A    between atoms: C_7  and  C_8
REMARK    2  A    between atoms: C_14  and  C_15
REMARK                            x       y       z     vdW  Elec       q    Type
REMARK                         _______ _______ _______ _____ _____    ______ ____
ROOT
ATOM      1  O   UNL     1       7.137   3.836  12.540  0.00  0.00    +0.000 OA
ATOM      2  C   UNL     1       6.753   4.367  13.566  0.00  0.00    +0.000 A 
ATOM      3  N   UNL     1       7.515   5.162  14.435  0.00  0.00    +0.000 N 
ATOM      4  C   UNL     1       6.732   5.497  15.533  0.00  0.00    +0.000 A 
ATOM      5  C   UNL     1       7.065   6.151  16.686  0.00  0.00    +0.000 A 
ATOM      6  C   UNL     1       6.088   6.194  17.697  0.00  0.00    +0.000 A 
ATOM      7  C   UNL     1       4.762   5.685  17.527  0.00  0.00    +0.000 A 
ATOM      8  C   UNL     1       4.455   5.118  16.268  0.00  0.00    +0.000 A 
ATOM      9  C   UNL     1       5.461   4.977  15.331  0.00  0.00    +0.000 A 
ATOM     10  N   UNL     1       5.464   4.295  14.122  0.00  0.00    +0.000 N 
ATOM     11  H   UNL     1       8.494   5.357  14.301  0.00  0.00    +0.000 HD
ATOM     12  H   UNL     1       4.727   3.723  13.742  0.00  0.00    +0.000 HD
ENDROOT
BRANCH   7  13
ATOM     13  C   UNL     1       3.762   5.685  18.661  0.00  0.00    +0.000 A 
ATOM     14  C   UNL     1       2.890   6.803  18.879  0.00  0.00    +0.000 A 
ATOM     15 CL   UNL     1       2.760   8.165  17.800  0.00  0.00    +0.000 Cl
ATOM     16  C   UNL     1       1.977   6.850  19.941  0.00  0.00    +0.000 A 
ATOM     17  C   UNL     1       1.840   5.777  20.797  0.00  0.00    +0.000 A 
ATOM     18  C   UNL     1       2.624   4.652  20.582  0.00  0.00    +0.000 A 
ATOM     19  C   UNL     1       3.598   4.567  19.552  0.00  0.00    +0.000 A 
BRANCH  19  20
ATOM     20  C   UNL     1       4.300   3.216  19.443  0.00  0.00    +0.000 C 
ATOM     21  C   UNL     1       3.792   1.952  20.088  0.00  0.00    +0.000 C 
ATOM     22  C   UNL     1       3.668   2.120  18.606  0.00  0.00    +0.000 C 
ENDBRANCH  19  20
ENDBRANCH   7  13
TORSDOF 2
ENDMDL
MODEL 5
REMARK VINA RESULT:      -7.7      4.448      6.579
REMARK  Name = 
REMARK  2 active torsions:
REMARK  status: ('A' for Active; 'I' for Inactive)
REMARK    1  A    between atoms: C_7  and  C_8
REMARK    2  A    between atoms: C_14  and  C_15
REMARK                            x       y       z     vdW  Elec       q    Type
REMARK                         _______ _______ _______ _____ _____    ______ ____
ROOT
ATOM      1  O   UNL     1      -0.321   8.845  22.134  0.00  0.00    +0.000 OA
ATOM      2  C   UNL     1       0.476   8.608  21.244  0.00  0.00    +0.000 A 
ATOM      3  N   UNL     1       0.659   9.344  20.064  0.00  0.00    +0.000 N 
ATOM      4  C   UNL     1       1.597   8.691  19.274  0.00  0.00    +0.000 A 
ATOM      5  C   UNL     1       2.013   8.958  17.999  0.00  0.00    +0.000 A 
ATOM      6  C   UNL     1       2.860   8.009  17.396  0.00  0.00    +0.000 A 
ATOM      7  C   UNL     1       3.369   6.863  18.085  0.00  0.00    +0.000 A 
ATOM      8  C   UNL     1       2.982   6.711  19.437  0.00  0.00    +0.000 A 
ATOM      9  C   UNL     1       2.056   7.584  19.974  0.00  0.00    +0.000 A 
ATOM     10  N   UNL     1       1.383   7.535  21.187  0.00  0.00    +0.000 N 
ATOM     11  H   UNL     1       0.114  10.155  19.821  0.00  0.00    +0.000 HD
ATOM     12  H   UNL     1       1.416   6.800  21.874  0.00  0.00    +0.000 HD
ENDROOT
BRANCH   7  13
ATOM     13  C   UNL     1       4.219   5.829  17.382  0.00  0.00    +0.000 A 
ATOM     14  C   UNL     1       5.557   6.132  16.962  0.00  0.00    +0.000 A 
ATOM     15 CL   UNL     1       6.394   7.609  17.356  0.00  0.00    +0.000 Cl
ATOM     16  C   UNL     1       6.358   5.209  16.278  0.00  0.00    +0.000 A 
ATOM     17  C   UNL     1       5.901   3.931  16.029  0.00  0.00    +0.000 A 
ATOM     18  C   UNL     1       4.633   3.581  16.474  0.00  0.00    +0.000 A 
ATOM     19  C   UNL     1       3.761   4.489  17.129  0.00  0.00    +0.000 A 
BRANCH  19  20
ATOM     20  C   UNL     1       2.441   3.884  17.600  0.00  0.00    +0.000 C 
ATOM     21  C   UNL     1       2.212   2.404  17.773  0.00  0.00    +0.000 C 
ATOM     22  C   UNL     1       2.361   3.270  18.985  0.00  0.00    +0.000 C 
ENDBRANCH  19  20
ENDBRANCH   7  13
TORSDOF 2
ENDMDL
MODEL 6
REMARK VINA RESULT:      -7.3      4.471      6.294
REMARK  Name = 
REMARK  2 active torsions:
REMARK  status: ('A' for Active; 'I' for Inactive)
REMARK    1  A    between atoms: C_7  and  C_8
REMARK    2  A    between atoms: C_14  and  C_15
REMARK                            x       y       z     vdW  Elec       q    Type
REMARK                         _______ _______ _______ _____ _____    ______ ____
ROOT
ATOM      1  O   UNL     1       0.275  10.656  22.172  0.00  0.00    +0.000 OA
ATOM      2  C   UNL     1       0.794   9.909  21.362  0.00  0.00    +0.000 A 
ATOM      3  N   UNL     1       0.924  10.128  19.982  0.00  0.00    +0.000 N 
ATOM      4  C   UNL     1       1.490   8.998  19.405  0.00  0.00    +0.000 A 
ATOM      5  C   UNL     1       1.702   8.695  18.088  0.00  0.00    +0.000 A 
ATOM      6  C   UNL     1       2.143   7.389  17.801  0.00  0.00    +0.000 A 
ATOM      7  C   UNL     1       2.468   6.432  18.813  0.00  0.00    +0.000 A 
ATOM      8  C   UNL     1       2.328   6.854  20.156  0.00  0.00    +0.000 A 
ATOM      9  C   UNL     1       1.780   8.095  20.417  0.00  0.00    +0.000 A 
ATOM     10  N   UNL     1       1.368   8.652  21.620  0.00  0.00    +0.000 N 
ATOM     11  H   UNL     1       0.568  10.943  19.510  0.00  0.00    +0.000 HD
ATOM     12  H   UNL     1       1.346   8.207  22.523  0.00  0.00    +0.000 HD
ENDROOT
BRANCH   7  13
ATOM     13  C   UNL     1       2.871   5.017  18.464  0.00  0.00    +0.000 A 
ATOM     14  C   UNL     1       2.202   3.891  19.051  0.00  0.00    +0.000 A 
ATOM     15 CL   UNL     1       0.785   4.013  20.058  0.00  0.00    +0.000 Cl
ATOM     16  C   UNL     1       2.572   2.569  18.775  0.00  0.00    +0.000 A 
ATOM     17  C   UNL     1       3.575   2.294  17.868  0.00  0.00    +0.000 A 
ATOM     18  C   UNL     1       4.206   3.357  17.235  0.00  0.00    +0.000 A 
ATOM     19  C   UNL     1       3.904   4.716  17.509  0.00  0.00    +0.000 A 
BRANCH  19  20
ATOM     20  C   UNL     1       4.661   5.727  16.651  0.00  0.00    +0.000 C 
ATOM     21  C   UNL     1       5.664   6.709  17.201  0.00  0.00    +0.000 C 
ATOM     22  C   UNL     1       6.146   5.531  16.414  0.00  0.00    +0.000 C 
ENDBRANCH  19  20
ENDBRANCH   7  13
TORSDOF 2
ENDMDL
MODEL 7
REMARK VINA RESULT:      -7.2      4.507      6.358
REMARK  Name = 
REMARK  2 active torsions:
REMARK  status: ('A' for Active; 'I' for Inactive)
REMARK    1  A    between atoms: C_7  and  C_8
REMARK    2  A    between atoms: C_14  and  C_15
REMARK                            x       y       z     vdW  Elec       q    Type
REMARK                         _______ _______ _______ _____ _____    ______ ____
ROOT
ATOM      1  O   UNL     1      -0.753  11.289  20.850  0.00  0.00    +0.000 OA
ATOM      2  C   UNL     1       0.015  10.466  20.386  0.00  0.00    +0.000 A 
ATOM      3  N   UNL     1       0.440  10.375  19.052  0.00  0.00    +0.000 N 
ATOM      4  C   UNL     1       1.238   9.246  18.916  0.00  0.00    +0.000 A 
ATOM      5  C   UNL     1       1.781   8.681  17.796  0.00  0.00    +0.000 A 
ATOM      6  C   UNL     1       2.410   7.432  17.956  0.00  0.00    +0.000 A 
ATOM      7  C   UNL     1       2.587   6.801  19.228  0.00  0.00    +0.000 A 
ATOM      8  C   UNL     1       2.095   7.497  20.356  0.00  0.00    +0.000 A 
ATOM      9  C   UNL     1       1.376   8.661  20.168  0.00  0.00    +0.000 A 
ATOM     10  N   UNL     1       0.640   9.412  21.074  0.00  0.00    +0.000 N 
ATOM     11  H   UNL     1       0.121  10.989  18.321  0.00  0.00    +0.000 HD
ATOM     12  H   UNL     1       0.454   9.192  22.039  0.00  0.00    +0.000 HD
ENDROOT
BRANCH   7  13
ATOM     13  C   UNL     1       3.204   5.426  19.350  0.00  0.00    +0.000 A 
ATOM     14  C   UNL     1       2.463   4.329  19.902  0.00  0.00    +0.000 A 
ATOM     15 CL   UNL     1       0.771   4.402  20.315  0.00  0.00    +0.000 Cl
ATOM     16  C   UNL     1       3.015   3.051  20.061  0.00  0.00    +0.000 A 
ATOM     17  C   UNL     1       4.299   2.783  19.632  0.00  0.00    +0.000 A 
ATOM     18  C   UNL     1       5.027   3.805  19.038  0.00  0.00    +0.000 A 
ATOM     19  C   UNL     1       4.535   5.128  18.893  0.00  0.00    +0.000 A 
BRANCH  19  20
ATOM     20  C   UNL     1       5.467   6.081  18.148  0.00  0.00    +0.000 C 
ATOM     21  C   UNL     1       6.703   5.637  17.408  0.00  0.00    +0.000 C 
ATOM     22  C   UNL     1       5.493   6.054  16.631  0.00  0.00    +0.000 C 
ENDBRANCH  19  20
ENDBRANCH   7  13
TORSDOF 2
ENDMDL
MODEL 8
REMARK VINA RESULT:      -7.2      4.170      6.367
REMARK  Name = 
REMARK  2 active torsions:
REMARK  status: ('A' for Active; 'I' for Inactive)
REMARK    1  A    between atoms: C_7  and  C_8
REMARK    2  A    between atoms: C_14  and  C_15
REMARK                            x       y       z     vdW  Elec       q    Type
REMARK                         _______ _______ _______ _____ _____    ______ ____
ROOT
ATOM      1  O   UNL     1       0.486  11.424  19.444  0.00  0.00    +0.000 OA
ATOM      2  C   UNL     1       0.971  10.320  19.276  0.00  0.00    +0.000 A 
ATOM      3  N   UNL     1       1.039   9.282  20.218  0.00  0.00    +0.000 N 
ATOM      4  C   UNL     1       1.748   8.224  19.663  0.00  0.00    +0.000 A 
ATOM      5  C   UNL     1       2.171   7.054  20.229  0.00  0.00    +0.000 A 
ATOM      6  C   UNL     1       3.023   6.245  19.454  0.00  0.00    +0.000 A 
ATOM      7  C   UNL     1       3.368   6.544  18.098  0.00  0.00    +0.000 A 
ATOM      8  C   UNL     1       2.805   7.717  17.544  0.00  0.00    +0.000 A 
ATOM      9  C   UNL     1       2.070   8.559  18.355  0.00  0.00    +0.000 A 
ATOM     10  N   UNL     1       1.585   9.837  18.108  0.00  0.00    +0.000 N 
ATOM     11  H   UNL     1       0.702   9.363  21.164  0.00  0.00    +0.000 HD
ATOM     12  H   UNL     1       1.744  10.402  17.290  0.00  0.00    +0.000 HD
ENDROOT
BRANCH   7  13
ATOM     13  C   UNL     1       4.343   5.688  17.322  0.00  0.00    +0.000 A 
ATOM     14  C   UNL     1       5.621   6.202  16.920  0.00  0.00    +0.000 A 
ATOM     15 CL   UNL     1       6.250   7.751  17.411  0.00  0.00    +0.000 Cl
ATOM     16  C   UNL     1       6.533   5.447  16.171  0.00  0.00    +0.000 A 
ATOM     17  C   UNL     1       6.254   4.138  15.836  0.00  0.00    +0.000 A 
ATOM     18  C   UNL     1       5.053   3.586  16.260  0.00  0.00    +0.000 A 
ATOM     19  C   UNL     1       4.072   4.318  16.980  0.00  0.00    +0.000 A 
BRANCH  19  20
ATOM     20  C   UNL     1       2.854   3.504  17.412  0.00  0.00    +0.000 C 
ATOM     21  C   UNL     1       2.872   2.010  17.612  0.00  0.00    +0.000 C 
ATOM     22  C   UNL     1       2.820   2.909  18.808  0.00  0.00    +0.000 C 
ENDBRANCH  19  20
ENDBRANCH   7  13
TORSDOF 2
ENDMDL
MODEL 9
REMARK VINA RESULT:      -7.1      1.202      1.463
REMARK  Name = 
REMARK  2 active torsions:
REMARK  status: ('A' for Active; 'I' for Inactive)
REMARK    1  A    between atoms: C_7  and  C_8
REMARK    2  A    between atoms: C_14  and  C_15
REMARK                            x       y       z     vdW  Elec       q    Type
REMARK                         _______ _______ _______ _____ _____    ______ ____
ROOT
ATOM      1  O   UNL     1       7.218   3.852  12.760  0.00  0.00    +0.000 OA
ATOM      2  C   UNL     1       6.792   4.338  13.792  0.00  0.00    +0.000 A 
ATOM      3  N   UNL     1       7.519   5.090  14.727  0.00  0.00    +0.000 N 
ATOM      4  C   UNL     1       6.691   5.378  15.805  0.00  0.00    +0.000 A 
ATOM      5  C   UNL     1       6.977   5.978  17.000  0.00  0.00    +0.000 A 
ATOM      6  C   UNL     1       5.958   5.979  17.970  0.00  0.00    +0.000 A 
ATOM      7  C   UNL     1       4.639   5.483  17.721  0.00  0.00    +0.000 A 
ATOM      8  C   UNL     1       4.385   4.976  16.426  0.00  0.00    +0.000 A 
ATOM      9  C   UNL     1       5.428   4.872  15.527  0.00  0.00    +0.000 A 
ATOM     10  N   UNL     1       5.481   4.246  14.289  0.00  0.00    +0.000 N 
ATOM     11  H   UNL     1       8.503   5.287  14.643  0.00  0.00    +0.000 HD
ATOM     12  H   UNL     1       4.760   3.694  13.853  0.00  0.00    +0.000 HD
ENDROOT
BRANCH   7  13
ATOM     13  C   UNL     1       3.592   5.436  18.812  0.00  0.00    +0.000 A 
ATOM     14  C   UNL     1       3.491   4.308  19.692  0.00  0.00    +0.000 A 
ATOM     15 CL   UNL     1       4.629   2.989  19.725  0.00  0.00    +0.000 Cl
ATOM     16  C   UNL     1       2.511   4.218  20.689  0.00  0.00    +0.000 A 
ATOM     17  C   UNL     1       1.628   5.256  20.903  0.00  0.00    +0.000 A 
ATOM     18  C   UNL     1       1.734   6.391  20.110  0.00  0.00    +0.000 A 
ATOM     19  C   UNL     1       2.675   6.518  19.055  0.00  0.00    +0.000 A 
BRANCH  19  20
ATOM     20  C   UNL     1       2.674   7.874  18.354  0.00  0.00    +0.000 C 
ATOM     21  C   UNL     1       1.446   8.502  17.745  0.00  0.00    +0.000 C 
ATOM     22  C   UNL     1       1.994   9.053  19.025  0.00  0.00    +0.000 C 
ENDBRANCH  19  20
ENDBRANCH   7  13
TORSDOF 2
ENDMDL
