MODEL 1
REMARK VINA RESULT:      -9.5      0.000      0.000
REMARK  Name = 
REMARK  3 active torsions:
REMARK  status: ('A' for Active; 'I' for Inactive)
REMARK    1  A    between atoms: C_8  and  N_9
REMARK    2  A    between atoms: N_9  and  C_10
REMARK    3  A    between atoms: C_10  and  C_11
REMARK                            x       y       z     vdW  Elec       q    Type
REMARK                         _______ _______ _______ _____ _____    ______ ____
ROOT
ATOM      1  N   UNL     1       8.660   9.454  17.940  0.00  0.00    +0.000 N 
ATOM      2  C   UNL     1       8.075   8.204  17.963  0.00  0.00    +0.000 A 
ATOM      3  N   UNL     1       8.428   7.384  18.951  0.00  0.00    +0.000 NA
ATOM      4  C   UNL     1       7.821   6.190  18.985  0.00  0.00    +0.000 A 
ATOM      5  N   UNL     1       8.179   5.370  20.062  0.00  0.00    +0.000 N 
ATOM      6  C   UNL     1       6.863   5.792  18.047  0.00  0.00    +0.000 A 
ATOM      7  C   UNL     1       6.163   4.565  18.077  0.00  0.00    +0.000 A 
ATOM      8  C   UNL     1       5.236   4.213  17.092  0.00  0.00    +0.000 A 
ATOM      9  C   UNL     1       5.006   5.129  16.073  0.00  0.00    +0.000 A 
ATOM     10  C   UNL     1       5.689   6.361  16.054  0.00  0.00    +0.000 A 
ATOM     11  C   UNL     1       6.612   6.714  17.032  0.00  0.00    +0.000 A 
ATOM     12  N   UNL     1       7.219   7.906  16.981  0.00  0.00    +0.000 NA
ATOM     13  H   UNL     1       9.540   9.441  18.434  0.00  0.00    +0.000 HD
ATOM     14  H   UNL     1       8.641   9.838  17.007  0.00  0.00    +0.000 HD
ATOM     15  H   UNL     1       8.919   5.843  20.571  0.00  0.00    +0.000 HD
ATOM     16  H   UNL     1       8.458   4.445  19.755  0.00  0.00    +0.000 HD
ENDROOT
BRANCH   8  17
ATOM     17  N   UNL     1       4.587   2.996  17.238  0.00  0.00    +0.000 N 
ATOM     18  H   UNL     1       5.094   2.374  17.864  0.00  0.00    +0.000 HD
BRANCH  17  19
ATOM     19  C   UNL     1       3.144   2.879  17.407  0.00  0.00    +0.000 C 
BRANCH  19  20
ATOM     20  C   UNL     1       2.779   3.379  18.799  0.00  0.00    +0.000 A 
ATOM     21  C   UNL     1       2.659   2.395  19.806  0.00  0.00    +0.000 A 
ATOM     22  C   UNL     1       2.282   2.722  21.102  0.00  0.00    +0.000 A 
ATOM     23  C   UNL     1       1.994   4.043  21.419  0.00  0.00    +0.000 A 
ATOM     24  C   UNL     1       2.098   5.054  20.452  0.00  0.00    +0.000 A 
ATOM     25  C   UNL     1       1.788   6.375  20.816  0.00  0.00    +0.000 A 
ATOM     26  C   UNL     1       1.887   7.413  19.894  0.00  0.00    +0.000 A 
ATOM     27  C   UNL     1       2.313   7.141  18.601  0.00  0.00    +0.000 A 
ATOM     28  C   UNL     1       2.621   5.828  18.222  0.00  0.00    +0.000 A 
ATOM     29  C   UNL     1       2.508   4.742  19.125  0.00  0.00    +0.000 A 
ENDBRANCH  19  20
ENDBRANCH  17  19
ENDBRANCH   8  17
TORSDOF 3
ENDMDL
MODEL 2
REMARK VINA RESULT:      -8.7      2.563      4.674
REMARK  Name = 
REMARK  3 active torsions:
REMARK  status: ('A' for Active; 'I' for Inactive)
REMARK    1  A    between atoms: C_8  and  N_9
REMARK    2  A    between atoms: N_9  and  C_10
REMARK    3  A    between atoms: C_10  and  C_11
REMARK                            x       y       z     vdW  Elec       q    Type
REMARK                         _______ _______ _______ _____ _____    ______ ____
ROOT
ATOM      1  N   UNL     1       6.876   3.743  13.315  0.00  0.00    +0.000 N 
ATOM      2  C   UNL     1       6.487   4.273  14.528  0.00  0.00    +0.000 A 
ATOM      3  N   UNL     1       7.240   5.246  15.039  0.00  0.00    +0.000 NA
ATOM      4  C   UNL     1       6.827   5.780  16.196  0.00  0.00    +0.000 A 
ATOM      5  N   UNL     1       7.614   6.832  16.682  0.00  0.00    +0.000 N 
ATOM      6  C   UNL     1       5.670   5.362  16.861  0.00  0.00    +0.000 A 
ATOM      7  C   UNL     1       5.173   5.933  18.055  0.00  0.00    +0.000 A 
ATOM      8  C   UNL     1       4.024   5.449  18.688  0.00  0.00    +0.000 A 
ATOM      9  C   UNL     1       3.364   4.383  18.090  0.00  0.00    +0.000 A 
ATOM     10  C   UNL     1       3.849   3.827  16.890  0.00  0.00    +0.000 A 
ATOM     11  C   UNL     1       4.991   4.304  16.258  0.00  0.00    +0.000 A 
ATOM     12  N   UNL     1       5.399   3.755  15.107  0.00  0.00    +0.000 NA
ATOM     13  H   UNL     1       7.864   3.888  13.167  0.00  0.00    +0.000 HD
ATOM     14  H   UNL     1       6.507   2.812  13.200  0.00  0.00    +0.000 HD
ATOM     15  H   UNL     1       8.417   6.919  16.066  0.00  0.00    +0.000 HD
ATOM     16  H   UNL     1       7.887   6.684  17.647  0.00  0.00    +0.000 HD
ENDROOT
BRANCH   8  17
ATOM     17  N   UNL     1       3.610   6.105  19.838  0.00  0.00    +0.000 N 
ATOM     18  H   UNL     1       4.171   6.937  20.016  0.00  0.00    +0.000 HD
BRANCH  17  19
ATOM     19  C   UNL     1       2.208   6.313  20.175  0.00  0.00    +0.000 C 
BRANCH  19  20
ATOM     20  C   UNL     1       1.798   7.701  19.701  0.00  0.00    +0.000 A 
ATOM     21  C   UNL     1       2.188   8.056  18.390  0.00  0.00    +0.000 A 
ATOM     22  C   UNL     1       1.916   9.312  17.865  0.00  0.00    +0.000 A 
ATOM     23  C   UNL     1       1.263  10.255  18.647  0.00  0.00    +0.000 A 
ATOM     24  C   UNL     1       0.857   9.949  19.954  0.00  0.00    +0.000 A 
ATOM     25  C   UNL     1       0.207  10.937  20.712  0.00  0.00    +0.000 A 
ATOM     26  C   UNL     1      -0.224  10.676  22.010  0.00  0.00    +0.000 A 
ATOM     27  C   UNL     1      -0.022   9.417  22.557  0.00  0.00    +0.000 A 
ATOM     28  C   UNL     1       0.629   8.422  21.815  0.00  0.00    +0.000 A 
ATOM     29  C   UNL     1       1.104   8.658  20.502  0.00  0.00    +0.000 A 
ENDBRANCH  19  20
ENDBRANCH  17  19
ENDBRANCH   8  17
TORSDOF 3
ENDMDL
MODEL 3
REMARK VINA RESULT:      -8.4      2.333      3.387
REMARK  Name = 
REMARK  3 active torsions:
REMARK  status: ('A' for Active; 'I' for Inactive)
REMARK    1  A    between atoms: C_8  and  N_9
REMARK    2  A    between atoms: N_9  and  C_10
REMARK    3  A    between atoms: C_10  and  C_11
REMARK                            x       y       z     vdW  Elec       q    Type
REMARK                         _______ _______ _______ _____ _____    ______ ____
ROOT
ATOM      1  N   UNL     1       8.983   6.125  12.803  0.00  0.00    +0.000 N 
ATOM      2  C   UNL     1       7.995   5.400  13.437  0.00  0.00    +0.000 A 
ATOM      3  N   UNL     1       7.291   4.548  12.693  0.00  0.00    +0.000 NA
ATOM      4  C   UNL     1       6.365   3.820  13.330  0.00  0.00    +0.000 A 
ATOM      5  N   UNL     1       5.675   2.900  12.531  0.00  0.00    +0.000 N 
ATOM      6  C   UNL     1       6.121   3.924  14.703  0.00  0.00    +0.000 A 
ATOM      7  C   UNL     1       5.190   3.140  15.421  0.00  0.00    +0.000 A 
ATOM      8  C   UNL     1       4.971   3.313  16.791  0.00  0.00    +0.000 A 
ATOM      9  C   UNL     1       5.721   4.285  17.441  0.00  0.00    +0.000 A 
ATOM     10  C   UNL     1       6.663   5.053  16.730  0.00  0.00    +0.000 A 
ATOM     11  C   UNL     1       6.883   4.884  15.368  0.00  0.00    +0.000 A 
ATOM     12  N   UNL     1       7.806   5.625  14.740  0.00  0.00    +0.000 NA
ATOM     13  H   UNL     1       8.789   6.197  11.815  0.00  0.00    +0.000 HD
ATOM     14  H   UNL     1       9.185   6.971  13.313  0.00  0.00    +0.000 HD
ATOM     15  H   UNL     1       5.982   3.042  11.572  0.00  0.00    +0.000 HD
ATOM     16  H   UNL     1       4.671   2.994  12.628  0.00  0.00    +0.000 HD
ENDROOT
BRANCH   8  17
ATOM     17  N   UNL     1       4.055   2.467  17.399  0.00  0.00    +0.000 N 
ATOM     18  H   UNL     1       4.403   2.117  18.290  0.00  0.00    +0.000 HD
BRANCH  17  19
ATOM     19  C   UNL     1       2.625   2.743  17.445  0.00  0.00    +0.000 C 
BRANCH  19  20
ATOM     20  C   UNL     1       2.296   3.369  18.794  0.00  0.00    +0.000 A 
ATOM     21  C   UNL     1       1.964   2.473  19.835  0.00  0.00    +0.000 A 
ATOM     22  C   UNL     1       1.597   2.927  21.096  0.00  0.00    +0.000 A 
ATOM     23  C   UNL     1       1.533   4.292  21.341  0.00  0.00    +0.000 A 
ATOM     24  C   UNL     1       1.852   5.218  20.338  0.00  0.00    +0.000 A 
ATOM     25  C   UNL     1       1.764   6.590  20.628  0.00  0.00    +0.000 A 
ATOM     26  C   UNL     1       2.082   7.547  19.669  0.00  0.00    +0.000 A 
ATOM     27  C   UNL     1       2.507   7.140  18.412  0.00  0.00    +0.000 A 
ATOM     28  C   UNL     1       2.595   5.775  18.105  0.00  0.00    +0.000 A 
ATOM     29  C   UNL     1       2.256   4.773  19.047  0.00  0.00    +0.000 A 
ENDBRANCH  19  20
ENDBRANCH  17  19
ENDBRANCH   8  17
TORSDOF 3
ENDMDL
MODEL 4
REMARK VINA RESULT:      -8.3      3.548      6.595
REMARK  Name = 
REMARK  3 active torsions:
REMARK  status: ('A' for Active; 'I' for Inactive)
REMARK    1  A    between atoms: C_8  and  N_9
REMARK    2  A    between atoms: N_9  and  C_10
REMARK    3  A    between atoms: C_10  and  C_11
REMARK                            x       y       z     vdW  Elec       q    Type
REMARK                         _______ _______ _______ _____ _____    ______ ____
ROOT
ATOM      1  N   UNL     1       4.058   0.664  18.355  0.00  0.00    +0.000 N 
ATOM      2  C   UNL     1       3.511   1.922  18.499  0.00  0.00    +0.000 A 
ATOM      3  N   UNL     1       2.405   2.025  19.236  0.00  0.00    +0.000 NA
ATOM      4  C   UNL     1       1.909   3.258  19.402  0.00  0.00    +0.000 A 
ATOM      5  N   UNL     1       0.776   3.339  20.221  0.00  0.00    +0.000 N 
ATOM      6  C   UNL     1       2.494   4.400  18.846  0.00  0.00    +0.000 A 
ATOM      7  C   UNL     1       2.032   5.722  19.039  0.00  0.00    +0.000 A 
ATOM      8  C   UNL     1       2.644   6.820  18.429  0.00  0.00    +0.000 A 
ATOM      9  C   UNL     1       3.751   6.572  17.626  0.00  0.00    +0.000 A 
ATOM     10  C   UNL     1       4.223   5.258  17.449  0.00  0.00    +0.000 A 
ATOM     11  C   UNL     1       3.616   4.163  18.053  0.00  0.00    +0.000 A 
ATOM     12  N   UNL     1       4.117   2.933  17.871  0.00  0.00    +0.000 NA
ATOM     13  H   UNL     1       3.355  -0.047  18.499  0.00  0.00    +0.000 HD
ATOM     14  H   UNL     1       4.621   0.615  17.519  0.00  0.00    +0.000 HD
ATOM     15  H   UNL     1       0.508   2.389  20.462  0.00  0.00    +0.000 HD
ATOM     16  H   UNL     1       0.021   3.846  19.772  0.00  0.00    +0.000 HD
ENDROOT
BRANCH   8  17
ATOM     17  N   UNL     1       2.125   8.075  18.714  0.00  0.00    +0.000 N 
ATOM     18  H   UNL     1       1.484   8.388  17.986  0.00  0.00    +0.000 HD
BRANCH  17  19
ATOM     19  C   UNL     1       1.672   8.466  20.042  0.00  0.00    +0.000 C 
BRANCH  19  20
ATOM     20  C   UNL     1       0.711   9.638  19.900  0.00  0.00    +0.000 A 
ATOM     21  C   UNL     1       0.638  10.236  18.621  0.00  0.00    +0.000 A 
ATOM     22  C   UNL     1      -0.165  11.344  18.380  0.00  0.00    +0.000 A 
ATOM     23  C   UNL     1      -0.900  11.896  19.420  0.00  0.00    +0.000 A 
ATOM     24  C   UNL     1      -0.859  11.338  20.706  0.00  0.00    +0.000 A 
ATOM     25  C   UNL     1      -1.612  11.936  21.730  0.00  0.00    +0.000 A 
ATOM     26  C   UNL     1      -1.612  11.411  23.019  0.00  0.00    +0.000 A 
ATOM     27  C   UNL     1      -0.868  10.272  23.293  0.00  0.00    +0.000 A 
ATOM     28  C   UNL     1      -0.107   9.667  22.284  0.00  0.00    +0.000 A 
ATOM     29  C   UNL     1      -0.062  10.187  20.967  0.00  0.00    +0.000 A 
ENDBRANCH  19  20
ENDBRANCH  17  19
ENDBRANCH   8  17
TORSDOF 3
ENDMDL
MODEL 5
REMARK VINA RESULT:      -8.2      5.268      7.434
REMARK  Name = 
REMARK  3 active torsions:
REMARK  status: ('A' for Active; 'I' for Inactive)
REMARK    1  A    between atoms: C_8  and  N_9
REMARK    2  A    between atoms: N_9  and  C_10
REMARK    3  A    between atoms: C_10  and  C_11
REMARK                            x       y       z     vdW  Elec       q    Type
REMARK                         _______ _______ _______ _____ _____    ______ ____
ROOT
ATOM      1  N   UNL     1      -1.964  13.561  22.913  0.00  0.00    +0.000 N 
ATOM      2  C   UNL     1      -1.259  12.496  22.390  0.00  0.00    +0.000 A 
ATOM      3  N   UNL     1      -1.065  11.445  23.184  0.00  0.00    +0.000 NA
ATOM      4  C   UNL     1      -0.415  10.402  22.649  0.00  0.00    +0.000 A 
ATOM      5  N   UNL     1      -0.269   9.294  23.493  0.00  0.00    +0.000 N 
ATOM      6  C   UNL     1       0.049  10.384  21.330  0.00  0.00    +0.000 A 
ATOM      7  C   UNL     1       0.692   9.287  20.714  0.00  0.00    +0.000 A 
ATOM      8  C   UNL     1       1.162   9.343  19.398  0.00  0.00    +0.000 A 
ATOM      9  C   UNL     1       0.958  10.524  18.696  0.00  0.00    +0.000 A 
ATOM     10  C   UNL     1       0.300  11.611  19.304  0.00  0.00    +0.000 A 
ATOM     11  C   UNL     1      -0.167  11.559  20.612  0.00  0.00    +0.000 A 
ATOM     12  N   UNL     1      -0.806  12.612  21.138  0.00  0.00    +0.000 NA
ATOM     13  H   UNL     1      -1.906  13.563  23.921  0.00  0.00    +0.000 HD
ATOM     14  H   UNL     1      -1.740  14.412  22.420  0.00  0.00    +0.000 HD
ATOM     15  H   UNL     1      -0.634   9.557  24.405  0.00  0.00    +0.000 HD
ATOM     16  H   UNL     1       0.694   8.982  23.543  0.00  0.00    +0.000 HD
ENDROOT
BRANCH   8  17
ATOM     17  N   UNL     1       1.750   8.196  18.886  0.00  0.00    +0.000 N 
ATOM     18  H   UNL     1       2.283   8.395  18.041  0.00  0.00    +0.000 HD
BRANCH  17  19
ATOM     19  C   UNL     1       2.406   7.197  19.719  0.00  0.00    +0.000 C 
BRANCH  19  20
ATOM     20  C   UNL     1       2.897   6.068  18.824  0.00  0.00    +0.000 A 
ATOM     21  C   UNL     1       3.918   6.398  17.904  0.00  0.00    +0.000 A 
ATOM     22  C   UNL     1       4.413   5.466  17.000  0.00  0.00    +0.000 A 
ATOM     23  C   UNL     1       3.882   4.183  16.981  0.00  0.00    +0.000 A 
ATOM     24  C   UNL     1       2.868   3.810  17.875  0.00  0.00    +0.000 A 
ATOM     25  C   UNL     1       2.355   2.503  17.812  0.00  0.00    +0.000 A 
ATOM     26  C   UNL     1       1.356   2.084  18.686  0.00  0.00    +0.000 A 
ATOM     27  C   UNL     1       0.870   2.965  19.642  0.00  0.00    +0.000 A 
ATOM     28  C   UNL     1       1.367   4.273  19.713  0.00  0.00    +0.000 A 
ATOM     29  C   UNL     1       2.366   4.743  18.825  0.00  0.00    +0.000 A 
ENDBRANCH  19  20
ENDBRANCH  17  19
ENDBRANCH   8  17
TORSDOF 3
ENDMDL
MODEL 6
REMARK VINA RESULT:      -8.2      4.530      6.609
REMARK  Name = 
REMARK  3 active torsions:
REMARK  status: ('A' for Active; 'I' for Inactive)
REMARK    1  A    between atoms: C_8  and  N_9
REMARK    2  A    between atoms: N_9  and  C_10
REMARK    3  A    between atoms: C_10  and  C_11
REMARK                            x       y       z     vdW  Elec       q    Type
REMARK                         _______ _______ _______ _____ _____    ______ ____
ROOT
ATOM      1  N   UNL     1      -1.751  11.587  23.082  0.00  0.00    +0.000 N 
ATOM      2  C   UNL     1      -0.847  10.910  22.289  0.00  0.00    +0.000 A 
ATOM      3  N   UNL     1       0.129  10.247  22.907  0.00  0.00    +0.000 NA
ATOM      4  C   UNL     1       0.975   9.561  22.127  0.00  0.00    +0.000 A 
ATOM      5  N   UNL     1       1.960   8.836  22.809  0.00  0.00    +0.000 N 
ATOM      6  C   UNL     1       0.869   9.522  20.733  0.00  0.00    +0.000 A 
ATOM      7  C   UNL     1       1.708   8.770  19.880  0.00  0.00    +0.000 A 
ATOM      8  C   UNL     1       1.569   8.796  18.489  0.00  0.00    +0.000 A 
ATOM      9  C   UNL     1       0.552   9.584  17.962  0.00  0.00    +0.000 A 
ATOM     10  C   UNL     1      -0.296  10.317  18.814  0.00  0.00    +0.000 A 
ATOM     11  C   UNL     1      -0.160  10.294  20.197  0.00  0.00    +0.000 A 
ATOM     12  N   UNL     1      -1.006  10.993  20.965  0.00  0.00    +0.000 NA
ATOM     13  H   UNL     1      -1.342  11.804  23.979  0.00  0.00    +0.000 HD
ATOM     14  H   UNL     1      -2.190  12.333  22.564  0.00  0.00    +0.000 HD
ATOM     15  H   UNL     1       1.871   9.059  23.796  0.00  0.00    +0.000 HD
ATOM     16  H   UNL     1       2.889   9.036  22.455  0.00  0.00    +0.000 HD
ENDROOT
BRANCH   8  17
ATOM     17  N   UNL     1       2.428   7.996  17.750  0.00  0.00    +0.000 N 
ATOM     18  H   UNL     1       2.619   8.398  16.834  0.00  0.00    +0.000 HD
BRANCH  17  19
ATOM     19  C   UNL     1       3.607   7.357  18.320  0.00  0.00    +0.000 C 
BRANCH  19  20
ATOM     20  C   UNL     1       3.530   5.862  18.040  0.00  0.00    +0.000 A 
ATOM     21  C   UNL     1       4.300   5.389  16.953  0.00  0.00    +0.000 A 
ATOM     22  C   UNL     1       4.273   4.054  16.569  0.00  0.00    +0.000 A 
ATOM     23  C   UNL     1       3.456   3.162  17.250  0.00  0.00    +0.000 A 
ATOM     24  C   UNL     1       2.673   3.586  18.334  0.00  0.00    +0.000 A 
ATOM     25  C   UNL     1       1.855   2.650  18.987  0.00  0.00    +0.000 A 
ATOM     26  C   UNL     1       1.069   3.022  20.074  0.00  0.00    +0.000 A 
ATOM     27  C   UNL     1       1.106   4.333  20.528  0.00  0.00    +0.000 A 
ATOM     28  C   UNL     1       1.913   5.279  19.884  0.00  0.00    +0.000 A 
ATOM     29  C   UNL     1       2.707   4.944  18.759  0.00  0.00    +0.000 A 
ENDBRANCH  19  20
ENDBRANCH  17  19
ENDBRANCH   8  17
TORSDOF 3
ENDMDL
MODEL 7
REMARK VINA RESULT:      -8.1      5.260      7.868
REMARK  Name = 
REMARK  3 active torsions:
REMARK  status: ('A' for Active; 'I' for Inactive)
REMARK    1  A    between atoms: C_8  and  N_9
REMARK    2  A    between atoms: N_9  and  C_10
REMARK    3  A    between atoms: C_10  and  C_11
REMARK                            x       y       z     vdW  Elec       q    Type
REMARK                         _______ _______ _______ _____ _____    ______ ____
ROOT
ATOM      1  N   UNL     1      -3.203  13.611  20.094  0.00  0.00    +0.000 N 
ATOM      2  C   UNL     1      -2.355  12.523  20.067  0.00  0.00    +0.000 A 
ATOM      3  N   UNL     1      -2.104  11.975  18.879  0.00  0.00    +0.000 NA
ATOM      4  C   UNL     1      -1.246  10.946  18.864  0.00  0.00    +0.000 A 
ATOM      5  N   UNL     1      -0.965  10.423  17.595  0.00  0.00    +0.000 N 
ATOM      6  C   UNL     1      -0.629  10.446  20.015  0.00  0.00    +0.000 A 
ATOM      7  C   UNL     1       0.318   9.398  20.034  0.00  0.00    +0.000 A 
ATOM      8  C   UNL     1       0.878   8.923  21.224  0.00  0.00    +0.000 A 
ATOM      9  C   UNL     1       0.480   9.534  22.407  0.00  0.00    +0.000 A 
ATOM     10  C   UNL     1      -0.449  10.592  22.386  0.00  0.00    +0.000 A 
ATOM     11  C   UNL     1      -1.008  11.066  21.205  0.00  0.00    +0.000 A 
ATOM     12  N   UNL     1      -1.872  12.089  21.235  0.00  0.00    +0.000 NA
ATOM     13  H   UNL     1      -3.808  13.608  19.286  0.00  0.00    +0.000 HD
ATOM     14  H   UNL     1      -3.625  13.711  21.005  0.00  0.00    +0.000 HD
ATOM     15  H   UNL     1      -1.562  10.906  16.929  0.00  0.00    +0.000 HD
ATOM     16  H   UNL     1      -1.093   9.418  17.564  0.00  0.00    +0.000 HD
ENDROOT
BRANCH   8  17
ATOM     17  N   UNL     1       1.821   7.911  21.122  0.00  0.00    +0.000 N 
ATOM     18  H   UNL     1       2.546   8.002  21.832  0.00  0.00    +0.000 HD
BRANCH  17  19
ATOM     19  C   UNL     1       1.470   6.517  20.880  0.00  0.00    +0.000 C 
BRANCH  19  20
ATOM     20  C   UNL     1       2.264   6.020  19.680  0.00  0.00    +0.000 A 
ATOM     21  C   UNL     1       3.073   6.976  19.025  0.00  0.00    +0.000 A 
ATOM     22  C   UNL     1       3.804   6.655  17.889  0.00  0.00    +0.000 A 
ATOM     23  C   UNL     1       3.727   5.371  17.365  0.00  0.00    +0.000 A 
ATOM     24  C   UNL     1       2.937   4.389  17.980  0.00  0.00    +0.000 A 
ATOM     25  C   UNL     1       2.883   3.106  17.410  0.00  0.00    +0.000 A 
ATOM     26  C   UNL     1       2.121   2.097  17.990  0.00  0.00    +0.000 A 
ATOM     27  C   UNL     1       1.417   2.357  19.158  0.00  0.00    +0.000 A 
ATOM     28  C   UNL     1       1.457   3.632  19.736  0.00  0.00    +0.000 A 
ATOM     29  C   UNL     1       2.201   4.692  19.160  0.00  0.00    +0.000 A 
ENDBRANCH  19  20
ENDBRANCH  17  19
ENDBRANCH   8  17
TORSDOF 3
ENDMDL
MODEL 8
REMARK VINA RESULT:      -8.1      3.239      6.060
REMARK  Name = 
REMARK  3 active torsions:
REMARK  status: ('A' for Active; 'I' for Inactive)
REMARK    1  A    between atoms: C_8  and  N_9
REMARK    2  A    between atoms: N_9  and  C_10
REMARK    3  A    between atoms: C_10  and  C_11
REMARK                            x       y       z     vdW  Elec       q    Type
REMARK                         _______ _______ _______ _____ _____    ______ ____
ROOT
ATOM      1  N   UNL     1       5.203   1.473  20.479  0.00  0.00    +0.000 N 
ATOM      2  C   UNL     1       4.400   2.511  20.052  0.00  0.00    +0.000 A 
ATOM      3  N   UNL     1       3.124   2.490  20.433  0.00  0.00    +0.000 NA
ATOM      4  C   UNL     1       2.366   3.525  20.046  0.00  0.00    +0.000 A 
ATOM      5  N   UNL     1       1.043   3.499  20.503  0.00  0.00    +0.000 N 
ATOM      6  C   UNL     1       2.856   4.588  19.281  0.00  0.00    +0.000 A 
ATOM      7  C   UNL     1       2.104   5.721  18.896  0.00  0.00    +0.000 A 
ATOM      8  C   UNL     1       2.644   6.738  18.103  0.00  0.00    +0.000 A 
ATOM      9  C   UNL     1       3.971   6.608  17.711  0.00  0.00    +0.000 A 
ATOM     10  C   UNL     1       4.726   5.488  18.111  0.00  0.00    +0.000 A 
ATOM     11  C   UNL     1       4.192   4.475  18.899  0.00  0.00    +0.000 A 
ATOM     12  N   UNL     1       4.958   3.441  19.271  0.00  0.00    +0.000 NA
ATOM     13  H   UNL     1       4.646   0.659  20.693  0.00  0.00    +0.000 HD
ATOM     14  H   UNL     1       5.996   1.361  19.864  0.00  0.00    +0.000 HD
ATOM     15  H   UNL     1       0.907   2.617  20.989  0.00  0.00    +0.000 HD
ATOM     16  H   UNL     1       0.380   3.624  19.747  0.00  0.00    +0.000 HD
ENDROOT
BRANCH   8  17
ATOM     17  N   UNL     1       1.824   7.818  17.811  0.00  0.00    +0.000 N 
ATOM     18  H   UNL     1       0.843   7.598  17.974  0.00  0.00    +0.000 HD
BRANCH  17  19
ATOM     19  C   UNL     1       2.144   9.187  18.196  0.00  0.00    +0.000 C 
BRANCH  19  20
ATOM     20  C   UNL     1       0.927   9.793  18.881  0.00  0.00    +0.000 A 
ATOM     21  C   UNL     1       0.038  10.516  18.054  0.00  0.00    +0.000 A 
ATOM     22  C   UNL     1      -1.080  11.157  18.572  0.00  0.00    +0.000 A 
ATOM     23  C   UNL     1      -1.326  11.108  19.938  0.00  0.00    +0.000 A 
ATOM     24  C   UNL     1      -0.471  10.404  20.798  0.00  0.00    +0.000 A 
ATOM     25  C   UNL     1      -0.754  10.390  22.174  0.00  0.00    +0.000 A 
ATOM     26  C   UNL     1       0.060   9.696  23.065  0.00  0.00    +0.000 A 
ATOM     27  C   UNL     1       1.157   8.995  22.585  0.00  0.00    +0.000 A 
ATOM     28  C   UNL     1       1.456   9.004  21.216  0.00  0.00    +0.000 A 
ATOM     29  C   UNL     1       0.666   9.719  20.283  0.00  0.00    +0.000 A 
ENDBRANCH  19  20
ENDBRANCH  17  19
ENDBRANCH   8  17
TORSDOF 3
ENDMDL
MODEL 9
REMARK VINA RESULT:      -8.1      4.711      7.065
REMARK  Name = 
REMARK  3 active torsions:
REMARK  status: ('A' for Active; 'I' for Inactive)
REMARK    1  A    between atoms: C_8  and  N_9
REMARK    2  A    between atoms: N_9  and  C_10
REMARK    3  A    between atoms: C_10  and  C_11
REMARK                            x       y       z     vdW  Elec       q    Type
REMARK                         _______ _______ _______ _____ _____    ______ ____
ROOT
ATOM      1  N   UNL     1      -1.886  11.562  23.377  0.00  0.00    +0.000 N 
ATOM      2  C   UNL     1      -1.020  10.957  22.489  0.00  0.00    +0.000 A 
ATOM      3  N   UNL     1       0.008  10.284  23.004  0.00  0.00    +0.000 NA
ATOM      4  C   UNL     1       0.816   9.666  22.132  0.00  0.00    +0.000 A 
ATOM      5  N   UNL     1       1.858   8.928  22.706  0.00  0.00    +0.000 N 
ATOM      6  C   UNL     1       0.622   9.706  20.748  0.00  0.00    +0.000 A 
ATOM      7  C   UNL     1       1.420   9.027  19.800  0.00  0.00    +0.000 A 
ATOM      8  C   UNL     1       1.192   9.131  18.424  0.00  0.00    +0.000 A 
ATOM      9  C   UNL     1       0.127   9.922  18.011  0.00  0.00    +0.000 A 
ATOM     10  C   UNL     1      -0.680  10.583  18.956  0.00  0.00    +0.000 A 
ATOM     11  C   UNL     1      -0.456  10.482  20.324  0.00  0.00    +0.000 A 
ATOM     12  N   UNL     1      -1.266  11.113  21.185  0.00  0.00    +0.000 NA
ATOM     13  H   UNL     1      -1.425  11.737  24.258  0.00  0.00    +0.000 HD
ATOM     14  H   UNL     1      -2.373  12.327  22.933  0.00  0.00    +0.000 HD
ATOM     15  H   UNL     1       1.829   9.090  23.709  0.00  0.00    +0.000 HD
ATOM     16  H   UNL     1       2.758   9.171  22.307  0.00  0.00    +0.000 HD
ENDROOT
BRANCH   8  17
ATOM     17  N   UNL     1       2.019   8.398  17.587  0.00  0.00    +0.000 N 
ATOM     18  H   UNL     1       2.086   8.821  16.663  0.00  0.00    +0.000 HD
BRANCH  17  19
ATOM     19  C   UNL     1       3.290   7.832  18.019  0.00  0.00    +0.000 C 
BRANCH  19  20
ATOM     20  C   UNL     1       3.306   6.351  17.665  0.00  0.00    +0.000 A 
ATOM     21  C   UNL     1       2.182   5.598  18.071  0.00  0.00    +0.000 A 
ATOM     22  C   UNL     1       2.104   4.229  17.850  0.00  0.00    +0.000 A 
ATOM     23  C   UNL     1       3.161   3.574  17.233  0.00  0.00    +0.000 A 
ATOM     24  C   UNL     1       4.298   4.279  16.814  0.00  0.00    +0.000 A 
ATOM     25  C   UNL     1       5.348   3.573  16.203  0.00  0.00    +0.000 A 
ATOM     26  C   UNL     1       6.491   4.232  15.760  0.00  0.00    +0.000 A 
ATOM     27  C   UNL     1       6.589   5.608  15.910  0.00  0.00    +0.000 A 
ATOM     28  C   UNL     1       5.553   6.325  16.523  0.00  0.00    +0.000 A 
ATOM     29  C   UNL     1       4.386   5.687  17.009  0.00  0.00    +0.000 A 
ENDBRANCH  19  20
ENDBRANCH  17  19
ENDBRANCH   8  17
TORSDOF 3
ENDMDL
