MODEL 1
REMARK VINA RESULT:      -8.0      0.000      0.000
REMARK  Name = 
REMARK  1 active torsions:
REMARK  status: ('A' for Active; 'I' for Inactive)
REMARK    1  A    between atoms: C_4  and  N_5
REMARK                            x       y       z     vdW  Elec       q    Type
REMARK                         _______ _______ _______ _____ _____    ______ ____
ROOT
ATOM      1  S   UNL     1       1.529   3.080  21.372  0.00  0.00    +0.000 S 
ATOM      2  C   UNL     1       2.012   4.405  20.438  0.00  0.00    +0.000 A 
ATOM      3  C   UNL     1       1.576   5.768  20.810  0.00  0.00    +0.000 A 
ATOM      4  C   UNL     1       1.895   6.838  20.066  0.00  0.00    +0.000 A 
ATOM      5  O   UNL     1       2.656   6.726  18.909  0.00  0.00    +0.000 OA
ATOM      6  C   UNL     1       3.181   5.502  18.540  0.00  0.00    +0.000 A 
ATOM      7  C   UNL     1       2.878   4.324  19.235  0.00  0.00    +0.000 A 
ATOM      8  C   UNL     1       3.405   3.107  18.783  0.00  0.00    +0.000 A 
ATOM      9  C   UNL     1       4.228   3.066  17.660  0.00  0.00    +0.000 A 
ATOM     10  C   UNL     1       4.557   4.236  16.968  0.00  0.00    +0.000 A 
ATOM     11  C   UNL     1       5.400   4.173  15.848  0.00  0.00    +0.000 A 
ATOM     12  C   UNL     1       5.751   5.328  15.152  0.00  0.00    +0.000 A 
ATOM     13  C   UNL     1       5.258   6.559  15.572  0.00  0.00    +0.000 A 
ATOM     14  C   UNL     1       4.413   6.635  16.682  0.00  0.00    +0.000 A 
ATOM     15  C   UNL     1       4.038   5.479  17.405  0.00  0.00    +0.000 A 
ENDROOT
BRANCH   4  16
ATOM     16  N   UNL     1       1.504   8.132  20.403  0.00  0.00    +0.000 N 
ATOM     17  C   UNL     1       1.449   8.609  21.800  0.00  0.00    +0.000 C 
ATOM     18  C   UNL     1       0.185   9.455  22.024  0.00  0.00    +0.000 C 
ATOM     19  O   UNL     1       0.081  10.530  21.075  0.00  0.00    +0.000 OA
ATOM     20  C   UNL     1       0.071  10.010  19.737  0.00  0.00    +0.000 C 
ATOM     21  C   UNL     1       1.363   9.237  19.435  0.00  0.00    +0.000 C 
ENDBRANCH   4  16
TORSDOF 1
ENDMDL
MODEL 2
REMARK VINA RESULT:      -7.1      2.526      6.106
REMARK  Name = 
REMARK  1 active torsions:
REMARK  status: ('A' for Active; 'I' for Inactive)
REMARK    1  A    between atoms: C_4  and  N_5
REMARK                            x       y       z     vdW  Elec       q    Type
REMARK                         _______ _______ _______ _____ _____    ______ ____
ROOT
ATOM      1  S   UNL     1       3.151   2.585  21.010  0.00  0.00    +0.000 S 
ATOM      2  C   UNL     1       3.417   3.799  19.864  0.00  0.00    +0.000 A 
ATOM      3  C   UNL     1       4.325   3.551  18.725  0.00  0.00    +0.000 A 
ATOM      4  C   UNL     1       4.602   4.506  17.824  0.00  0.00    +0.000 A 
ATOM      5  O   UNL     1       4.047   5.777  17.907  0.00  0.00    +0.000 OA
ATOM      6  C   UNL     1       3.117   6.064  18.888  0.00  0.00    +0.000 A 
ATOM      7  C   UNL     1       2.788   5.143  19.892  0.00  0.00    +0.000 A 
ATOM      8  C   UNL     1       1.871   5.511  20.885  0.00  0.00    +0.000 A 
ATOM      9  C   UNL     1       1.285   6.775  20.874  0.00  0.00    +0.000 A 
ATOM     10  C   UNL     1       1.587   7.698  19.867  0.00  0.00    +0.000 A 
ATOM     11  C   UNL     1       0.973   8.960  19.867  0.00  0.00    +0.000 A 
ATOM     12  C   UNL     1       1.250   9.888  18.866  0.00  0.00    +0.000 A 
ATOM     13  C   UNL     1       2.147   9.562  17.854  0.00  0.00    +0.000 A 
ATOM     14  C   UNL     1       2.769   8.311  17.846  0.00  0.00    +0.000 A 
ATOM     15  C   UNL     1       2.510   7.350  18.851  0.00  0.00    +0.000 A 
ENDROOT
BRANCH   4  16
ATOM     16  N   UNL     1       5.447   4.292  16.736  0.00  0.00    +0.000 N 
ATOM     17  C   UNL     1       6.909   4.491  16.811  0.00  0.00    +0.000 C 
ATOM     18  C   UNL     1       7.417   5.188  15.539  0.00  0.00    +0.000 C 
ATOM     19  O   UNL     1       7.022   4.490  14.347  0.00  0.00    +0.000 OA
ATOM     20  C   UNL     1       5.591   4.382  14.287  0.00  0.00    +0.000 C 
ATOM     21  C   UNL     1       5.045   3.605  15.493  0.00  0.00    +0.000 C 
ENDBRANCH   4  16
TORSDOF 1
ENDMDL
MODEL 3
REMARK VINA RESULT:      -7.0      0.525      1.168
REMARK  Name = 
REMARK  1 active torsions:
REMARK  status: ('A' for Active; 'I' for Inactive)
REMARK    1  A    between atoms: C_4  and  N_5
REMARK                            x       y       z     vdW  Elec       q    Type
REMARK                         _______ _______ _______ _____ _____    ______ ____
ROOT
ATOM      1  S   UNL     1       1.802   3.147  21.501  0.00  0.00    +0.000 S 
ATOM      2  C   UNL     1       2.173   4.454  20.495  0.00  0.00    +0.000 A 
ATOM      3  C   UNL     1       1.612   5.791  20.786  0.00  0.00    +0.000 A 
ATOM      4  C   UNL     1       1.841   6.841  19.982  0.00  0.00    +0.000 A 
ATOM      5  O   UNL     1       2.622   6.733  18.838  0.00  0.00    +0.000 OA
ATOM      6  C   UNL     1       3.259   5.542  18.544  0.00  0.00    +0.000 A 
ATOM      7  C   UNL     1       3.056   4.383  19.304  0.00  0.00    +0.000 A 
ATOM      8  C   UNL     1       3.695   3.196  18.926  0.00  0.00    +0.000 A 
ATOM      9  C   UNL     1       4.531   3.166  17.811  0.00  0.00    +0.000 A 
ATOM     10  C   UNL     1       4.761   4.319  17.055  0.00  0.00    +0.000 A 
ATOM     11  C   UNL     1       5.619   4.269  15.946  0.00  0.00    +0.000 A 
ATOM     12  C   UNL     1       5.871   5.409  15.186  0.00  0.00    +0.000 A 
ATOM     13  C   UNL     1       5.265   6.613  15.531  0.00  0.00    +0.000 A 
ATOM     14  C   UNL     1       4.404   6.675  16.630  0.00  0.00    +0.000 A 
ATOM     15  C   UNL     1       4.127   5.532  17.417  0.00  0.00    +0.000 A 
ENDROOT
BRANCH   4  16
ATOM     16  N   UNL     1       1.332   8.112  20.242  0.00  0.00    +0.000 N 
ATOM     17  C   UNL     1       1.141   9.125  19.183  0.00  0.00    +0.000 C 
ATOM     18  C   UNL     1       1.584  10.509  19.686  0.00  0.00    +0.000 C 
ATOM     19  O   UNL     1       0.930  10.871  20.913  0.00  0.00    +0.000 OA
ATOM     20  C   UNL     1       1.201   9.891  21.927  0.00  0.00    +0.000 C 
ATOM     21  C   UNL     1       0.687   8.507  21.509  0.00  0.00    +0.000 C 
ENDBRANCH   4  16
TORSDOF 1
ENDMDL
MODEL 4
REMARK VINA RESULT:      -7.0      2.168      3.930
REMARK  Name = 
REMARK  1 active torsions:
REMARK  status: ('A' for Active; 'I' for Inactive)
REMARK    1  A    between atoms: C_4  and  N_5
REMARK                            x       y       z     vdW  Elec       q    Type
REMARK                         _______ _______ _______ _____ _____    ______ ____
ROOT
ATOM      1  S   UNL     1       5.072   6.999  15.919  0.00  0.00    +0.000 S 
ATOM      2  C   UNL     1       4.038   6.844  17.248  0.00  0.00    +0.000 A 
ATOM      3  C   UNL     1       3.151   7.966  17.625  0.00  0.00    +0.000 A 
ATOM      4  C   UNL     1       2.355   7.901  18.703  0.00  0.00    +0.000 A 
ATOM      5  O   UNL     1       2.314   6.778  19.520  0.00  0.00    +0.000 OA
ATOM      6  C   UNL     1       3.043   5.652  19.186  0.00  0.00    +0.000 A 
ATOM      7  C   UNL     1       3.926   5.634  18.099  0.00  0.00    +0.000 A 
ATOM      8  C   UNL     1       4.670   4.476  17.840  0.00  0.00    +0.000 A 
ATOM      9  C   UNL     1       4.531   3.350  18.649  0.00  0.00    +0.000 A 
ATOM     10  C   UNL     1       3.638   3.344  19.725  0.00  0.00    +0.000 A 
ATOM     11  C   UNL     1       3.502   2.194  20.517  0.00  0.00    +0.000 A 
ATOM     12  C   UNL     1       2.608   2.164  21.585  0.00  0.00    +0.000 A 
ATOM     13  C   UNL     1       1.841   3.288  21.872  0.00  0.00    +0.000 A 
ATOM     14  C   UNL     1       1.971   4.442  21.095  0.00  0.00    +0.000 A 
ATOM     15  C   UNL     1       2.873   4.503  20.007  0.00  0.00    +0.000 A 
ENDROOT
BRANCH   4  16
ATOM     16  N   UNL     1       1.503   8.941  19.072  0.00  0.00    +0.000 N 
ATOM     17  C   UNL     1       1.154   9.223  20.480  0.00  0.00    +0.000 C 
ATOM     18  C   UNL     1      -0.343   9.555  20.601  0.00  0.00    +0.000 C 
ATOM     19  O   UNL     1      -0.732  10.619  19.717  0.00  0.00    +0.000 OA
ATOM     20  C   UNL     1      -0.434  10.268  18.357  0.00  0.00    +0.000 C 
ATOM     21  C   UNL     1       1.069  10.022  18.166  0.00  0.00    +0.000 C 
ENDBRANCH   4  16
TORSDOF 1
ENDMDL
MODEL 5
REMARK VINA RESULT:      -6.9      2.185      4.077
REMARK  Name = 
REMARK  1 active torsions:
REMARK  status: ('A' for Active; 'I' for Inactive)
REMARK    1  A    between atoms: C_4  and  N_5
REMARK                            x       y       z     vdW  Elec       q    Type
REMARK                         _______ _______ _______ _____ _____    ______ ____
ROOT
ATOM      1  S   UNL     1       5.118   7.016  16.017  0.00  0.00    +0.000 S 
ATOM      2  C   UNL     1       4.066   6.845  17.330  0.00  0.00    +0.000 A 
ATOM      3  C   UNL     1       3.169   7.959  17.704  0.00  0.00    +0.000 A 
ATOM      4  C   UNL     1       2.357   7.882  18.770  0.00  0.00    +0.000 A 
ATOM      5  O   UNL     1       2.311   6.751  19.577  0.00  0.00    +0.000 OA
ATOM      6  C   UNL     1       3.049   5.631  19.243  0.00  0.00    +0.000 A 
ATOM      7  C   UNL     1       3.948   5.627  18.169  0.00  0.00    +0.000 A 
ATOM      8  C   UNL     1       4.701   4.475  17.911  0.00  0.00    +0.000 A 
ATOM      9  C   UNL     1       4.556   3.341  18.708  0.00  0.00    +0.000 A 
ATOM     10  C   UNL     1       3.647   3.322  19.771  0.00  0.00    +0.000 A 
ATOM     11  C   UNL     1       3.506   2.164  20.550  0.00  0.00    +0.000 A 
ATOM     12  C   UNL     1       2.597   2.120  21.606  0.00  0.00    +0.000 A 
ATOM     13  C   UNL     1       1.821   3.239  21.892  0.00  0.00    +0.000 A 
ATOM     14  C   UNL     1       1.957   4.400  21.126  0.00  0.00    +0.000 A 
ATOM     15  C   UNL     1       2.873   4.474  20.052  0.00  0.00    +0.000 A 
ENDROOT
BRANCH   4  16
ATOM     16  N   UNL     1       1.495   8.914  19.136  0.00  0.00    +0.000 N 
ATOM     17  C   UNL     1       0.973   9.897  18.165  0.00  0.00    +0.000 C 
ATOM     18  C   UNL     1       0.991  11.308  18.775  0.00  0.00    +0.000 C 
ATOM     19  O   UNL     1       0.296  11.360  20.032  0.00  0.00    +0.000 OA
ATOM     20  C   UNL     1       0.884  10.436  20.961  0.00  0.00    +0.000 C 
ATOM     21  C   UNL     1       0.801   8.996  20.436  0.00  0.00    +0.000 C 
ENDBRANCH   4  16
TORSDOF 1
ENDMDL
MODEL 6
REMARK VINA RESULT:      -6.8      2.051      6.158
REMARK  Name = 
REMARK  1 active torsions:
REMARK  status: ('A' for Active; 'I' for Inactive)
REMARK    1  A    between atoms: C_4  and  N_5
REMARK                            x       y       z     vdW  Elec       q    Type
REMARK                         _______ _______ _______ _____ _____    ______ ____
ROOT
ATOM      1  S   UNL     1       2.203   3.821  21.254  0.00  0.00    +0.000 S 
ATOM      2  C   UNL     1       2.553   5.000  20.093  0.00  0.00    +0.000 A 
ATOM      3  C   UNL     1       3.425   4.668  18.946  0.00  0.00    +0.000 A 
ATOM      4  C   UNL     1       3.769   5.590  18.033  0.00  0.00    +0.000 A 
ATOM      5  O   UNL     1       3.320   6.902  18.111  0.00  0.00    +0.000 OA
ATOM      6  C   UNL     1       2.427   7.272  19.099  0.00  0.00    +0.000 A 
ATOM      7  C   UNL     1       2.036   6.390  20.115  0.00  0.00    +0.000 A 
ATOM      8  C   UNL     1       1.164   6.840  21.114  0.00  0.00    +0.000 A 
ATOM      9  C   UNL     1       0.683   8.148  21.098  0.00  0.00    +0.000 A 
ATOM     10  C   UNL     1       1.047   9.034  20.079  0.00  0.00    +0.000 A 
ATOM     11  C   UNL     1       0.539  10.342  20.073  0.00  0.00    +0.000 A 
ATOM     12  C   UNL     1       0.878  11.236  19.061  0.00  0.00    +0.000 A 
ATOM     13  C   UNL     1       1.734  10.829  18.042  0.00  0.00    +0.000 A 
ATOM     14  C   UNL     1       2.252   9.531  18.039  0.00  0.00    +0.000 A 
ATOM     15  C   UNL     1       1.927   8.603  19.056  0.00  0.00    +0.000 A 
ENDROOT
BRANCH   4  16
ATOM     16  N   UNL     1       4.580   5.298  16.939  0.00  0.00    +0.000 N 
ATOM     17  C   UNL     1       4.543   3.994  16.244  0.00  0.00    +0.000 C 
ATOM     18  C   UNL     1       5.970   3.532  15.905  0.00  0.00    +0.000 C 
ATOM     19  O   UNL     1       6.696   4.526  15.162  0.00  0.00    +0.000 OA
ATOM     20  C   UNL     1       6.761   5.751  15.908  0.00  0.00    +0.000 C 
ATOM     21  C   UNL     1       5.356   6.304  16.187  0.00  0.00    +0.000 C 
ENDBRANCH   4  16
TORSDOF 1
ENDMDL
MODEL 7
REMARK VINA RESULT:      -6.8      2.482      6.318
REMARK  Name = 
REMARK  1 active torsions:
REMARK  status: ('A' for Active; 'I' for Inactive)
REMARK    1  A    between atoms: C_4  and  N_5
REMARK                            x       y       z     vdW  Elec       q    Type
REMARK                         _______ _______ _______ _____ _____    ______ ____
ROOT
ATOM      1  S   UNL     1       3.555   2.666  20.171  0.00  0.00    +0.000 S 
ATOM      2  C   UNL     1       3.632   4.044  19.194  0.00  0.00    +0.000 A 
ATOM      3  C   UNL     1       4.440   4.026  17.957  0.00  0.00    +0.000 A 
ATOM      4  C   UNL     1       4.569   5.115  17.183  0.00  0.00    +0.000 A 
ATOM      5  O   UNL     1       3.946   6.317  17.499  0.00  0.00    +0.000 OA
ATOM      6  C   UNL     1       3.098   6.393  18.587  0.00  0.00    +0.000 A 
ATOM      7  C   UNL     1       2.926   5.320  19.471  0.00  0.00    +0.000 A 
ATOM      8  C   UNL     1       2.088   5.476  20.583  0.00  0.00    +0.000 A 
ATOM      9  C   UNL     1       1.426   6.681  20.806  0.00  0.00    +0.000 A 
ATOM     10  C   UNL     1       1.571   7.755  19.922  0.00  0.00    +0.000 A 
ATOM     11  C   UNL     1       0.882   8.954  20.158  0.00  0.00    +0.000 A 
ATOM     12  C   UNL     1       1.003  10.031  19.282  0.00  0.00    +0.000 A 
ATOM     13  C   UNL     1       1.817   9.917  18.160  0.00  0.00    +0.000 A 
ATOM     14  C   UNL     1       2.512   8.730  17.917  0.00  0.00    +0.000 A 
ATOM     15  C   UNL     1       2.412   7.622  18.790  0.00  0.00    +0.000 A 
ENDROOT
BRANCH   4  16
ATOM     16  N   UNL     1       5.316   5.119  16.007  0.00  0.00    +0.000 N 
ATOM     17  C   UNL     1       4.813   4.543  14.742  0.00  0.00    +0.000 C 
ATOM     18  C   UNL     1       5.930   3.758  14.034  0.00  0.00    +0.000 C 
ATOM     19  O   UNL     1       7.110   4.556  13.841  0.00  0.00    +0.000 OA
ATOM     20  C   UNL     1       7.597   5.035  15.104  0.00  0.00    +0.000 C 
ATOM     21  C   UNL     1       6.547   5.908  15.806  0.00  0.00    +0.000 C 
ENDBRANCH   4  16
TORSDOF 1
ENDMDL
MODEL 8
REMARK VINA RESULT:      -6.5      3.837      5.410
REMARK  Name = 
REMARK  1 active torsions:
REMARK  status: ('A' for Active; 'I' for Inactive)
REMARK    1  A    between atoms: C_4  and  N_5
REMARK                            x       y       z     vdW  Elec       q    Type
REMARK                         _______ _______ _______ _____ _____    ______ ____
ROOT
ATOM      1  S   UNL     1       7.477   5.896  18.812  0.00  0.00    +0.000 S 
ATOM      2  C   UNL     1       6.353   5.163  17.782  0.00  0.00    +0.000 A 
ATOM      3  C   UNL     1       5.042   4.731  18.311  0.00  0.00    +0.000 A 
ATOM      4  C   UNL     1       4.145   4.100  17.538  0.00  0.00    +0.000 A 
ATOM      5  O   UNL     1       4.395   3.823  16.200  0.00  0.00    +0.000 OA
ATOM      6  C   UNL     1       5.557   4.274  15.604  0.00  0.00    +0.000 A 
ATOM      7  C   UNL     1       6.567   4.913  16.335  0.00  0.00    +0.000 A 
ATOM      8  C   UNL     1       7.742   5.306  15.682  0.00  0.00    +0.000 A 
ATOM      9  C   UNL     1       7.905   5.071  14.318  0.00  0.00    +0.000 A 
ATOM     10  C   UNL     1       6.898   4.453  13.570  0.00  0.00    +0.000 A 
ATOM     11  C   UNL     1       7.077   4.241  12.194  0.00  0.00    +0.000 A 
ATOM     12  C   UNL     1       6.081   3.639  11.429  0.00  0.00    +0.000 A 
ATOM     13  C   UNL     1       4.894   3.242  12.035  0.00  0.00    +0.000 A 
ATOM     14  C   UNL     1       4.705   3.442  13.405  0.00  0.00    +0.000 A 
ATOM     15  C   UNL     1       5.700   4.048  14.207  0.00  0.00    +0.000 A 
ENDROOT
BRANCH   4  16
ATOM     16  N   UNL     1       2.899   3.693  18.011  0.00  0.00    +0.000 N 
ATOM     17  C   UNL     1       1.873   4.649  18.478  0.00  0.00    +0.000 C 
ATOM     18  C   UNL     1       1.194   4.120  19.752  0.00  0.00    +0.000 C 
ATOM     19  O   UNL     1       0.664   2.797  19.571  0.00  0.00    +0.000 OA
ATOM     20  C   UNL     1       1.711   1.893  19.184  0.00  0.00    +0.000 C 
ATOM     21  C   UNL     1       2.356   2.329  17.861  0.00  0.00    +0.000 C 
ENDBRANCH   4  16
TORSDOF 1
ENDMDL
MODEL 9
REMARK VINA RESULT:      -6.5      3.129      6.519
REMARK  Name = 
REMARK  1 active torsions:
REMARK  status: ('A' for Active; 'I' for Inactive)
REMARK    1  A    between atoms: C_4  and  N_5
REMARK                            x       y       z     vdW  Elec       q    Type
REMARK                         _______ _______ _______ _____ _____    ______ ____
ROOT
ATOM      1  S   UNL     1       2.056   9.214  18.001  0.00  0.00    +0.000 S 
ATOM      2  C   UNL     1       2.847   7.721  18.062  0.00  0.00    +0.000 A 
ATOM      3  C   UNL     1       3.945   7.429  17.115  0.00  0.00    +0.000 A 
ATOM      4  C   UNL     1       4.562   6.238  17.097  0.00  0.00    +0.000 A 
ATOM      5  O   UNL     1       4.209   5.216  17.970  0.00  0.00    +0.000 OA
ATOM      6  C   UNL     1       3.257   5.437  18.947  0.00  0.00    +0.000 A 
ATOM      7  C   UNL     1       2.536   6.635  19.024  0.00  0.00    +0.000 A 
ATOM      8  C   UNL     1       1.551   6.780  20.010  0.00  0.00    +0.000 A 
ATOM      9  C   UNL     1       1.293   5.747  20.910  0.00  0.00    +0.000 A 
ATOM     10  C   UNL     1       2.019   4.553  20.859  0.00  0.00    +0.000 A 
ATOM     11  C   UNL     1       1.753   3.533  21.785  0.00  0.00    +0.000 A 
ATOM     12  C   UNL     1       2.473   2.340  21.760  0.00  0.00    +0.000 A 
ATOM     13  C   UNL     1       3.468   2.158  20.804  0.00  0.00    +0.000 A 
ATOM     14  C   UNL     1       3.738   3.163  19.873  0.00  0.00    +0.000 A 
ATOM     15  C   UNL     1       3.020   4.382  19.873  0.00  0.00    +0.000 A 
ENDROOT
BRANCH   4  16
ATOM     16  N   UNL     1       5.605   5.944  16.222  0.00  0.00    +0.000 N 
ATOM     17  C   UNL     1       5.410   5.820  14.763  0.00  0.00    +0.000 C 
ATOM     18  C   UNL     1       6.212   4.627  14.218  0.00  0.00    +0.000 C 
ATOM     19  O   UNL     1       7.601   4.701  14.579  0.00  0.00    +0.000 OA
ATOM     20  C   UNL     1       7.740   4.751  16.008  0.00  0.00    +0.000 C 
ATOM     21  C   UNL     1       7.034   5.985  16.588  0.00  0.00    +0.000 C 
ENDBRANCH   4  16
TORSDOF 1
ENDMDL
