MODEL 1
REMARK VINA RESULT:      -8.3      0.000      0.000
REMARK  Name = 
REMARK  6 active torsions:
REMARK  status: ('A' for Active; 'I' for Inactive)
REMARK    1  A    between atoms: C_1  and  C_2
REMARK    2  A    between atoms: C_5  and  C_6
REMARK    3  A    between atoms: C_9  and  C_10
REMARK    4  A    between atoms: C_10  and  C_11
REMARK    5  A    between atoms: C_11  and  C_12
REMARK    6  A    between atoms: N_22  and  C_23
REMARK                            x       y       z     vdW  Elec       q    Type
REMARK                         _______ _______ _______ _____ _____    ______ ____
ROOT
ATOM      1  C   UNL     1       7.938   7.536  18.296  0.00  0.00    +0.000 C 
ENDROOT
BRANCH   1   2
ATOM      2  C   UNL     1       7.373   6.444  17.408  0.00  0.00    +0.000 A 
ATOM      3  N   UNL     1       7.734   6.137  16.175  0.00  0.00    +0.000 NA
ATOM      4  C   UNL     1       6.843   5.169  15.766  0.00  0.00    +0.000 A 
ATOM      5  N   UNL     1       6.791   4.654  14.485  0.00  0.00    +0.000 N 
ATOM      6  C   UNL     1       5.733   3.801  13.997  0.00  0.00    +0.000 C 
ATOM      7  C   UNL     1       6.178   3.396  12.606  0.00  0.00    +0.000 C 
ATOM      8  C   UNL     1       7.037   4.565  12.157  0.00  0.00    +0.000 C 
ATOM      9  C   UNL     1       7.596   5.117  13.451  0.00  0.00    +0.000 C 
ATOM     10  O   UNL     1       8.548   5.879  13.479  0.00  0.00    +0.000 OA
ATOM     11  N   UNL     1       5.974   4.820  16.717  0.00  0.00    +0.000 NA
ATOM     12  N   UNL     1       6.330   5.615  17.745  0.00  0.00    +0.000 N 
ATOM     13  C   UNL     1       5.606   5.505  18.984  0.00  0.00    +0.000 C 
ENDBRANCH   1   2
BRANCH   1  14
ATOM     14  C   UNL     1       8.055   8.908  17.599  0.00  0.00    +0.000 C 
BRANCH  14  23
ATOM     15  C   UNL     1      11.913  12.914  17.282  0.00  0.00    +0.000 C 
ATOM     16  C   UNL     1      11.165  12.640  18.558  0.00  0.00    +0.000 A 
ATOM     17  N   UNL     1      11.431  13.370  19.607  0.00  0.00    +0.000 NA
ATOM     18  C   UNL     1      10.735  13.116  20.774  0.00  0.00    +0.000 A 
ATOM     19  C   UNL     1       9.794  12.158  20.905  0.00  0.00    +0.000 A 
ATOM     20  C   UNL     1       9.061  11.916  22.181  0.00  0.00    +0.000 C 
ATOM     21  N   UNL     1       9.502  11.366  19.789  0.00  0.00    +0.000 N 
ATOM     22  N   UNL     1       8.615  10.339  19.616  0.00  0.00    +0.000 NA
ATOM     23  C   UNL     1       8.803  10.001  18.330  0.00  0.00    +0.000 A 
ATOM     24  N   UNL     1       9.763  10.753  17.677  0.00  0.00    +0.000 NA
ATOM     25  C   UNL     1      10.171  11.586  18.608  0.00  0.00    +0.000 A 
ENDBRANCH  14  23
ENDBRANCH   1  14
TORSDOF 3
ENDMDL
MODEL 2
REMARK VINA RESULT:      -8.2      0.596      2.006
REMARK  Name = 
REMARK  6 active torsions:
REMARK  status: ('A' for Active; 'I' for Inactive)
REMARK    1  A    between atoms: C_1  and  C_2
REMARK    2  A    between atoms: C_5  and  C_6
REMARK    3  A    between atoms: C_9  and  C_10
REMARK    4  A    between atoms: C_10  and  C_11
REMARK    5  A    between atoms: C_11  and  C_12
REMARK    6  A    between atoms: N_22  and  C_23
REMARK                            x       y       z     vdW  Elec       q    Type
REMARK                         _______ _______ _______ _____ _____    ______ ____
ROOT
ATOM      1  C   UNL     1       7.881   7.584  18.251  0.00  0.00    +0.000 C 
ENDROOT
BRANCH   1   2
ATOM      2  C   UNL     1       7.327   6.481  17.369  0.00  0.00    +0.000 A 
ATOM      3  N   UNL     1       7.701   6.161  16.144  0.00  0.00    +0.000 NA
ATOM      4  C   UNL     1       6.818   5.185  15.737  0.00  0.00    +0.000 A 
ATOM      5  N   UNL     1       6.779   4.655  14.461  0.00  0.00    +0.000 N 
ATOM      6  C   UNL     1       5.729   3.794  13.973  0.00  0.00    +0.000 C 
ATOM      7  C   UNL     1       6.189   3.374  12.591  0.00  0.00    +0.000 C 
ATOM      8  C   UNL     1       7.049   4.540  12.137  0.00  0.00    +0.000 C 
ATOM      9  C   UNL     1       7.594   5.109  13.430  0.00  0.00    +0.000 C 
ATOM     10  O   UNL     1       8.543   5.874  13.459  0.00  0.00    +0.000 OA
ATOM     11  N   UNL     1       5.940   4.845  16.683  0.00  0.00    +0.000 NA
ATOM     12  N   UNL     1       6.283   5.653  17.705  0.00  0.00    +0.000 N 
ATOM     13  C   UNL     1       5.547   5.554  18.938  0.00  0.00    +0.000 C 
ENDBRANCH   1   2
BRANCH   1  14
ATOM     14  C   UNL     1       8.167   8.900  17.496  0.00  0.00    +0.000 C 
BRANCH  14  23
ATOM     15  C   UNL     1       8.681  11.649  22.313  0.00  0.00    +0.000 C 
ATOM     16  C   UNL     1       9.535  11.983  21.121  0.00  0.00    +0.000 A 
ATOM     17  N   UNL     1      10.419  12.937  21.233  0.00  0.00    +0.000 NA
ATOM     18  C   UNL     1      11.204  13.233  20.134  0.00  0.00    +0.000 A 
ATOM     19  C   UNL     1      11.118  12.601  18.946  0.00  0.00    +0.000 A 
ATOM     20  C   UNL     1      11.987  12.947  17.784  0.00  0.00    +0.000 C 
ATOM     21  N   UNL     1      10.173  11.578  18.812  0.00  0.00    +0.000 N 
ATOM     22  N   UNL     1       9.858  10.771  17.752  0.00  0.00    +0.000 NA
ATOM     23  C   UNL     1       8.881   9.997  18.252  0.00  0.00    +0.000 A 
ATOM     24  N   UNL     1       8.553  10.271  19.569  0.00  0.00    +0.000 NA
ATOM     25  C   UNL     1       9.372  11.251  19.880  0.00  0.00    +0.000 A 
ENDBRANCH  14  23
ENDBRANCH   1  14
TORSDOF 3
ENDMDL
MODEL 3
REMARK VINA RESULT:      -7.9      7.223     10.198
REMARK  Name = 
REMARK  6 active torsions:
REMARK  status: ('A' for Active; 'I' for Inactive)
REMARK    1  A    between atoms: C_1  and  C_2
REMARK    2  A    between atoms: C_5  and  C_6
REMARK    3  A    between atoms: C_9  and  C_10
REMARK    4  A    between atoms: C_10  and  C_11
REMARK    5  A    between atoms: C_11  and  C_12
REMARK    6  A    between atoms: N_22  and  C_23
REMARK                            x       y       z     vdW  Elec       q    Type
REMARK                         _______ _______ _______ _____ _____    ______ ____
ROOT
ATOM      1  C   UNL     1       1.967   9.262  18.543  0.00  0.00    +0.000 C 
ENDROOT
BRANCH   1   2
ATOM      2  C   UNL     1       0.566   9.799  18.765  0.00  0.00    +0.000 A 
ATOM      3  N   UNL     1      -0.460   9.748  17.935  0.00  0.00    +0.000 NA
ATOM      4  C   UNL     1      -1.457  10.477  18.545  0.00  0.00    +0.000 A 
ATOM      5  N   UNL     1      -2.670  10.779  17.954  0.00  0.00    +0.000 N 
ATOM      6  C   UNL     1      -3.627  11.713  18.500  0.00  0.00    +0.000 C 
ATOM      7  C   UNL     1      -4.830  11.607  17.584  0.00  0.00    +0.000 C 
ATOM      8  C   UNL     1      -4.224  11.199  16.253  0.00  0.00    +0.000 C 
ATOM      9  C   UNL     1      -2.980  10.430  16.645  0.00  0.00    +0.000 C 
ATOM     10  O   UNL     1      -2.385   9.707  15.864  0.00  0.00    +0.000 OA
ATOM     11  N   UNL     1      -1.111  10.935  19.750  0.00  0.00    +0.000 NA
ATOM     12  N   UNL     1       0.153  10.487  19.881  0.00  0.00    +0.000 N 
ATOM     13  C   UNL     1       0.865  10.780  21.097  0.00  0.00    +0.000 C 
ENDBRANCH   1   2
BRANCH   1  14
ATOM     14  C   UNL     1       2.032   8.079  17.554  0.00  0.00    +0.000 C 
BRANCH  14  23
ATOM     15  C   UNL     1       6.740   5.483  19.012  0.00  0.00    +0.000 C 
ATOM     16  C   UNL     1       5.408   4.785  19.058  0.00  0.00    +0.000 A 
ATOM     17  N   UNL     1       5.369   3.542  19.457  0.00  0.00    +0.000 NA
ATOM     18  C   UNL     1       4.140   2.910  19.501  0.00  0.00    +0.000 A 
ATOM     19  C   UNL     1       2.973   3.490  19.158  0.00  0.00    +0.000 A 
ATOM     20  C   UNL     1       1.665   2.775  19.224  0.00  0.00    +0.000 C 
ATOM     21  N   UNL     1       3.002   4.821  18.725  0.00  0.00    +0.000 N 
ATOM     22  N   UNL     1       2.002   5.662  18.319  0.00  0.00    +0.000 NA
ATOM     23  C   UNL     1       2.666   6.796  18.041  0.00  0.00    +0.000 A 
ATOM     24  N   UNL     1       4.033   6.720  18.243  0.00  0.00    +0.000 NA
ATOM     25  C   UNL     1       4.203   5.488  18.666  0.00  0.00    +0.000 A 
ENDBRANCH  14  23
ENDBRANCH   1  14
TORSDOF 3
ENDMDL
MODEL 4
REMARK VINA RESULT:      -7.8      6.792      8.698
REMARK  Name = 
REMARK  6 active torsions:
REMARK  status: ('A' for Active; 'I' for Inactive)
REMARK    1  A    between atoms: C_1  and  C_2
REMARK    2  A    between atoms: C_5  and  C_6
REMARK    3  A    between atoms: C_9  and  C_10
REMARK    4  A    between atoms: C_10  and  C_11
REMARK    5  A    between atoms: C_11  and  C_12
REMARK    6  A    between atoms: N_22  and  C_23
REMARK                            x       y       z     vdW  Elec       q    Type
REMARK                         _______ _______ _______ _____ _____    ______ ____
ROOT
ATOM      1  C   UNL     1       1.901   7.905  19.563  0.00  0.00    +0.000 C 
ENDROOT
BRANCH   1   2
ATOM      2  C   UNL     1       2.770   6.779  19.035  0.00  0.00    +0.000 A 
ATOM      3  N   UNL     1       3.591   6.809  18.001  0.00  0.00    +0.000 NA
ATOM      4  C   UNL     1       4.043   5.515  17.859  0.00  0.00    +0.000 A 
ATOM      5  N   UNL     1       4.836   5.080  16.814  0.00  0.00    +0.000 N 
ATOM      6  C   UNL     1       5.135   3.693  16.547  0.00  0.00    +0.000 C 
ATOM      7  C   UNL     1       6.129   3.730  15.402  0.00  0.00    +0.000 C 
ATOM      8  C   UNL     1       5.774   5.011  14.669  0.00  0.00    +0.000 C 
ATOM      9  C   UNL     1       5.205   5.900  15.754  0.00  0.00    +0.000 C 
ATOM     10  O   UNL     1       5.070   7.103  15.609  0.00  0.00    +0.000 OA
ATOM     11  N   UNL     1       3.577   4.690  18.799  0.00  0.00    +0.000 NA
ATOM     12  N   UNL     1       2.795   5.501  19.538  0.00  0.00    +0.000 N 
ATOM     13  C   UNL     1       2.121   4.949  20.684  0.00  0.00    +0.000 C 
ENDBRANCH   1   2
BRANCH   1  14
ATOM     14  C   UNL     1       1.757   9.091  18.587  0.00  0.00    +0.000 C 
BRANCH  14  23
ATOM     15  C   UNL     1      -3.006   9.843  15.798  0.00  0.00    +0.000 C 
ATOM     16  C   UNL     1      -2.733  10.552  17.096  0.00  0.00    +0.000 A 
ATOM     17  N   UNL     1      -3.646  11.354  17.573  0.00  0.00    +0.000 NA
ATOM     18  C   UNL     1      -3.389  11.998  18.770  0.00  0.00    +0.000 A 
ATOM     19  C   UNL     1      -2.253  11.853  19.483  0.00  0.00    +0.000 A 
ATOM     20  C   UNL     1      -2.015  12.562  20.773  0.00  0.00    +0.000 C 
ATOM     21  N   UNL     1      -1.266  10.998  18.980  0.00  0.00    +0.000 N 
ATOM     22  N   UNL     1      -0.034  10.654  19.468  0.00  0.00    +0.000 NA
ATOM     23  C   UNL     1       0.421   9.798  18.539  0.00  0.00    +0.000 A 
ATOM     24  N   UNL     1      -0.451   9.582  17.486  0.00  0.00    +0.000 NA
ATOM     25  C   UNL     1      -1.481  10.338  17.794  0.00  0.00    +0.000 A 
ENDBRANCH  14  23
ENDBRANCH   1  14
TORSDOF 3
ENDMDL
MODEL 5
REMARK VINA RESULT:      -7.8      7.322     10.419
REMARK  Name = 
REMARK  6 active torsions:
REMARK  status: ('A' for Active; 'I' for Inactive)
REMARK    1  A    between atoms: C_1  and  C_2
REMARK    2  A    between atoms: C_5  and  C_6
REMARK    3  A    between atoms: C_9  and  C_10
REMARK    4  A    between atoms: C_10  and  C_11
REMARK    5  A    between atoms: C_11  and  C_12
REMARK    6  A    between atoms: N_22  and  C_23
REMARK                            x       y       z     vdW  Elec       q    Type
REMARK                         _______ _______ _______ _____ _____    ______ ____
ROOT
ATOM      1  C   UNL     1       1.985   9.543  18.594  0.00  0.00    +0.000 C 
ENDROOT
BRANCH   1   2
ATOM      2  C   UNL     1       0.558  10.010  18.807  0.00  0.00    +0.000 A 
ATOM      3  N   UNL     1      -0.460   9.908  17.972  0.00  0.00    +0.000 NA
ATOM      4  C   UNL     1      -1.495  10.587  18.575  0.00  0.00    +0.000 A 
ATOM      5  N   UNL     1      -2.718  10.828  17.978  0.00  0.00    +0.000 N 
ATOM      6  C   UNL     1      -3.723  11.714  18.517  0.00  0.00    +0.000 C 
ATOM      7  C   UNL     1      -4.915  11.547  17.595  0.00  0.00    +0.000 C 
ATOM      8  C   UNL     1      -4.282  11.167  16.268  0.00  0.00    +0.000 C 
ATOM      9  C   UNL     1      -3.004  10.462  16.668  0.00  0.00    +0.000 C 
ATOM     10  O   UNL     1      -2.370   9.768  15.891  0.00  0.00    +0.000 OA
ATOM     11  N   UNL     1      -1.178  11.064  19.781  0.00  0.00    +0.000 NA
ATOM     12  N   UNL     1       0.106  10.679  19.919  0.00  0.00    +0.000 N 
ATOM     13  C   UNL     1       0.796  11.009  21.138  0.00  0.00    +0.000 C 
ENDBRANCH   1   2
BRANCH   1  14
ATOM     14  C   UNL     1       2.114   8.369  17.601  0.00  0.00    +0.000 C 
BRANCH  14  23
ATOM     15  C   UNL     1       1.284   3.788  20.659  0.00  0.00    +0.000 C 
ATOM     16  C   UNL     1       2.588   4.038  19.953  0.00  0.00    +0.000 A 
ATOM     17  N   UNL     1       3.538   3.148  20.062  0.00  0.00    +0.000 NA
ATOM     18  C   UNL     1       4.731   3.383  19.405  0.00  0.00    +0.000 A 
ATOM     19  C   UNL     1       4.985   4.475  18.654  0.00  0.00    +0.000 A 
ATOM     20  C   UNL     1       6.285   4.690  17.956  0.00  0.00    +0.000 C 
ATOM     21  N   UNL     1       3.976   5.437  18.532  0.00  0.00    +0.000 N 
ATOM     22  N   UNL     1       3.936   6.624  17.853  0.00  0.00    +0.000 NA
ATOM     23  C   UNL     1       2.701   7.076  18.122  0.00  0.00    +0.000 A 
ATOM     24  N   UNL     1       1.954   6.244  18.938  0.00  0.00    +0.000 NA
ATOM     25  C   UNL     1       2.773   5.243  19.169  0.00  0.00    +0.000 A 
ENDBRANCH  14  23
ENDBRANCH   1  14
TORSDOF 3
ENDMDL
MODEL 6
REMARK VINA RESULT:      -7.8      6.959      8.830
REMARK  Name = 
REMARK  6 active torsions:
REMARK  status: ('A' for Active; 'I' for Inactive)
REMARK    1  A    between atoms: C_1  and  C_2
REMARK    2  A    between atoms: C_5  and  C_6
REMARK    3  A    between atoms: C_9  and  C_10
REMARK    4  A    between atoms: C_10  and  C_11
REMARK    5  A    between atoms: C_11  and  C_12
REMARK    6  A    between atoms: N_22  and  C_23
REMARK                            x       y       z     vdW  Elec       q    Type
REMARK                         _______ _______ _______ _____ _____    ______ ____
ROOT
ATOM      1  C   UNL     1       1.927   8.194  19.373  0.00  0.00    +0.000 C 
ENDROOT
BRANCH   1   2
ATOM      2  C   UNL     1       2.744   7.009  18.892  0.00  0.00    +0.000 A 
ATOM      3  N   UNL     1       3.594   6.970  17.883  0.00  0.00    +0.000 NA
ATOM      4  C   UNL     1       3.975   5.650  17.780  0.00  0.00    +0.000 A 
ATOM      5  N   UNL     1       4.770   5.148  16.767  0.00  0.00    +0.000 N 
ATOM      6  C   UNL     1       4.996   3.741  16.537  0.00  0.00    +0.000 C 
ATOM      7  C   UNL     1       6.022   3.696  15.421  0.00  0.00    +0.000 C 
ATOM      8  C   UNL     1       5.762   4.979  14.652  0.00  0.00    +0.000 C 
ATOM      9  C   UNL     1       5.215   5.922  15.702  0.00  0.00    +0.000 C 
ATOM     10  O   UNL     1       5.154   7.128  15.530  0.00  0.00    +0.000 OA
ATOM     11  N   UNL     1       3.435   4.873  18.723  0.00  0.00    +0.000 NA
ATOM     12  N   UNL     1       2.681   5.743  19.422  0.00  0.00    +0.000 N 
ATOM     13  C   UNL     1       1.944   5.256  20.558  0.00  0.00    +0.000 C 
ENDBRANCH   1   2
BRANCH   1  14
ATOM     14  C   UNL     1       1.504   9.158  18.244  0.00  0.00    +0.000 C 
BRANCH  14  23
ATOM     15  C   UNL     1      -1.501  12.700  21.318  0.00  0.00    +0.000 C 
ATOM     16  C   UNL     1      -2.047  12.095  20.054  0.00  0.00    +0.000 A 
ATOM     17  N   UNL     1      -3.253  12.423  19.676  0.00  0.00    +0.000 NA
ATOM     18  C   UNL     1      -3.745  11.867  18.509  0.00  0.00    +0.000 A 
ATOM     19  C   UNL     1      -3.061  11.004  17.730  0.00  0.00    +0.000 A 
ATOM     20  C   UNL     1      -3.625  10.429  16.475  0.00  0.00    +0.000 C 
ATOM     21  N   UNL     1      -1.769  10.643  18.127  0.00  0.00    +0.000 N 
ATOM     22  N   UNL     1      -0.848   9.807  17.555  0.00  0.00    +0.000 NA
ATOM     23  C   UNL     1       0.189   9.887  18.405  0.00  0.00    +0.000 A 
ATOM     24  N   UNL     1      -0.023  10.723  19.487  0.00  0.00    +0.000 NA
ATOM     25  C   UNL     1      -1.241  11.173  19.280  0.00  0.00    +0.000 A 
ENDBRANCH  14  23
ENDBRANCH   1  14
TORSDOF 3
ENDMDL
MODEL 7
REMARK VINA RESULT:      -7.8      6.513      8.538
REMARK  Name = 
REMARK  6 active torsions:
REMARK  status: ('A' for Active; 'I' for Inactive)
REMARK    1  A    between atoms: C_1  and  C_2
REMARK    2  A    between atoms: C_5  and  C_6
REMARK    3  A    between atoms: C_9  and  C_10
REMARK    4  A    between atoms: C_10  and  C_11
REMARK    5  A    between atoms: C_11  and  C_12
REMARK    6  A    between atoms: N_22  and  C_23
REMARK                            x       y       z     vdW  Elec       q    Type
REMARK                         _______ _______ _______ _____ _____    ______ ____
ROOT
ATOM      1  C   UNL     1       2.896   8.614  17.656  0.00  0.00    +0.000 C 
ENDROOT
BRANCH   1   2
ATOM      2  C   UNL     1       3.206   7.168  17.995  0.00  0.00    +0.000 A 
ATOM      3  N   UNL     1       2.552   6.374  18.822  0.00  0.00    +0.000 NA
ATOM      4  C   UNL     1       3.295   5.215  18.877  0.00  0.00    +0.000 A 
ATOM      5  N   UNL     1       3.026   4.160  19.728  0.00  0.00    +0.000 N 
ATOM      6  C   UNL     1       3.916   3.042  19.939  0.00  0.00    +0.000 C 
ATOM      7  C   UNL     1       3.140   2.099  20.837  0.00  0.00    +0.000 C 
ATOM      8  C   UNL     1       2.225   3.029  21.615  0.00  0.00    +0.000 C 
ATOM      9  C   UNL     1       2.006   4.191  20.671  0.00  0.00    +0.000 C 
ATOM     10  O   UNL     1       1.107   5.000  20.827  0.00  0.00    +0.000 OA
ATOM     11  N   UNL     1       4.361   5.236  18.072  0.00  0.00    +0.000 NA
ATOM     12  N   UNL     1       4.280   6.460  17.513  0.00  0.00    +0.000 N 
ATOM     13  C   UNL     1       5.279   6.843  16.550  0.00  0.00    +0.000 C 
ENDBRANCH   1   2
BRANCH   1  14
ATOM     14  C   UNL     1       1.395   8.965  17.739  0.00  0.00    +0.000 C 
BRANCH  14  23
ATOM     15  C   UNL     1      -0.242   9.447  23.042  0.00  0.00    +0.000 C 
ATOM     16  C   UNL     1      -0.103  10.649  22.148  0.00  0.00    +0.000 A 
ATOM     17  N   UNL     1      -0.368  11.828  22.642  0.00  0.00    +0.000 NA
ATOM     18  C   UNL     1      -0.232  12.928  21.815  0.00  0.00    +0.000 A 
ATOM     19  C   UNL     1       0.158  12.866  20.526  0.00  0.00    +0.000 A 
ATOM     20  C   UNL     1       0.297  14.078  19.666  0.00  0.00    +0.000 C 
ATOM     21  N   UNL     1       0.443  11.608  19.984  0.00  0.00    +0.000 N 
ATOM     22  N   UNL     1       0.853  11.234  18.733  0.00  0.00    +0.000 NA
ATOM     23  C   UNL     1       0.957   9.900  18.844  0.00  0.00    +0.000 A 
ATOM     24  N   UNL     1       0.631   9.404  20.095  0.00  0.00    +0.000 NA
ATOM     25  C   UNL     1       0.321  10.488  20.771  0.00  0.00    +0.000 A 
ENDBRANCH  14  23
ENDBRANCH   1  14
TORSDOF 3
ENDMDL
MODEL 8
REMARK VINA RESULT:      -7.7      7.119      9.739
REMARK  Name = 
REMARK  6 active torsions:
REMARK  status: ('A' for Active; 'I' for Inactive)
REMARK    1  A    between atoms: C_1  and  C_2
REMARK    2  A    between atoms: C_5  and  C_6
REMARK    3  A    between atoms: C_9  and  C_10
REMARK    4  A    between atoms: C_10  and  C_11
REMARK    5  A    between atoms: C_11  and  C_12
REMARK    6  A    between atoms: N_22  and  C_23
REMARK                            x       y       z     vdW  Elec       q    Type
REMARK                         _______ _______ _______ _____ _____    ______ ____
ROOT
ATOM      1  C   UNL     1       1.915   9.334  18.112  0.00  0.00    +0.000 C 
ENDROOT
BRANCH   1   2
ATOM      2  C   UNL     1       0.541   9.867  18.471  0.00  0.00    +0.000 A 
ATOM      3  N   UNL     1      -0.559   9.822  17.742  0.00  0.00    +0.000 NA
ATOM      4  C   UNL     1      -1.494  10.544  18.450  0.00  0.00    +0.000 A 
ATOM      5  N   UNL     1      -2.758  10.850  17.980  0.00  0.00    +0.000 N 
ATOM      6  C   UNL     1      -3.659  11.778  18.622  0.00  0.00    +0.000 C 
ATOM      7  C   UNL     1      -4.944  11.678  17.824  0.00  0.00    +0.000 C 
ATOM      8  C   UNL     1      -4.467  11.281  16.438  0.00  0.00    +0.000 C 
ATOM      9  C   UNL     1      -3.192  10.512  16.704  0.00  0.00    +0.000 C 
ATOM     10  O   UNL     1      -2.673   9.795  15.864  0.00  0.00    +0.000 OA
ATOM     11  N   UNL     1      -1.035  10.993  19.621  0.00  0.00    +0.000 NA
ATOM     12  N   UNL     1       0.236  10.545  19.626  0.00  0.00    +0.000 N 
ATOM     13  C   UNL     1       1.060  10.829  20.772  0.00  0.00    +0.000 C 
ENDBRANCH   1   2
BRANCH   1  14
ATOM     14  C   UNL     1       1.930   7.826  17.780  0.00  0.00    +0.000 C 
BRANCH  14  23
ATOM     15  C   UNL     1       4.473   3.136  19.382  0.00  0.00    +0.000 C 
ATOM     16  C   UNL     1       5.245   4.299  18.822  0.00  0.00    +0.000 A 
ATOM     17  N   UNL     1       6.541   4.190  18.708  0.00  0.00    +0.000 NA
ATOM     18  C   UNL     1       7.243   5.262  18.187  0.00  0.00    +0.000 A 
ATOM     19  C   UNL     1       6.677   6.419  17.787  0.00  0.00    +0.000 A 
ATOM     20  C   UNL     1       7.469   7.552  17.226  0.00  0.00    +0.000 C 
ATOM     21  N   UNL     1       5.289   6.549  17.907  0.00  0.00    +0.000 N 
ATOM     22  N   UNL     1       4.447   7.580  17.591  0.00  0.00    +0.000 NA
ATOM     23  C   UNL     1       3.243   7.092  17.933  0.00  0.00    +0.000 A 
ATOM     24  N   UNL     1       3.274   5.809  18.453  0.00  0.00    +0.000 NA
ATOM     25  C   UNL     1       4.553   5.507  18.420  0.00  0.00    +0.000 A 
ENDBRANCH  14  23
ENDBRANCH   1  14
TORSDOF 3
ENDMDL
MODEL 9
REMARK VINA RESULT:      -7.7      6.716     10.511
REMARK  Name = 
REMARK  6 active torsions:
REMARK  status: ('A' for Active; 'I' for Inactive)
REMARK    1  A    between atoms: C_1  and  C_2
REMARK    2  A    between atoms: C_5  and  C_6
REMARK    3  A    between atoms: C_9  and  C_10
REMARK    4  A    between atoms: C_10  and  C_11
REMARK    5  A    between atoms: C_11  and  C_12
REMARK    6  A    between atoms: N_22  and  C_23
REMARK                            x       y       z     vdW  Elec       q    Type
REMARK                         _______ _______ _______ _____ _____    ______ ____
ROOT
ATOM      1  C   UNL     1       1.112   8.516  21.189  0.00  0.00    +0.000 C 
ENDROOT
BRANCH   1   2
ATOM      2  C   UNL     1       0.807   9.999  21.097  0.00  0.00    +0.000 A 
ATOM      3  N   UNL     1       1.228  10.856  20.184  0.00  0.00    +0.000 NA
ATOM      4  C   UNL     1       0.784  12.088  20.611  0.00  0.00    +0.000 A 
ATOM      5  N   UNL     1       1.114  13.285  20.002  0.00  0.00    +0.000 N 
ATOM      6  C   UNL     1       0.828  14.584  20.563  0.00  0.00    +0.000 C 
ATOM      7  C   UNL     1       1.251  15.567  19.489  0.00  0.00    +0.000 C 
ATOM      8  C   UNL     1       2.355  14.828  18.753  0.00  0.00    +0.000 C 
ATOM      9  C   UNL     1       1.990  13.370  18.928  0.00  0.00    +0.000 C 
ATOM     10  O   UNL     1       2.479  12.487  18.243  0.00  0.00    +0.000 OA
ATOM     11  N   UNL     1       0.055  12.026  21.727  0.00  0.00    +0.000 NA
ATOM     12  N   UNL     1       0.064  10.709  22.009  0.00  0.00    +0.000 N 
ATOM     13  C   UNL     1      -0.656  10.248  23.167  0.00  0.00    +0.000 C 
ENDBRANCH   1   2
BRANCH   1  14
ATOM     14  C   UNL     1       1.633   7.904  19.871  0.00  0.00    +0.000 C 
BRANCH  14  23
ATOM     15  C   UNL     1       5.930   4.669  18.422  0.00  0.00    +0.000 C 
ATOM     16  C   UNL     1       4.788   4.140  19.245  0.00  0.00    +0.000 A 
ATOM     17  N   UNL     1       4.821   2.893  19.629  0.00  0.00    +0.000 NA
ATOM     18  C   UNL     1       3.770   2.416  20.390  0.00  0.00    +0.000 A 
ATOM     19  C   UNL     1       2.707   3.154  20.766  0.00  0.00    +0.000 A 
ATOM     20  C   UNL     1       1.593   2.604  21.593  0.00  0.00    +0.000 C 
ATOM     21  N   UNL     1       2.658   4.492  20.359  0.00  0.00    +0.000 N 
ATOM     22  N   UNL     1       1.728   5.472  20.580  0.00  0.00    +0.000 NA
ATOM     23  C   UNL     1       2.255   6.528  19.939  0.00  0.00    +0.000 A 
ATOM     24  N   UNL     1       3.466   6.273  19.318  0.00  0.00    +0.000 NA
ATOM     25  C   UNL     1       3.683   5.007  19.601  0.00  0.00    +0.000 A 
ENDBRANCH  14  23
ENDBRANCH   1  14
TORSDOF 3
ENDMDL
