MODEL 1
REMARK VINA RESULT:      -8.3      0.000      0.000
REMARK  Name = 
REMARK  3 active torsions:
REMARK  status: ('A' for Active; 'I' for Inactive)
REMARK    1  A    between atoms: N_3  and  C_4
REMARK    2  A    between atoms: N_15  and  C_16
REMARK    3  A    between atoms: C_16  and  C_17
REMARK                            x       y       z     vdW  Elec       q    Type
REMARK                         _______ _______ _______ _____ _____    ______ ____
ROOT
ATOM      1  O   UNL     1       1.823   7.452  19.722  0.00  0.00    +0.000 OA
ATOM      2  C   UNL     1       2.378   7.751  18.667  0.00  0.00    +0.000 C 
ATOM      3  N   UNL     1       2.025   8.853  17.914  0.00  0.00    +0.000 N 
ATOM      4  N   UNL     1       3.362   6.954  18.107  0.00  0.00    +0.000 N 
ATOM      5  C   UNL     1       4.273   7.310  17.015  0.00  0.00    +0.000 C 
ATOM      6  C   UNL     1       5.739   6.893  17.314  0.00  0.00    +0.000 C 
ATOM      7  N   UNL     1       5.935   5.526  17.860  0.00  0.00    +0.000 NA
ATOM      8  C   UNL     1       4.997   5.333  18.991  0.00  0.00    +0.000 C 
ATOM      9  C   UNL     1       3.530   5.600  18.638  0.00  0.00    +0.000 C 
ATOM     10  H   UNL     1       2.097   8.687  16.921  0.00  0.00    +0.000 HD
ENDROOT
BRANCH   3  11
ATOM     11  C   UNL     1       0.981   9.715  18.323  0.00  0.00    +0.000 A 
ATOM     12  C   UNL     1       1.197  10.765  19.221  0.00  0.00    +0.000 A 
ATOM     13  C   UNL     1       0.125  11.557  19.637  0.00  0.00    +0.000 A 
ATOM     14 CL   UNL     1       0.393  12.863  20.724  0.00  0.00    +0.000 Cl
ATOM     15  C   UNL     1      -1.166  11.297  19.182  0.00  0.00    +0.000 A 
ATOM     16  C   UNL     1      -1.371  10.256  18.280  0.00  0.00    +0.000 A 
ATOM     17 CL   UNL     1      -2.966   9.893  17.745  0.00  0.00    +0.000 Cl
ATOM     18  C   UNL     1      -0.302   9.483  17.825  0.00  0.00    +0.000 A 
ENDBRANCH   3  11
BRANCH   7  19
ATOM     19  C   UNL     1       5.784   4.508  16.800  0.00  0.00    +0.000 C 
BRANCH  19  20
ATOM     20  C   UNL     1       6.523   4.793  15.531  0.00  0.00    +0.000 A 
ATOM     21  N   UNL     1       7.583   5.574  15.442  0.00  0.00    +0.000 NA
ATOM     22  N   UNL     1       8.037   5.543  14.155  0.00  0.00    +0.000 NA
ATOM     23  C   UNL     1       7.251   4.747  13.459  0.00  0.00    +0.000 A 
ATOM     24  N   UNL     1       6.253   4.280  14.281  0.00  0.00    +0.000 N 
ATOM     25  C   UNL     1       5.151   3.407  13.930  0.00  0.00    +0.000 C 
ATOM     26  C   UNL     1       4.650   3.548  12.494  0.00  0.00    +0.000 C 
ATOM     27  C   UNL     1       5.522   2.836  11.461  0.00  0.00    +0.000 C 
ATOM     28  C   UNL     1       7.029   3.002  11.649  0.00  0.00    +0.000 C 
ATOM     29  C   UNL     1       7.436   4.425  12.014  0.00  0.00    +0.000 C 
ENDBRANCH  19  20
ENDBRANCH   7  19
TORSDOF 3
ENDMDL
MODEL 2
REMARK VINA RESULT:      -8.2      0.184      1.709
REMARK  Name = 
REMARK  3 active torsions:
REMARK  status: ('A' for Active; 'I' for Inactive)
REMARK    1  A    between atoms: N_3  and  C_4
REMARK    2  A    between atoms: N_15  and  C_16
REMARK    3  A    between atoms: C_16  and  C_17
REMARK                            x       y       z     vdW  Elec       q    Type
REMARK                         _______ _______ _______ _____ _____    ______ ____
ROOT
ATOM      1  O   UNL     1       1.860   7.564  19.699  0.00  0.00    +0.000 OA
ATOM      2  C   UNL     1       2.377   7.839  18.618  0.00  0.00    +0.000 C 
ATOM      3  N   UNL     1       1.976   8.906  17.840  0.00  0.00    +0.000 N 
ATOM      4  N   UNL     1       3.362   7.045  18.057  0.00  0.00    +0.000 N 
ATOM      5  C   UNL     1       4.233   7.385  16.927  0.00  0.00    +0.000 C 
ATOM      6  C   UNL     1       5.716   7.011  17.196  0.00  0.00    +0.000 C 
ATOM      7  N   UNL     1       5.960   5.668  17.781  0.00  0.00    +0.000 NA
ATOM      8  C   UNL     1       5.060   5.493  18.946  0.00  0.00    +0.000 C 
ATOM      9  C   UNL     1       3.578   5.715  18.627  0.00  0.00    +0.000 C 
ATOM     10  H   UNL     1       2.024   8.708  16.852  0.00  0.00    +0.000 HD
ENDROOT
BRANCH   3  11
ATOM     11  C   UNL     1       0.925   9.758  18.251  0.00  0.00    +0.000 A 
ATOM     12  C   UNL     1      -0.398   9.548  17.848  0.00  0.00    +0.000 A 
ATOM     13  C   UNL     1      -1.394  10.446  18.236  0.00  0.00    +0.000 A 
ATOM     14 CL   UNL     1      -3.026  10.178  17.759  0.00  0.00    +0.000 Cl
ATOM     15  C   UNL     1      -1.080  11.564  19.005  0.00  0.00    +0.000 A 
ATOM     16  C   UNL     1       0.238  11.760  19.411  0.00  0.00    +0.000 A 
ATOM     17 CL   UNL     1       0.651  13.160  20.323  0.00  0.00    +0.000 Cl
ATOM     18  C   UNL     1       1.235  10.848  19.065  0.00  0.00    +0.000 A 
ENDBRANCH   3  11
BRANCH   7  19
ATOM     19  C   UNL     1       5.802   4.611  16.762  0.00  0.00    +0.000 C 
BRANCH  19  20
ATOM     20  C   UNL     1       6.534   4.848  15.478  0.00  0.00    +0.000 A 
ATOM     21  N   UNL     1       7.595   5.623  15.355  0.00  0.00    +0.000 NA
ATOM     22  N   UNL     1       8.042   5.543  14.067  0.00  0.00    +0.000 NA
ATOM     23  C   UNL     1       7.251   4.723  13.405  0.00  0.00    +0.000 A 
ATOM     24  N   UNL     1       6.257   4.290  14.250  0.00  0.00    +0.000 N 
ATOM     25  C   UNL     1       5.151   3.406  13.937  0.00  0.00    +0.000 C 
ATOM     26  C   UNL     1       4.642   3.494  12.501  0.00  0.00    +0.000 C 
ATOM     27  C   UNL     1       5.508   2.743  11.489  0.00  0.00    +0.000 C 
ATOM     28  C   UNL     1       7.016   2.913  11.663  0.00  0.00    +0.000 C 
ATOM     29  C   UNL     1       7.428   4.348  11.973  0.00  0.00    +0.000 C 
ENDBRANCH  19  20
ENDBRANCH   7  19
TORSDOF 3
ENDMDL
MODEL 3
REMARK VINA RESULT:      -8.2      3.094      4.445
REMARK  Name = 
REMARK  3 active torsions:
REMARK  status: ('A' for Active; 'I' for Inactive)
REMARK    1  A    between atoms: N_3  and  C_4
REMARK    2  A    between atoms: N_15  and  C_16
REMARK    3  A    between atoms: C_16  and  C_17
REMARK                            x       y       z     vdW  Elec       q    Type
REMARK                         _______ _______ _______ _____ _____    ______ ____
ROOT
ATOM      1  O   UNL     1       1.292   8.927  18.957  0.00  0.00    +0.000 OA
ATOM      2  C   UNL     1       1.385   8.198  19.942  0.00  0.00    +0.000 C 
ATOM      3  N   UNL     1       1.060   8.608  21.219  0.00  0.00    +0.000 N 
ATOM      4  N   UNL     1       1.902   6.916  19.856  0.00  0.00    +0.000 N 
ATOM      5  C   UNL     1       1.833   5.865  20.877  0.00  0.00    +0.000 C 
ATOM      6  C   UNL     1       1.433   4.490  20.275  0.00  0.00    +0.000 C 
ATOM      7  N   UNL     1       2.128   4.091  19.026  0.00  0.00    +0.000 NA
ATOM      8  C   UNL     1       2.063   5.223  18.070  0.00  0.00    +0.000 C 
ATOM      9  C   UNL     1       2.606   6.543  18.629  0.00  0.00    +0.000 C 
ATOM     10  H   UNL     1       1.665   8.213  21.923  0.00  0.00    +0.000 HD
ENDROOT
BRANCH   3  11
ATOM     11  C   UNL     1       0.593   9.920  21.469  0.00  0.00    +0.000 A 
ATOM     12  C   UNL     1      -0.540  10.166  22.252  0.00  0.00    +0.000 A 
ATOM     13  C   UNL     1      -0.993  11.475  22.426  0.00  0.00    +0.000 A 
ATOM     14 CL   UNL     1      -2.374  11.782  23.406  0.00  0.00    +0.000 Cl
ATOM     15  C   UNL     1      -0.339  12.539  21.811  0.00  0.00    +0.000 A 
ATOM     16  C   UNL     1       0.794  12.286  21.043  0.00  0.00    +0.000 A 
ATOM     17 CL   UNL     1       1.587  13.586  20.238  0.00  0.00    +0.000 Cl
ATOM     18  C   UNL     1       1.282  10.988  20.893  0.00  0.00    +0.000 A 
ENDBRANCH   3  11
BRANCH   7  19
ATOM     19  C   UNL     1       3.509   3.649  19.307  0.00  0.00    +0.000 C 
BRANCH  19  20
ATOM     20  C   UNL     1       4.491   3.877  18.200  0.00  0.00    +0.000 A 
ATOM     21  N   UNL     1       4.418   3.313  17.009  0.00  0.00    +0.000 NA
ATOM     22  N   UNL     1       5.429   3.805  16.235  0.00  0.00    +0.000 NA
ATOM     23  C   UNL     1       6.120   4.665  16.956  0.00  0.00    +0.000 A 
ATOM     24  N   UNL     1       5.585   4.712  18.221  0.00  0.00    +0.000 N 
ATOM     25  C   UNL     1       6.049   5.495  19.350  0.00  0.00    +0.000 C 
ATOM     26  C   UNL     1       7.555   5.742  19.387  0.00  0.00    +0.000 C 
ATOM     27  C   UNL     1       8.024   6.851  18.447  0.00  0.00    +0.000 C 
ATOM     28  C   UNL     1       7.395   6.840  17.054  0.00  0.00    +0.000 C 
ATOM     29  C   UNL     1       7.289   5.443  16.454  0.00  0.00    +0.000 C 
ENDBRANCH  19  20
ENDBRANCH   7  19
TORSDOF 3
ENDMDL
MODEL 4
REMARK VINA RESULT:      -8.2      3.087      4.336
REMARK  Name = 
REMARK  3 active torsions:
REMARK  status: ('A' for Active; 'I' for Inactive)
REMARK    1  A    between atoms: N_3  and  C_4
REMARK    2  A    between atoms: N_15  and  C_16
REMARK    3  A    between atoms: C_16  and  C_17
REMARK                            x       y       z     vdW  Elec       q    Type
REMARK                         _______ _______ _______ _____ _____    ______ ____
ROOT
ATOM      1  O   UNL     1       1.290   8.975  18.825  0.00  0.00    +0.000 OA
ATOM      2  C   UNL     1       1.383   8.283  19.836  0.00  0.00    +0.000 C 
ATOM      3  N   UNL     1       1.066   8.743  21.098  0.00  0.00    +0.000 N 
ATOM      4  N   UNL     1       1.891   6.995  19.795  0.00  0.00    +0.000 N 
ATOM      5  C   UNL     1       1.819   5.983  20.854  0.00  0.00    +0.000 C 
ATOM      6  C   UNL     1       1.407   4.589  20.306  0.00  0.00    +0.000 C 
ATOM      7  N   UNL     1       2.093   4.140  19.069  0.00  0.00    +0.000 NA
ATOM      8  C   UNL     1       2.031   5.236  18.073  0.00  0.00    +0.000 C 
ATOM      9  C   UNL     1       2.586   6.571  18.579  0.00  0.00    +0.000 C 
ATOM     10  H   UNL     1       1.673   8.370  21.813  0.00  0.00    +0.000 HD
ENDROOT
BRANCH   3  11
ATOM     11  C   UNL     1       0.610  10.066  21.301  0.00  0.00    +0.000 A 
ATOM     12  C   UNL     1       1.297  11.172  20.790  0.00  0.00    +0.000 A 
ATOM     13  C   UNL     1       0.836  12.462  21.062  0.00  0.00    +0.000 A 
ATOM     14 CL   UNL     1       1.667  13.824  20.416  0.00  0.00    +0.000 Cl
ATOM     15  C   UNL     1      -0.290  12.660  21.856  0.00  0.00    +0.000 A 
ATOM     16  C   UNL     1      -0.973  11.553  22.352  0.00  0.00    +0.000 A 
ATOM     17 CL   UNL     1      -2.340  11.782  23.374  0.00  0.00    +0.000 Cl
ATOM     18  C   UNL     1      -0.549  10.258  22.055  0.00  0.00    +0.000 A 
ENDBRANCH   3  11
BRANCH   7  19
ATOM     19  C   UNL     1       3.473   3.699  19.361  0.00  0.00    +0.000 C 
BRANCH  19  20
ATOM     20  C   UNL     1       4.454   3.895  18.248  0.00  0.00    +0.000 A 
ATOM     21  N   UNL     1       4.372   3.310  17.067  0.00  0.00    +0.000 NA
ATOM     22  N   UNL     1       5.387   3.776  16.282  0.00  0.00    +0.000 NA
ATOM     23  C   UNL     1       6.090   4.640  16.986  0.00  0.00    +0.000 A 
ATOM     24  N   UNL     1       5.559   4.717  18.251  0.00  0.00    +0.000 N 
ATOM     25  C   UNL     1       6.034   5.514  19.365  0.00  0.00    +0.000 C 
ATOM     26  C   UNL     1       7.543   5.744  19.395  0.00  0.00    +0.000 C 
ATOM     27  C   UNL     1       8.023   6.830  18.433  0.00  0.00    +0.000 C 
ATOM     28  C   UNL     1       7.392   6.801  17.042  0.00  0.00    +0.000 C 
ATOM     29  C   UNL     1       7.267   5.395  16.468  0.00  0.00    +0.000 C 
ENDBRANCH  19  20
ENDBRANCH   7  19
TORSDOF 3
ENDMDL
MODEL 5
REMARK VINA RESULT:      -8.1      4.350      9.826
REMARK  Name = 
REMARK  3 active torsions:
REMARK  status: ('A' for Active; 'I' for Inactive)
REMARK    1  A    between atoms: N_3  and  C_4
REMARK    2  A    between atoms: N_15  and  C_16
REMARK    3  A    between atoms: C_16  and  C_17
REMARK                            x       y       z     vdW  Elec       q    Type
REMARK                         _______ _______ _______ _____ _____    ______ ____
ROOT
ATOM      1  O   UNL     1       2.089   6.301  20.473  0.00  0.00    +0.000 OA
ATOM      2  C   UNL     1       2.021   7.253  19.698  0.00  0.00    +0.000 C 
ATOM      3  N   UNL     1       2.550   7.229  18.424  0.00  0.00    +0.000 N 
ATOM      4  N   UNL     1       1.468   8.464  20.077  0.00  0.00    +0.000 N 
ATOM      5  C   UNL     1       1.091   9.577  19.199  0.00  0.00    +0.000 C 
ATOM      6  C   UNL     1      -0.307  10.155  19.551  0.00  0.00    +0.000 C 
ATOM      7  N   UNL     1      -0.578  10.388  20.992  0.00  0.00    +0.000 NA
ATOM      8  C   UNL     1      -0.212   9.163  21.743  0.00  0.00    +0.000 C 
ATOM      9  C   UNL     1       1.226   8.691  21.502  0.00  0.00    +0.000 C 
ATOM     10  H   UNL     1       2.935   8.119  18.144  0.00  0.00    +0.000 HD
ENDROOT
BRANCH   3  11
ATOM     11  C   UNL     1       3.216   6.083  17.930  0.00  0.00    +0.000 A 
ATOM     12  C   UNL     1       2.614   4.821  17.925  0.00  0.00    +0.000 A 
ATOM     13  C   UNL     1       3.330   3.710  17.477  0.00  0.00    +0.000 A 
ATOM     14 CL   UNL     1       2.583   2.160  17.450  0.00  0.00    +0.000 Cl
ATOM     15  C   UNL     1       4.650   3.843  17.052  0.00  0.00    +0.000 A 
ATOM     16  C   UNL     1       5.239   5.104  17.050  0.00  0.00    +0.000 A 
ATOM     17 CL   UNL     1       6.884   5.277  16.572  0.00  0.00    +0.000 Cl
ATOM     18  C   UNL     1       4.521   6.229  17.457  0.00  0.00    +0.000 A 
ENDBRANCH   3  11
BRANCH   7  19
ATOM     19  C   UNL     1       0.124  11.595  21.473  0.00  0.00    +0.000 C 
BRANCH  19  20
ATOM     20  C   UNL     1      -0.151  12.845  20.698  0.00  0.00    +0.000 A 
ATOM     21  N   UNL     1      -1.300  13.495  20.711  0.00  0.00    +0.000 NA
ATOM     22  N   UNL     1      -1.168  14.623  19.953  0.00  0.00    +0.000 NA
ATOM     23  C   UNL     1       0.059  14.658  19.475  0.00  0.00    +0.000 A 
ATOM     24  N   UNL     1       0.728  13.530  19.889  0.00  0.00    +0.000 N 
ATOM     25  C   UNL     1       2.087  13.139  19.570  0.00  0.00    +0.000 C 
ATOM     26  C   UNL     1       2.583  13.592  18.200  0.00  0.00    +0.000 C 
ATOM     27  C   UNL     1       3.011  15.058  18.150  0.00  0.00    +0.000 C 
ATOM     28  C   UNL     1       2.084  16.036  18.868  0.00  0.00    +0.000 C 
ATOM     29  C   UNL     1       0.606  15.754  18.624  0.00  0.00    +0.000 C 
ENDBRANCH  19  20
ENDBRANCH   7  19
TORSDOF 3
ENDMDL
MODEL 6
REMARK VINA RESULT:      -8.0      4.302      9.701
REMARK  Name = 
REMARK  3 active torsions:
REMARK  status: ('A' for Active; 'I' for Inactive)
REMARK    1  A    between atoms: N_3  and  C_4
REMARK    2  A    between atoms: N_15  and  C_16
REMARK    3  A    between atoms: C_16  and  C_17
REMARK                            x       y       z     vdW  Elec       q    Type
REMARK                         _______ _______ _______ _____ _____    ______ ____
ROOT
ATOM      1  O   UNL     1       2.226   6.179  20.450  0.00  0.00    +0.000 OA
ATOM      2  C   UNL     1       2.168   7.139  19.684  0.00  0.00    +0.000 C 
ATOM      3  N   UNL     1       2.732   7.136  18.424  0.00  0.00    +0.000 N 
ATOM      4  N   UNL     1       1.590   8.339  20.060  0.00  0.00    +0.000 N 
ATOM      5  C   UNL     1       1.224   9.457  19.184  0.00  0.00    +0.000 C 
ATOM      6  C   UNL     1      -0.190  10.015  19.503  0.00  0.00    +0.000 C 
ATOM      7  N   UNL     1      -0.504  10.228  20.938  0.00  0.00    +0.000 NA
ATOM      8  C   UNL     1      -0.143   9.000  21.686  0.00  0.00    +0.000 C 
ATOM      9  C   UNL     1       1.306   8.548  21.481  0.00  0.00    +0.000 C 
ATOM     10  H   UNL     1       3.114   8.033  18.165  0.00  0.00    +0.000 HD
ENDROOT
BRANCH   3  11
ATOM     11  C   UNL     1       3.426   6.003  17.936  0.00  0.00    +0.000 A 
ATOM     12  C   UNL     1       4.701   6.104  17.370  0.00  0.00    +0.000 A 
ATOM     13  C   UNL     1       5.324   4.966  16.854  0.00  0.00    +0.000 A 
ATOM     14 CL   UNL     1       6.901   5.083  16.176  0.00  0.00    +0.000 Cl
ATOM     15  C   UNL     1       4.678   3.732  16.878  0.00  0.00    +0.000 A 
ATOM     16  C   UNL     1       3.413   3.639  17.453  0.00  0.00    +0.000 A 
ATOM     17 CL   UNL     1       2.583   2.131  17.450  0.00  0.00    +0.000 Cl
ATOM     18  C   UNL     1       2.797   4.760  18.009  0.00  0.00    +0.000 A 
ENDBRANCH   3  11
BRANCH   7  19
ATOM     19  C   UNL     1       0.170  11.438  21.452  0.00  0.00    +0.000 C 
BRANCH  19  20
ATOM     20  C   UNL     1      -0.125  12.700  20.703  0.00  0.00    +0.000 A 
ATOM     21  N   UNL     1      -1.281  13.336  20.737  0.00  0.00    +0.000 NA
ATOM     22  N   UNL     1      -1.167  14.480  20.000  0.00  0.00    +0.000 NA
ATOM     23  C   UNL     1       0.056  14.537  19.514  0.00  0.00    +0.000 A 
ATOM     24  N   UNL     1       0.740  13.410  19.901  0.00  0.00    +0.000 N 
ATOM     25  C   UNL     1       2.101  13.040  19.565  0.00  0.00    +0.000 C 
ATOM     26  C   UNL     1       2.582  13.525  18.200  0.00  0.00    +0.000 C 
ATOM     27  C   UNL     1       2.993  14.996  18.175  0.00  0.00    +0.000 C 
ATOM     28  C   UNL     1       2.060  15.951  18.918  0.00  0.00    +0.000 C 
ATOM     29  C   UNL     1       0.584  15.656  18.680  0.00  0.00    +0.000 C 
ENDBRANCH  19  20
ENDBRANCH   7  19
TORSDOF 3
ENDMDL
MODEL 7
REMARK VINA RESULT:      -8.0      1.110      1.638
REMARK  Name = 
REMARK  3 active torsions:
REMARK  status: ('A' for Active; 'I' for Inactive)
REMARK    1  A    between atoms: N_3  and  C_4
REMARK    2  A    between atoms: N_15  and  C_16
REMARK    3  A    between atoms: C_16  and  C_17
REMARK                            x       y       z     vdW  Elec       q    Type
REMARK                         _______ _______ _______ _____ _____    ______ ____
ROOT
ATOM      1  O   UNL     1       2.011   6.916  20.298  0.00  0.00    +0.000 OA
ATOM      2  C   UNL     1       2.447   7.326  19.224  0.00  0.00    +0.000 C 
ATOM      3  N   UNL     1       1.983   8.470  18.607  0.00  0.00    +0.000 N 
ATOM      4  N   UNL     1       3.397   6.621  18.505  0.00  0.00    +0.000 N 
ATOM      5  C   UNL     1       4.182   7.106  17.364  0.00  0.00    +0.000 C 
ATOM      6  C   UNL     1       5.684   6.729  17.483  0.00  0.00    +0.000 C 
ATOM      7  N   UNL     1       5.981   5.331  17.886  0.00  0.00    +0.000 NA
ATOM      8  C   UNL     1       5.168   5.004  19.082  0.00  0.00    +0.000 C 
ATOM      9  C   UNL     1       3.665   5.236  18.897  0.00  0.00    +0.000 C 
ATOM     10  H   UNL     1       1.961   8.391  17.602  0.00  0.00    +0.000 HD
ENDROOT
BRANCH   3  11
ATOM     11  C   UNL     1       0.955   9.249  19.189  0.00  0.00    +0.000 A 
ATOM     12  C   UNL     1       0.131  10.078  18.422  0.00  0.00    +0.000 A 
ATOM     13  C   UNL     1      -0.835  10.869  19.048  0.00  0.00    +0.000 A 
ATOM     14 CL   UNL     1      -1.866  11.873  18.104  0.00  0.00    +0.000 Cl
ATOM     15  C   UNL     1      -0.972  10.856  20.434  0.00  0.00    +0.000 A 
ATOM     16  C   UNL     1      -0.154  10.020  21.189  0.00  0.00    +0.000 A 
ATOM     17 CL   UNL     1      -0.280  10.027  22.906  0.00  0.00    +0.000 Cl
ATOM     18  C   UNL     1       0.787   9.195  20.573  0.00  0.00    +0.000 A 
ENDBRANCH   3  11
BRANCH   7  19
ATOM     19  C   UNL     1       5.760   4.399  16.762  0.00  0.00    +0.000 C 
BRANCH  19  20
ATOM     20  C   UNL     1       6.510   4.722  15.508  0.00  0.00    +0.000 A 
ATOM     21  N   UNL     1       7.568   5.510  15.452  0.00  0.00    +0.000 NA
ATOM     22  N   UNL     1       8.034   5.516  14.168  0.00  0.00    +0.000 NA
ATOM     23  C   UNL     1       7.258   4.737  13.443  0.00  0.00    +0.000 A 
ATOM     24  N   UNL     1       6.254   4.244  14.242  0.00  0.00    +0.000 N 
ATOM     25  C   UNL     1       5.159   3.377  13.855  0.00  0.00    +0.000 C 
ATOM     26  C   UNL     1       4.671   3.557  12.420  0.00  0.00    +0.000 C 
ATOM     27  C   UNL     1       5.556   2.877  11.376  0.00  0.00    +0.000 C 
ATOM     28  C   UNL     1       7.060   3.043  11.583  0.00  0.00    +0.000 C 
ATOM     29  C   UNL     1       7.459   4.456  11.992  0.00  0.00    +0.000 C 
ENDBRANCH  19  20
ENDBRANCH   7  19
TORSDOF 3
ENDMDL
MODEL 8
REMARK VINA RESULT:      -7.9      1.318      1.355
REMARK  Name = 
REMARK  3 active torsions:
REMARK  status: ('A' for Active; 'I' for Inactive)
REMARK    1  A    between atoms: N_3  and  C_4
REMARK    2  A    between atoms: N_15  and  C_16
REMARK    3  A    between atoms: C_16  and  C_17
REMARK                            x       y       z     vdW  Elec       q    Type
REMARK                         _______ _______ _______ _____ _____    ______ ____
ROOT
ATOM      1  O   UNL     1       1.854   6.773  20.458  0.00  0.00    +0.000 OA
ATOM      2  C   UNL     1       2.308   7.271  19.430  0.00  0.00    +0.000 C 
ATOM      3  N   UNL     1       1.938   8.518  18.967  0.00  0.00    +0.000 N 
ATOM      4  N   UNL     1       3.179   6.578  18.606  0.00  0.00    +0.000 N 
ATOM      5  C   UNL     1       3.985   7.127  17.512  0.00  0.00    +0.000 C 
ATOM      6  C   UNL     1       5.449   6.609  17.544  0.00  0.00    +0.000 C 
ATOM      7  N   UNL     1       5.626   5.152  17.770  0.00  0.00    +0.000 NA
ATOM      8  C   UNL     1       4.806   4.755  18.939  0.00  0.00    +0.000 C 
ATOM      9  C   UNL     1       3.327   5.138  18.823  0.00  0.00    +0.000 C 
ATOM     10  H   UNL     1       1.894   8.563  17.960  0.00  0.00    +0.000 HD
ENDROOT
BRANCH   3  11
ATOM     11  C   UNL     1       0.995   9.307  19.665  0.00  0.00    +0.000 A 
ATOM     12  C   UNL     1       0.827   9.208  21.050  0.00  0.00    +0.000 A 
ATOM     13  C   UNL     1      -0.154   9.970  21.687  0.00  0.00    +0.000 A 
ATOM     14 CL   UNL     1      -0.347   9.867  23.394  0.00  0.00    +0.000 Cl
ATOM     15  C   UNL     1      -0.984  10.813  20.953  0.00  0.00    +0.000 A 
ATOM     16  C   UNL     1      -0.804  10.913  19.576  0.00  0.00    +0.000 A 
ATOM     17 CL   UNL     1      -1.852  11.916  18.649  0.00  0.00    +0.000 Cl
ATOM     18  C   UNL     1       0.199  10.189  18.932  0.00  0.00    +0.000 A 
ENDBRANCH   3  11
BRANCH   7  19
ATOM     19  C   UNL     1       5.304   4.386  16.549  0.00  0.00    +0.000 C 
BRANCH  19  20
ATOM     20  C   UNL     1       6.181   4.667  15.369  0.00  0.00    +0.000 A 
ATOM     21  N   UNL     1       7.257   5.431  15.402  0.00  0.00    +0.000 NA
ATOM     22  N   UNL     1       7.847   5.400  14.172  0.00  0.00    +0.000 NA
ATOM     23  C   UNL     1       7.129   4.623  13.388  0.00  0.00    +0.000 A 
ATOM     24  N   UNL     1       6.040   4.167  14.093  0.00  0.00    +0.000 N 
ATOM     25  C   UNL     1       4.969   3.315  13.617  0.00  0.00    +0.000 C 
ATOM     26  C   UNL     1       4.630   3.474  12.137  0.00  0.00    +0.000 C 
ATOM     27  C   UNL     1       5.597   2.754  11.198  0.00  0.00    +0.000 C 
ATOM     28  C   UNL     1       7.078   2.894  11.550  0.00  0.00    +0.000 C 
ATOM     29  C   UNL     1       7.465   4.307  11.970  0.00  0.00    +0.000 C 
ENDBRANCH  19  20
ENDBRANCH   7  19
TORSDOF 3
ENDMDL
MODEL 9
REMARK VINA RESULT:      -7.9      4.384     10.894
REMARK  Name = 
REMARK  3 active torsions:
REMARK  status: ('A' for Active; 'I' for Inactive)
REMARK    1  A    between atoms: N_3  and  C_4
REMARK    2  A    between atoms: N_15  and  C_16
REMARK    3  A    between atoms: C_16  and  C_17
REMARK                            x       y       z     vdW  Elec       q    Type
REMARK                         _______ _______ _______ _____ _____    ______ ____
ROOT
ATOM      1  O   UNL     1       2.157   6.966  20.263  0.00  0.00    +0.000 OA
ATOM      2  C   UNL     1       2.056   7.641  19.240  0.00  0.00    +0.000 C 
ATOM      3  N   UNL     1       2.626   7.279  18.036  0.00  0.00    +0.000 N 
ATOM      4  N   UNL     1       1.417   8.869  19.237  0.00  0.00    +0.000 N 
ATOM      5  C   UNL     1       1.001   9.645  18.064  0.00  0.00    +0.000 C 
ATOM      6  C   UNL     1      -0.441  10.205  18.212  0.00  0.00    +0.000 C 
ATOM      7  N   UNL     1      -0.772  10.832  19.516  0.00  0.00    +0.000 NA
ATOM      8  C   UNL     1      -0.355   9.911  20.600  0.00  0.00    +0.000 C 
ATOM      9  C   UNL     1       1.116   9.488  20.528  0.00  0.00    +0.000 C 
ATOM     10  H   UNL     1       2.964   8.071  17.511  0.00  0.00    +0.000 HD
ENDROOT
BRANCH   3  11
ATOM     11  C   UNL     1       3.377   6.087  17.912  0.00  0.00    +0.000 A 
ATOM     12  C   UNL     1       4.771   6.099  17.803  0.00  0.00    +0.000 A 
ATOM     13  C   UNL     1       5.465   4.900  17.629  0.00  0.00    +0.000 A 
ATOM     14 CL   UNL     1       7.182   4.910  17.517  0.00  0.00    +0.000 Cl
ATOM     15  C   UNL     1       4.779   3.691  17.539  0.00  0.00    +0.000 A 
ATOM     16  C   UNL     1       3.392   3.687  17.659  0.00  0.00    +0.000 A 
ATOM     17 CL   UNL     1       2.527   2.207  17.505  0.00  0.00    +0.000 Cl
ATOM     18  C   UNL     1       2.690   4.873  17.874  0.00  0.00    +0.000 A 
ENDBRANCH   3  11
BRANCH   7  19
ATOM     19  C   UNL     1      -0.161  12.172  19.628  0.00  0.00    +0.000 C 
BRANCH  19  20
ATOM     20  C   UNL     1      -0.378  12.866  20.937  0.00  0.00    +0.000 A 
ATOM     21  N   UNL     1       0.589  13.260  21.743  0.00  0.00    +0.000 NA
ATOM     22  N   UNL     1       0.030  13.918  22.800  0.00  0.00    +0.000 NA
ATOM     23  C   UNL     1      -1.278  13.920  22.640  0.00  0.00    +0.000 A 
ATOM     24  N   UNL     1      -1.585  13.229  21.492  0.00  0.00    +0.000 N 
ATOM     25  C   UNL     1      -2.900  12.953  20.950  0.00  0.00    +0.000 C 
ATOM     26  C   UNL     1      -4.006  12.796  21.990  0.00  0.00    +0.000 C 
ATOM     27  C   UNL     1      -4.531  14.121  22.541  0.00  0.00    +0.000 C 
ATOM     28  C   UNL     1      -3.462  15.162  22.871  0.00  0.00    +0.000 C 
ATOM     29  C   UNL     1      -2.244  14.572  23.571  0.00  0.00    +0.000 C 
ENDBRANCH  19  20
ENDBRANCH   7  19
TORSDOF 3
ENDMDL
