MODEL 1
REMARK VINA RESULT:      -5.5      0.000      0.000
REMARK  Name = 
REMARK  15 active torsions:
REMARK  status: ('A' for Active; 'I' for Inactive)
REMARK    1  A    between atoms: C_1  and  O_2
REMARK    2  A    between atoms: O_2  and  C_3
REMARK    3  A    between atoms: C_3  and  C_4
REMARK    4  A    between atoms: C_4  and  N_5
REMARK    5  A    between atoms: N_5  and  C_6
REMARK    6  A    between atoms: C_6  and  C_7
REMARK    7  A    between atoms: C_7  and  O_8
REMARK    8  A    between atoms: O_8  and  C_9
REMARK    9  A    between atoms: C_12  and  C_13
REMARK   10  A    between atoms: C_16  and  C_17
REMARK   11  A    between atoms: C_18  and  C_19
REMARK   12  A    between atoms: N_22  and  C_23
REMARK   13  A    between atoms: N_22  and  C_24
REMARK   14  A    between atoms: C_26  and  C_27
REMARK   15  A    between atoms: C_28  and  C_29
REMARK                            x       y       z     vdW  Elec       q    Type
REMARK                         _______ _______ _______ _____ _____    ______ ____
ROOT
ATOM      1  N   UNL     1      -0.238  16.044  20.093  0.00  0.00    +0.000 N 
ATOM      2  C   UNL     1       0.513  14.883  20.367  0.00  0.00    +0.000 A 
ATOM      3  N   UNL     1       1.729  14.993  20.830  0.00  0.00    +0.000 NA
ATOM      4  C   UNL     1       2.465  13.868  21.086  0.00  0.00    +0.000 A 
ATOM      5  C   UNL     1       3.915  14.100  21.416  0.00  0.00    +0.000 C 
ATOM      6  N   UNL     1       2.033  12.652  21.021  0.00  0.00    +0.000 NA
ATOM      7  C   UNL     1       0.794  12.468  20.495  0.00  0.00    +0.000 A 
ATOM      8  C   UNL     1       0.110  11.345  20.059  0.00  0.00    +0.000 A 
ATOM      9  C   UNL     1      -1.146  11.876  19.605  0.00  0.00    +0.000 A 
ATOM     10  C   UNL     1      -2.352  11.165  19.100  0.00  0.00    +0.000 C 
ATOM     11  N   UNL     1      -1.188  13.212  19.683  0.00  0.00    +0.000 NA
ATOM     12  N   UNL     1       0.019  13.560  20.174  0.00  0.00    +0.000 N 
ENDROOT
BRANCH   8  13
ATOM     13  C   UNL     1       0.666   9.984  20.114  0.00  0.00    +0.000 A 
ATOM     14  C   UNL     1       0.463   9.137  21.219  0.00  0.00    +0.000 A 
ATOM     15  C   UNL     1      -0.253   9.489  22.493  0.00  0.00    +0.000 C 
ATOM     16  C   UNL     1       1.003   7.830  21.194  0.00  0.00    +0.000 A 
ATOM     17  C   UNL     1       1.789   7.382  20.142  0.00  0.00    +0.000 A 
ATOM     18  N   UNL     1       2.462   6.171  20.214  0.00  0.00    +0.000 N 
ATOM     19  C   UNL     1       1.762   4.984  20.677  0.00  0.00    +0.000 C 
ATOM     20  C   UNL     1       3.531   5.945  19.249  0.00  0.00    +0.000 C 
ATOM     21  N   UNL     1       1.995   8.190  19.093  0.00  0.00    +0.000 NA
ATOM     22  C   UNL     1       1.448   9.442  19.063  0.00  0.00    +0.000 A 
ATOM     23  C   UNL     1       1.831  10.171  17.804  0.00  0.00    +0.000 C 
ENDBRANCH   8  13
BRANCH   1  24
ATOM     24  C   UNL     1       0.396  17.379  20.271  0.00  0.00    +0.000 C 
BRANCH  24  25
ATOM     25  C   UNL     1       0.979  18.068  19.018  0.00  0.00    +0.000 C 
BRANCH  25  27
ATOM     26  C   UNL     1       2.662  16.925  17.845  0.00  0.00    +0.000 C 
ATOM     27  O   UNL     1       2.390  17.871  18.878  0.00  0.00    +0.000 OA
ENDBRANCH  25  27
ENDBRANCH  24  25
ENDBRANCH   1  24
BRANCH   1  28
ATOM     28  C   UNL     1      -1.719  15.960  20.197  0.00  0.00    +0.000 C 
BRANCH  28  29
ATOM     29  C   UNL     1      -2.385  16.308  21.540  0.00  0.00    +0.000 C 
BRANCH  29  30
ATOM     30  O   UNL     1      -3.795  16.535  21.504  0.00  0.00    +0.000 OA
ATOM     31  C   UNL     1      -4.497  15.671  20.624  0.00  0.00    +0.000 C 
ENDBRANCH  29  30
ENDBRANCH  28  29
ENDBRANCH   1  28
TORSDOF 7
ENDMDL
MODEL 2
REMARK VINA RESULT:      -5.2      3.526      8.626
REMARK  Name = 
REMARK  15 active torsions:
REMARK  status: ('A' for Active; 'I' for Inactive)
REMARK    1  A    between atoms: C_1  and  O_2
REMARK    2  A    between atoms: O_2  and  C_3
REMARK    3  A    between atoms: C_3  and  C_4
REMARK    4  A    between atoms: C_4  and  N_5
REMARK    5  A    between atoms: N_5  and  C_6
REMARK    6  A    between atoms: C_6  and  C_7
REMARK    7  A    between atoms: C_7  and  O_8
REMARK    8  A    between atoms: O_8  and  C_9
REMARK    9  A    between atoms: C_12  and  C_13
REMARK   10  A    between atoms: C_16  and  C_17
REMARK   11  A    between atoms: C_18  and  C_19
REMARK   12  A    between atoms: N_22  and  C_23
REMARK   13  A    between atoms: N_22  and  C_24
REMARK   14  A    between atoms: C_26  and  C_27
REMARK   15  A    between atoms: C_28  and  C_29
REMARK                            x       y       z     vdW  Elec       q    Type
REMARK                         _______ _______ _______ _____ _____    ______ ____
ROOT
ATOM      1  N   UNL     1       0.320  10.305  19.103  0.00  0.00    +0.000 N 
ATOM      2  C   UNL     1      -0.916  10.984  19.091  0.00  0.00    +0.000 A 
ATOM      3  N   UNL     1      -1.767  10.762  18.126  0.00  0.00    +0.000 NA
ATOM      4  C   UNL     1      -2.963  11.427  18.106  0.00  0.00    +0.000 A 
ATOM      5  C   UNL     1      -3.778  11.260  16.852  0.00  0.00    +0.000 C 
ATOM      6  N   UNL     1      -3.411  12.204  19.036  0.00  0.00    +0.000 NA
ATOM      7  C   UNL     1      -2.551  12.517  20.041  0.00  0.00    +0.000 A 
ATOM      8  C   UNL     1      -2.582  13.467  21.048  0.00  0.00    +0.000 A 
ATOM      9  C   UNL     1      -1.341  13.255  21.743  0.00  0.00    +0.000 A 
ATOM     10  C   UNL     1      -0.820  13.904  22.977  0.00  0.00    +0.000 C 
ATOM     11  N   UNL     1      -0.589  12.315  21.158  0.00  0.00    +0.000 NA
ATOM     12  N   UNL     1      -1.314  11.915  20.093  0.00  0.00    +0.000 N 
ENDROOT
BRANCH   8  13
ATOM     13  C   UNL     1      -3.697  14.407  21.243  0.00  0.00    +0.000 A 
ATOM     14  C   UNL     1      -3.602  15.764  20.881  0.00  0.00    +0.000 A 
ATOM     15  C   UNL     1      -2.387  16.460  20.335  0.00  0.00    +0.000 C 
ATOM     16  C   UNL     1      -4.723  16.607  21.070  0.00  0.00    +0.000 A 
ATOM     17  C   UNL     1      -5.888  16.152  21.668  0.00  0.00    +0.000 A 
ATOM     18  N   UNL     1      -6.906  17.029  22.014  0.00  0.00    +0.000 N 
ATOM     19  C   UNL     1      -7.353  18.028  21.057  0.00  0.00    +0.000 C 
ATOM     20  C   UNL     1      -7.916  16.543  22.947  0.00  0.00    +0.000 C 
ATOM     21  N   UNL     1      -5.978  14.864  22.025  0.00  0.00    +0.000 NA
ATOM     22  C   UNL     1      -4.932  14.011  21.814  0.00  0.00    +0.000 A 
ATOM     23  C   UNL     1      -5.251  12.628  22.312  0.00  0.00    +0.000 C 
ENDBRANCH   8  13
BRANCH   1  24
ATOM     24  C   UNL     1       0.662   9.399  17.973  0.00  0.00    +0.000 C 
BRANCH  24  25
ATOM     25  C   UNL     1       2.134   8.955  17.831  0.00  0.00    +0.000 C 
BRANCH  25  27
ATOM     26  C   UNL     1       3.608   7.133  17.666  0.00  0.00    +0.000 C 
ATOM     27  O   UNL     1       2.332   7.568  18.132  0.00  0.00    +0.000 OA
ENDBRANCH  25  27
ENDBRANCH  24  25
ENDBRANCH   1  24
BRANCH   1  28
ATOM     28  C   UNL     1       0.966  10.050  20.417  0.00  0.00    +0.000 C 
BRANCH  28  29
ATOM     29  C   UNL     1       0.579   8.778  21.194  0.00  0.00    +0.000 C 
BRANCH  29  30
ATOM     30  O   UNL     1      -0.525   8.898  22.092  0.00  0.00    +0.000 OA
ATOM     31  C   UNL     1      -0.208   9.554  23.310  0.00  0.00    +0.000 C 
ENDBRANCH  29  30
ENDBRANCH  28  29
ENDBRANCH   1  28
TORSDOF 7
ENDMDL
MODEL 3
REMARK VINA RESULT:      -5.2      2.732      5.149
REMARK  Name = 
REMARK  15 active torsions:
REMARK  status: ('A' for Active; 'I' for Inactive)
REMARK    1  A    between atoms: C_1  and  O_2
REMARK    2  A    between atoms: O_2  and  C_3
REMARK    3  A    between atoms: C_3  and  C_4
REMARK    4  A    between atoms: C_4  and  N_5
REMARK    5  A    between atoms: N_5  and  C_6
REMARK    6  A    between atoms: C_6  and  C_7
REMARK    7  A    between atoms: C_7  and  O_8
REMARK    8  A    between atoms: O_8  and  C_9
REMARK    9  A    between atoms: C_12  and  C_13
REMARK   10  A    between atoms: C_16  and  C_17
REMARK   11  A    between atoms: C_18  and  C_19
REMARK   12  A    between atoms: N_22  and  C_23
REMARK   13  A    between atoms: N_22  and  C_24
REMARK   14  A    between atoms: C_26  and  C_27
REMARK   15  A    between atoms: C_28  and  C_29
REMARK                            x       y       z     vdW  Elec       q    Type
REMARK                         _______ _______ _______ _____ _____    ______ ____
ROOT
ATOM      1  N   UNL     1      -2.336  12.354  21.287  0.00  0.00    +0.000 N 
ATOM      2  C   UNL     1      -1.698  11.564  20.308  0.00  0.00    +0.000 A 
ATOM      3  N   UNL     1      -2.152  11.560  19.084  0.00  0.00    +0.000 NA
ATOM      4  C   UNL     1      -1.542  10.787  18.134  0.00  0.00    +0.000 A 
ATOM      5  C   UNL     1      -2.261  10.690  16.815  0.00  0.00    +0.000 C 
ATOM      6  N   UNL     1      -0.452  10.113  18.295  0.00  0.00    +0.000 NA
ATOM      7  C   UNL     1       0.040  10.033  19.559  0.00  0.00    +0.000 A 
ATOM      8  C   UNL     1       1.012   9.241  20.146  0.00  0.00    +0.000 A 
ATOM      9  C   UNL     1       1.008   9.671  21.518  0.00  0.00    +0.000 A 
ATOM     10  C   UNL     1       1.889   9.261  22.645  0.00  0.00    +0.000 C 
ATOM     11  N   UNL     1       0.060  10.585  21.758  0.00  0.00    +0.000 NA
ATOM     12  N   UNL     1      -0.556  10.754  20.570  0.00  0.00    +0.000 N 
ENDROOT
BRANCH   8  13
ATOM     13  C   UNL     1       1.794   8.235  19.409  0.00  0.00    +0.000 A 
ATOM     14  C   UNL     1       2.501   8.552  18.235  0.00  0.00    +0.000 A 
ATOM     15  C   UNL     1       2.515   9.881  17.532  0.00  0.00    +0.000 C 
ATOM     16  C   UNL     1       3.255   7.543  17.591  0.00  0.00    +0.000 A 
ATOM     17  C   UNL     1       3.260   6.232  18.044  0.00  0.00    +0.000 A 
ATOM     18  N   UNL     1       3.851   5.219  17.301  0.00  0.00    +0.000 N 
ATOM     19  C   UNL     1       5.178   5.416  16.741  0.00  0.00    +0.000 C 
ATOM     20  C   UNL     1       3.504   3.847  17.654  0.00  0.00    +0.000 C 
ATOM     21  N   UNL     1       2.578   5.924  19.154  0.00  0.00    +0.000 NA
ATOM     22  C   UNL     1       1.877   6.884  19.828  0.00  0.00    +0.000 A 
ATOM     23  C   UNL     1       1.176   6.304  21.026  0.00  0.00    +0.000 C 
ENDBRANCH   8  13
BRANCH   1  24
ATOM     24  C   UNL     1      -3.561  13.116  20.921  0.00  0.00    +0.000 C 
BRANCH  24  25
ATOM     25  C   UNL     1      -4.889  12.703  21.593  0.00  0.00    +0.000 C 
BRANCH  25  27
ATOM     26  C   UNL     1      -5.092  13.365  23.837  0.00  0.00    +0.000 C 
ATOM     27  O   UNL     1      -4.723  12.303  22.958  0.00  0.00    +0.000 OA
ENDBRANCH  25  27
ENDBRANCH  24  25
ENDBRANCH   1  24
BRANCH   1  28
ATOM     28  C   UNL     1      -1.517  12.859  22.421  0.00  0.00    +0.000 C 
BRANCH  28  29
ATOM     29  C   UNL     1      -1.028  14.318  22.385  0.00  0.00    +0.000 C 
BRANCH  29  30
ATOM     30  O   UNL     1       0.383  14.512  22.485  0.00  0.00    +0.000 OA
ATOM     31  C   UNL     1       1.112  14.037  21.363  0.00  0.00    +0.000 C 
ENDBRANCH  29  30
ENDBRANCH  28  29
ENDBRANCH   1  28
TORSDOF 7
ENDMDL
MODEL 4
REMARK VINA RESULT:      -5.2      3.629      5.087
REMARK  Name = 
REMARK  15 active torsions:
REMARK  status: ('A' for Active; 'I' for Inactive)
REMARK    1  A    between atoms: C_1  and  O_2
REMARK    2  A    between atoms: O_2  and  C_3
REMARK    3  A    between atoms: C_3  and  C_4
REMARK    4  A    between atoms: C_4  and  N_5
REMARK    5  A    between atoms: N_5  and  C_6
REMARK    6  A    between atoms: C_6  and  C_7
REMARK    7  A    between atoms: C_7  and  O_8
REMARK    8  A    between atoms: O_8  and  C_9
REMARK    9  A    between atoms: C_12  and  C_13
REMARK   10  A    between atoms: C_16  and  C_17
REMARK   11  A    between atoms: C_18  and  C_19
REMARK   12  A    between atoms: N_22  and  C_23
REMARK   13  A    between atoms: N_22  and  C_24
REMARK   14  A    between atoms: C_26  and  C_27
REMARK   15  A    between atoms: C_28  and  C_29
REMARK                            x       y       z     vdW  Elec       q    Type
REMARK                         _______ _______ _______ _____ _____    ______ ____
ROOT
ATOM      1  N   UNL     1      -3.033  12.466  20.615  0.00  0.00    +0.000 N 
ATOM      2  C   UNL     1      -2.290  11.640  19.747  0.00  0.00    +0.000 A 
ATOM      3  N   UNL     1      -2.704  11.446  18.524  0.00  0.00    +0.000 NA
ATOM      4  C   UNL     1      -1.990  10.636  17.683  0.00  0.00    +0.000 A 
ATOM      5  C   UNL     1      -2.656  10.313  16.373  0.00  0.00    +0.000 C 
ATOM      6  N   UNL     1      -0.842  10.104  17.941  0.00  0.00    +0.000 NA
ATOM      7  C   UNL     1      -0.383  10.223  19.215  0.00  0.00    +0.000 A 
ATOM      8  C   UNL     1       0.648   9.611  19.908  0.00  0.00    +0.000 A 
ATOM      9  C   UNL     1       0.559  10.194  21.219  0.00  0.00    +0.000 A 
ATOM     10  C   UNL     1       1.444  10.012  22.402  0.00  0.00    +0.000 C 
ATOM     11  N   UNL     1      -0.484  11.024  21.333  0.00  0.00    +0.000 NA
ATOM     12  N   UNL     1      -1.079  10.989  20.123  0.00  0.00    +0.000 N 
ENDROOT
BRANCH   8  13
ATOM     13  C   UNL     1       1.550   8.614  19.308  0.00  0.00    +0.000 A 
ATOM     14  C   UNL     1       1.654   7.304  19.810  0.00  0.00    +0.000 A 
ATOM     15  C   UNL     1       0.957   6.754  21.023  0.00  0.00    +0.000 C 
ATOM     16  C   UNL     1       2.520   6.387  19.168  0.00  0.00    +0.000 A 
ATOM     17  C   UNL     1       3.323   6.763  18.102  0.00  0.00    +0.000 A 
ATOM     18  N   UNL     1       4.298   5.911  17.603  0.00  0.00    +0.000 N 
ATOM     19  C   UNL     1       3.972   4.518  17.340  0.00  0.00    +0.000 C 
ATOM     20  C   UNL     1       5.321   6.499  16.746  0.00  0.00    +0.000 C 
ATOM     21  N   UNL     1       3.236   8.013  17.629  0.00  0.00    +0.000 NA
ATOM     22  C   UNL     1       2.375   8.911  18.195  0.00  0.00    +0.000 A 
ATOM     23  C   UNL     1       2.464  10.250  17.517  0.00  0.00    +0.000 C 
ENDBRANCH   8  13
BRANCH   1  24
ATOM     24  C   UNL     1      -4.319  13.048  20.140  0.00  0.00    +0.000 C 
BRANCH  24  25
ATOM     25  C   UNL     1      -5.612  12.252  20.422  0.00  0.00    +0.000 C 
BRANCH  25  27
ATOM     26  C   UNL     1      -6.735  10.569  19.231  0.00  0.00    +0.000 C 
ATOM     27  O   UNL     1      -6.347  11.941  19.233  0.00  0.00    +0.000 OA
ENDBRANCH  25  27
ENDBRANCH  24  25
ENDBRANCH   1  24
BRANCH   1  28
ATOM     28  C   UNL     1      -2.304  13.181  21.695  0.00  0.00    +0.000 C 
BRANCH  28  29
ATOM     29  C   UNL     1      -2.934  13.236  23.098  0.00  0.00    +0.000 C 
BRANCH  29  30
ATOM     30  O   UNL     1      -3.801  12.154  23.443  0.00  0.00    +0.000 OA
ATOM     31  C   UNL     1      -4.556  12.375  24.624  0.00  0.00    +0.000 C 
ENDBRANCH  29  30
ENDBRANCH  28  29
ENDBRANCH   1  28
TORSDOF 7
ENDMDL
MODEL 5
REMARK VINA RESULT:      -5.2      4.734      9.150
REMARK  Name = 
REMARK  15 active torsions:
REMARK  status: ('A' for Active; 'I' for Inactive)
REMARK    1  A    between atoms: C_1  and  O_2
REMARK    2  A    between atoms: O_2  and  C_3
REMARK    3  A    between atoms: C_3  and  C_4
REMARK    4  A    between atoms: C_4  and  N_5
REMARK    5  A    between atoms: N_5  and  C_6
REMARK    6  A    between atoms: C_6  and  C_7
REMARK    7  A    between atoms: C_7  and  O_8
REMARK    8  A    between atoms: O_8  and  C_9
REMARK    9  A    between atoms: C_12  and  C_13
REMARK   10  A    between atoms: C_16  and  C_17
REMARK   11  A    between atoms: C_18  and  C_19
REMARK   12  A    between atoms: N_22  and  C_23
REMARK   13  A    between atoms: N_22  and  C_24
REMARK   14  A    between atoms: C_26  and  C_27
REMARK   15  A    between atoms: C_28  and  C_29
REMARK                            x       y       z     vdW  Elec       q    Type
REMARK                         _______ _______ _______ _____ _____    ______ ____
ROOT
ATOM      1  N   UNL     1       3.955   5.749  17.258  0.00  0.00    +0.000 N 
ATOM      2  C   UNL     1       3.081   6.188  18.275  0.00  0.00    +0.000 A 
ATOM      3  N   UNL     1       2.594   5.326  19.126  0.00  0.00    +0.000 NA
ATOM      4  C   UNL     1       1.737   5.747  20.107  0.00  0.00    +0.000 A 
ATOM      5  C   UNL     1       1.072   4.656  20.901  0.00  0.00    +0.000 C 
ATOM      6  N   UNL     1       1.428   6.975  20.364  0.00  0.00    +0.000 NA
ATOM      7  C   UNL     1       1.860   7.914  19.482  0.00  0.00    +0.000 A 
ATOM      8  C   UNL     1       1.545   9.250  19.294  0.00  0.00    +0.000 A 
ATOM      9  C   UNL     1       2.359   9.629  18.172  0.00  0.00    +0.000 A 
ATOM     10  C   UNL     1       2.539  10.963  17.536  0.00  0.00    +0.000 C 
ATOM     11  N   UNL     1       3.046   8.595  17.673  0.00  0.00    +0.000 NA
ATOM     12  N   UNL     1       2.690   7.548  18.446  0.00  0.00    +0.000 N 
ENDROOT
BRANCH   8  13
ATOM     13  C   UNL     1       0.581   9.981  20.132  0.00  0.00    +0.000 A 
ATOM     14  C   UNL     1       0.710  10.052  21.531  0.00  0.00    +0.000 A 
ATOM     15  C   UNL     1       1.754   9.367  22.367  0.00  0.00    +0.000 C 
ATOM     16  C   UNL     1      -0.237  10.796  22.273  0.00  0.00    +0.000 A 
ATOM     17  C   UNL     1      -1.331  11.399  21.669  0.00  0.00    +0.000 A 
ATOM     18  N   UNL     1      -2.347  11.965  22.426  0.00  0.00    +0.000 N 
ATOM     19  C   UNL     1      -2.014  12.843  23.537  0.00  0.00    +0.000 C 
ATOM     20  C   UNL     1      -3.606  12.245  21.747  0.00  0.00    +0.000 C 
ATOM     21  N   UNL     1      -1.464  11.323  20.339  0.00  0.00    +0.000 NA
ATOM     22  C   UNL     1      -0.542  10.652  19.585  0.00  0.00    +0.000 A 
ATOM     23  C   UNL     1      -0.908  10.682  18.127  0.00  0.00    +0.000 C 
ENDBRANCH   8  13
BRANCH   1  24
ATOM     24  C   UNL     1       4.250   4.296  17.131  0.00  0.00    +0.000 C 
BRANCH  24  25
ATOM     25  C   UNL     1       4.839   3.800  15.793  0.00  0.00    +0.000 C 
BRANCH  25  27
ATOM     26  C   UNL     1       6.724   4.341  14.500  0.00  0.00    +0.000 C 
ATOM     27  O   UNL     1       6.270   3.849  15.760  0.00  0.00    +0.000 OA
ENDBRANCH  25  27
ENDBRANCH  24  25
ENDBRANCH   1  24
BRANCH   1  28
ATOM     28  C   UNL     1       4.963   6.711  16.740  0.00  0.00    +0.000 C 
BRANCH  28  29
ATOM     29  C   UNL     1       6.282   6.885  17.514  0.00  0.00    +0.000 C 
BRANCH  29  30
ATOM     30  O   UNL     1       7.303   7.639  16.859  0.00  0.00    +0.000 OA
ATOM     31  C   UNL     1       7.966   8.567  17.704  0.00  0.00    +0.000 C 
ENDBRANCH  29  30
ENDBRANCH  28  29
ENDBRANCH   1  28
TORSDOF 7
ENDMDL
MODEL 6
REMARK VINA RESULT:      -5.2      3.695      6.274
REMARK  Name = 
REMARK  15 active torsions:
REMARK  status: ('A' for Active; 'I' for Inactive)
REMARK    1  A    between atoms: C_1  and  O_2
REMARK    2  A    between atoms: O_2  and  C_3
REMARK    3  A    between atoms: C_3  and  C_4
REMARK    4  A    between atoms: C_4  and  N_5
REMARK    5  A    between atoms: N_5  and  C_6
REMARK    6  A    between atoms: C_6  and  C_7
REMARK    7  A    between atoms: C_7  and  O_8
REMARK    8  A    between atoms: O_8  and  C_9
REMARK    9  A    between atoms: C_12  and  C_13
REMARK   10  A    between atoms: C_16  and  C_17
REMARK   11  A    between atoms: C_18  and  C_19
REMARK   12  A    between atoms: N_22  and  C_23
REMARK   13  A    between atoms: N_22  and  C_24
REMARK   14  A    between atoms: C_26  and  C_27
REMARK   15  A    between atoms: C_28  and  C_29
REMARK                            x       y       z     vdW  Elec       q    Type
REMARK                         _______ _______ _______ _____ _____    ______ ____
ROOT
ATOM      1  N   UNL     1       3.058  15.345  20.775  0.00  0.00    +0.000 N 
ATOM      2  C   UNL     1       1.766  15.272  20.213  0.00  0.00    +0.000 A 
ATOM      3  N   UNL     1       1.370  16.197  19.380  0.00  0.00    +0.000 NA
ATOM      4  C   UNL     1       0.114  16.134  18.841  0.00  0.00    +0.000 A 
ATOM      5  C   UNL     1      -0.320  17.348  18.064  0.00  0.00    +0.000 C 
ATOM      6  N   UNL     1      -0.723  15.161  18.986  0.00  0.00    +0.000 NA
ATOM      7  C   UNL     1      -0.391  14.194  19.882  0.00  0.00    +0.000 A 
ATOM      8  C   UNL     1      -1.106  13.160  20.463  0.00  0.00    +0.000 A 
ATOM      9  C   UNL     1      -0.144  12.538  21.331  0.00  0.00    +0.000 A 
ATOM     10  C   UNL     1      -0.272  11.316  22.171  0.00  0.00    +0.000 C 
ATOM     11  N   UNL     1       1.026  13.188  21.337  0.00  0.00    +0.000 NA
ATOM     12  N   UNL     1       0.842  14.224  20.493  0.00  0.00    +0.000 N 
ENDROOT
BRANCH   8  13
ATOM     13  C   UNL     1      -2.519  12.881  20.162  0.00  0.00    +0.000 A 
ATOM     14  C   UNL     1      -3.569  13.454  20.903  0.00  0.00    +0.000 A 
ATOM     15  C   UNL     1      -3.430  14.339  22.110  0.00  0.00    +0.000 C 
ATOM     16  C   UNL     1      -4.906  13.164  20.541  0.00  0.00    +0.000 A 
ATOM     17  C   UNL     1      -5.212  12.275  19.522  0.00  0.00    +0.000 A 
ATOM     18  N   UNL     1      -6.517  11.859  19.301  0.00  0.00    +0.000 N 
ATOM     19  C   UNL     1      -7.589  12.841  19.262  0.00  0.00    +0.000 C 
ATOM     20  C   UNL     1      -6.707  10.675  18.472  0.00  0.00    +0.000 C 
ATOM     21  N   UNL     1      -4.215  11.718  18.822  0.00  0.00    +0.000 NA
ATOM     22  C   UNL     1      -2.913  12.012  19.114  0.00  0.00    +0.000 A 
ATOM     23  C   UNL     1      -1.972  11.257  18.216  0.00  0.00    +0.000 C 
ENDBRANCH   8  13
BRANCH   1  24
ATOM     24  C   UNL     1       3.921  16.516  20.463  0.00  0.00    +0.000 C 
BRANCH  24  25
ATOM     25  C   UNL     1       4.864  16.407  19.245  0.00  0.00    +0.000 C 
BRANCH  25  27
ATOM     26  C   UNL     1       6.667  17.707  20.004  0.00  0.00    +0.000 C 
ATOM     27  O   UNL     1       5.634  17.594  19.026  0.00  0.00    +0.000 OA
ENDBRANCH  25  27
ENDBRANCH  24  25
ENDBRANCH   1  24
BRANCH   1  28
ATOM     28  C   UNL     1       3.725  14.074  21.162  0.00  0.00    +0.000 C 
BRANCH  28  29
ATOM     29  C   UNL     1       4.925  14.134  22.124  0.00  0.00    +0.000 C 
BRANCH  29  30
ATOM     30  O   UNL     1       5.054  13.046  23.040  0.00  0.00    +0.000 OA
ATOM     31  C   UNL     1       6.383  12.820  23.484  0.00  0.00    +0.000 C 
ENDBRANCH  29  30
ENDBRANCH  28  29
ENDBRANCH   1  28
TORSDOF 7
ENDMDL
MODEL 7
REMARK VINA RESULT:      -5.2      3.435      5.141
REMARK  Name = 
REMARK  15 active torsions:
REMARK  status: ('A' for Active; 'I' for Inactive)
REMARK    1  A    between atoms: C_1  and  O_2
REMARK    2  A    between atoms: O_2  and  C_3
REMARK    3  A    between atoms: C_3  and  C_4
REMARK    4  A    between atoms: C_4  and  N_5
REMARK    5  A    between atoms: N_5  and  C_6
REMARK    6  A    between atoms: C_6  and  C_7
REMARK    7  A    between atoms: C_7  and  O_8
REMARK    8  A    between atoms: O_8  and  C_9
REMARK    9  A    between atoms: C_12  and  C_13
REMARK   10  A    between atoms: C_16  and  C_17
REMARK   11  A    between atoms: C_18  and  C_19
REMARK   12  A    between atoms: N_22  and  C_23
REMARK   13  A    between atoms: N_22  and  C_24
REMARK   14  A    between atoms: C_26  and  C_27
REMARK   15  A    between atoms: C_28  and  C_29
REMARK                            x       y       z     vdW  Elec       q    Type
REMARK                         _______ _______ _______ _____ _____    ______ ____
ROOT
ATOM      1  N   UNL     1      -2.609  12.429  21.041  0.00  0.00    +0.000 N 
ATOM      2  C   UNL     1      -1.926  11.627  20.103  0.00  0.00    +0.000 A 
ATOM      3  N   UNL     1      -2.354  11.564  18.872  0.00  0.00    +0.000 NA
ATOM      4  C   UNL     1      -1.699  10.779  17.962  0.00  0.00    +0.000 A 
ATOM      5  C   UNL     1      -2.387  10.610  16.635  0.00  0.00    +0.000 C 
ATOM      6  N   UNL     1      -0.591  10.149  18.168  0.00  0.00    +0.000 NA
ATOM      7  C   UNL     1      -0.122  10.131  19.444  0.00  0.00    +0.000 A 
ATOM      8  C   UNL     1       0.864   9.394  20.078  0.00  0.00    +0.000 A 
ATOM      9  C   UNL     1       0.818   9.872  21.432  0.00  0.00    +0.000 A 
ATOM     10  C   UNL     1       1.689   9.533  22.590  0.00  0.00    +0.000 C 
ATOM     11  N   UNL     1      -0.165  10.760  21.622  0.00  0.00    +0.000 NA
ATOM     12  N   UNL     1      -0.762  10.866  20.417  0.00  0.00    +0.000 N 
ENDROOT
BRANCH   8  13
ATOM     13  C   UNL     1       1.694   8.390  19.392  0.00  0.00    +0.000 A 
ATOM     14  C   UNL     1       2.450   8.701  18.247  0.00  0.00    +0.000 A 
ATOM     15  C   UNL     1       2.477  10.020  17.526  0.00  0.00    +0.000 C 
ATOM     16  C   UNL     1       3.248   7.695  17.654  0.00  0.00    +0.000 A 
ATOM     17  C   UNL     1       3.251   6.391  18.126  0.00  0.00    +0.000 A 
ATOM     18  N   UNL     1       3.891   5.377  17.427  0.00  0.00    +0.000 N 
ATOM     19  C   UNL     1       5.239   5.586  16.925  0.00  0.00    +0.000 C 
ATOM     20  C   UNL     1       3.549   4.005  17.783  0.00  0.00    +0.000 C 
ATOM     21  N   UNL     1       2.523   6.088  19.208  0.00  0.00    +0.000 NA
ATOM     22  C   UNL     1       1.778   7.046  19.835  0.00  0.00    +0.000 A 
ATOM     23  C   UNL     1       1.031   6.473  21.007  0.00  0.00    +0.000 C 
ENDBRANCH   8  13
BRANCH   1  24
ATOM     24  C   UNL     1      -3.852  13.135  20.625  0.00  0.00    +0.000 C 
BRANCH  24  25
ATOM     25  C   UNL     1      -5.202  12.507  21.032  0.00  0.00    +0.000 C 
BRANCH  25  27
ATOM     26  C   UNL     1      -6.359  12.944  23.029  0.00  0.00    +0.000 C 
ATOM     27  O   UNL     1      -5.285  12.218  22.432  0.00  0.00    +0.000 OA
ENDBRANCH  25  27
ENDBRANCH  24  25
ENDBRANCH   1  24
BRANCH   1  28
ATOM     28  C   UNL     1      -1.831  13.001  22.171  0.00  0.00    +0.000 C 
BRANCH  28  29
ATOM     29  C   UNL     1      -2.323  14.308  22.819  0.00  0.00    +0.000 C 
BRANCH  29  30
ATOM     30  O   UNL     1      -3.001  14.176  24.069  0.00  0.00    +0.000 OA
ATOM     31  C   UNL     1      -2.485  15.008  25.096  0.00  0.00    +0.000 C 
ENDBRANCH  29  30
ENDBRANCH  28  29
ENDBRANCH   1  28
TORSDOF 7
ENDMDL
MODEL 8
REMARK VINA RESULT:      -5.1      0.756      1.872
REMARK  Name = 
REMARK  15 active torsions:
REMARK  status: ('A' for Active; 'I' for Inactive)
REMARK    1  A    between atoms: C_1  and  O_2
REMARK    2  A    between atoms: O_2  and  C_3
REMARK    3  A    between atoms: C_3  and  C_4
REMARK    4  A    between atoms: C_4  and  N_5
REMARK    5  A    between atoms: N_5  and  C_6
REMARK    6  A    between atoms: C_6  and  C_7
REMARK    7  A    between atoms: C_7  and  O_8
REMARK    8  A    between atoms: O_8  and  C_9
REMARK    9  A    between atoms: C_12  and  C_13
REMARK   10  A    between atoms: C_16  and  C_17
REMARK   11  A    between atoms: C_18  and  C_19
REMARK   12  A    between atoms: N_22  and  C_23
REMARK   13  A    between atoms: N_22  and  C_24
REMARK   14  A    between atoms: C_26  and  C_27
REMARK   15  A    between atoms: C_28  and  C_29
REMARK                            x       y       z     vdW  Elec       q    Type
REMARK                         _______ _______ _______ _____ _____    ______ ____
ROOT
ATOM      1  N   UNL     1      -0.427  15.791  20.116  0.00  0.00    +0.000 N 
ATOM      2  C   UNL     1       0.384  14.663  20.358  0.00  0.00    +0.000 A 
ATOM      3  N   UNL     1       1.575  14.819  20.869  0.00  0.00    +0.000 NA
ATOM      4  C   UNL     1       2.368  13.727  21.096  0.00  0.00    +0.000 A 
ATOM      5  C   UNL     1       3.790  14.026  21.487  0.00  0.00    +0.000 C 
ATOM      6  N   UNL     1       2.012  12.494  20.955  0.00  0.00    +0.000 NA
ATOM      7  C   UNL     1       0.803  12.265  20.377  0.00  0.00    +0.000 A 
ATOM      8  C   UNL     1       0.202  11.128  19.862  0.00  0.00    +0.000 A 
ATOM      9  C   UNL     1      -1.068  11.609  19.391  0.00  0.00    +0.000 A 
ATOM     10  C   UNL     1      -2.212  10.855  18.809  0.00  0.00    +0.000 C 
ATOM     11  N   UNL     1      -1.192  12.934  19.533  0.00  0.00    +0.000 NA
ATOM     12  N   UNL     1      -0.024  13.326  20.083  0.00  0.00    +0.000 N 
ENDROOT
BRANCH   8  13
ATOM     13  C   UNL     1       0.837   9.801  19.870  0.00  0.00    +0.000 A 
ATOM     14  C   UNL     1       1.654   9.358  18.813  0.00  0.00    +0.000 A 
ATOM     15  C   UNL     1       1.938  10.095  17.535  0.00  0.00    +0.000 C 
ATOM     16  C   UNL     1       2.256   8.080  18.898  0.00  0.00    +0.000 A 
ATOM     17  C   UNL     1       2.007   7.222  19.958  0.00  0.00    +0.000 A 
ATOM     18  N   UNL     1       2.454   5.908  19.938  0.00  0.00    +0.000 N 
ATOM     19  C   UNL     1       3.825   5.619  19.550  0.00  0.00    +0.000 C 
ATOM     20  C   UNL     1       1.855   4.987  20.897  0.00  0.00    +0.000 C 
ATOM     21  N   UNL     1       1.220   7.636  20.960  0.00  0.00    +0.000 NA
ATOM     22  C   UNL     1       0.660   8.882  20.934  0.00  0.00    +0.000 A 
ATOM     23  C   UNL     1      -0.198   9.117  22.147  0.00  0.00    +0.000 C 
ENDBRANCH   8  13
BRANCH   1  24
ATOM     24  C   UNL     1       0.121  17.150  20.382  0.00  0.00    +0.000 C 
BRANCH  24  25
ATOM     25  C   UNL     1       0.815  17.883  19.214  0.00  0.00    +0.000 C 
BRANCH  25  27
ATOM     26  C   UNL     1       2.299  17.176  17.537  0.00  0.00    +0.000 C 
ATOM     27  O   UNL     1       2.127  17.380  18.938  0.00  0.00    +0.000 OA
ENDBRANCH  25  27
ENDBRANCH  24  25
ENDBRANCH   1  24
BRANCH   1  28
ATOM     28  C   UNL     1      -1.902  15.616  20.162  0.00  0.00    +0.000 C 
BRANCH  28  29
ATOM     29  C   UNL     1      -2.587  15.492  21.536  0.00  0.00    +0.000 C 
BRANCH  29  30
ATOM     30  O   UNL     1      -2.554  16.655  22.364  0.00  0.00    +0.000 OA
ATOM     31  C   UNL     1      -2.549  16.373  23.755  0.00  0.00    +0.000 C 
ENDBRANCH  29  30
ENDBRANCH  28  29
ENDBRANCH   1  28
TORSDOF 7
ENDMDL
MODEL 9
REMARK VINA RESULT:      -5.1      3.214      5.011
REMARK  Name = 
REMARK  15 active torsions:
REMARK  status: ('A' for Active; 'I' for Inactive)
REMARK    1  A    between atoms: C_1  and  O_2
REMARK    2  A    between atoms: O_2  and  C_3
REMARK    3  A    between atoms: C_3  and  C_4
REMARK    4  A    between atoms: C_4  and  N_5
REMARK    5  A    between atoms: N_5  and  C_6
REMARK    6  A    between atoms: C_6  and  C_7
REMARK    7  A    between atoms: C_7  and  O_8
REMARK    8  A    between atoms: O_8  and  C_9
REMARK    9  A    between atoms: C_12  and  C_13
REMARK   10  A    between atoms: C_16  and  C_17
REMARK   11  A    between atoms: C_18  and  C_19
REMARK   12  A    between atoms: N_22  and  C_23
REMARK   13  A    between atoms: N_22  and  C_24
REMARK   14  A    between atoms: C_26  and  C_27
REMARK   15  A    between atoms: C_28  and  C_29
REMARK                            x       y       z     vdW  Elec       q    Type
REMARK                         _______ _______ _______ _____ _____    ______ ____
ROOT
ATOM      1  N   UNL     1      -2.432  12.297  21.451  0.00  0.00    +0.000 N 
ATOM      2  C   UNL     1      -1.777  11.543  20.454  0.00  0.00    +0.000 A 
ATOM      3  N   UNL     1      -2.223  11.568  19.227  0.00  0.00    +0.000 NA
ATOM      4  C   UNL     1      -1.596  10.829  18.260  0.00  0.00    +0.000 A 
ATOM      5  C   UNL     1      -2.304  10.760  16.935  0.00  0.00    +0.000 C 
ATOM      6  N   UNL     1      -0.498  10.165  18.410  0.00  0.00    +0.000 NA
ATOM      7  C   UNL     1      -0.014  10.056  19.676  0.00  0.00    +0.000 A 
ATOM      8  C   UNL     1       0.965   9.261  20.247  0.00  0.00    +0.000 A 
ATOM      9  C   UNL     1       0.945   9.652  21.630  0.00  0.00    +0.000 A 
ATOM     10  C   UNL     1       1.824   9.221  22.752  0.00  0.00    +0.000 C 
ATOM     11  N   UNL     1      -0.016  10.546  21.889  0.00  0.00    +0.000 NA
ATOM     12  N   UNL     1      -0.626  10.740  20.702  0.00  0.00    +0.000 N 
ENDROOT
BRANCH   8  13
ATOM     13  C   UNL     1       1.764   8.286  19.487  0.00  0.00    +0.000 A 
ATOM     14  C   UNL     1       1.873   6.940  19.882  0.00  0.00    +0.000 A 
ATOM     15  C   UNL     1       1.286   6.322  21.120  0.00  0.00    +0.000 C 
ATOM     16  C   UNL     1       2.636   6.049  19.089  0.00  0.00    +0.000 A 
ATOM     17  C   UNL     1       3.338   6.480  17.974  0.00  0.00    +0.000 A 
ATOM     18  N   UNL     1       4.225   5.640  17.316  0.00  0.00    +0.000 N 
ATOM     19  C   UNL     1       3.825   4.281  16.992  0.00  0.00    +0.000 C 
ATOM     20  C   UNL     1       5.175   6.261  16.400  0.00  0.00    +0.000 C 
ATOM     21  N   UNL     1       3.246   7.764  17.602  0.00  0.00    +0.000 NA
ATOM     22  C   UNL     1       2.480   8.641  18.317  0.00  0.00    +0.000 A 
ATOM     23  C   UNL     1       2.547  10.024  17.729  0.00  0.00    +0.000 C 
ENDBRANCH   8  13
BRANCH   1  24
ATOM     24  C   UNL     1      -3.664  13.053  21.098  0.00  0.00    +0.000 C 
BRANCH  24  25
ATOM     25  C   UNL     1      -4.775  13.150  22.166  0.00  0.00    +0.000 C 
BRANCH  25  27
ATOM     26  C   UNL     1      -7.060  12.630  22.321  0.00  0.00    +0.000 C 
ATOM     27  O   UNL     1      -5.758  12.115  22.046  0.00  0.00    +0.000 OA
ENDBRANCH  25  27
ENDBRANCH  24  25
ENDBRANCH   1  24
BRANCH   1  28
ATOM     28  C   UNL     1      -1.627  12.780  22.604  0.00  0.00    +0.000 C 
BRANCH  28  29
ATOM     29  C   UNL     1      -0.810  14.074  22.443  0.00  0.00    +0.000 C 
BRANCH  29  30
ATOM     30  O   UNL     1      -0.456  14.751  23.650  0.00  0.00    +0.000 OA
ATOM     31  C   UNL     1      -1.561  15.054  24.487  0.00  0.00    +0.000 C 
ENDBRANCH  29  30
ENDBRANCH  28  29
ENDBRANCH   1  28
TORSDOF 7
ENDMDL
