MODEL 1
REMARK VINA RESULT:      -5.7      0.000      0.000
REMARK  Name = 
REMARK  1 active torsions:
REMARK  status: ('A' for Active; 'I' for Inactive)
REMARK    1  A    between atoms: O_1  and  C_2
REMARK                            x       y       z     vdW  Elec       q    Type
REMARK                         _______ _______ _______ _____ _____    ______ ____
ROOT
ATOM      1  C   UNL     1       2.132   6.682  20.067  0.00  0.00    +0.000 A 
ATOM      2  C   UNL     1       2.741   6.801  18.810  0.00  0.00    +0.000 A 
ATOM      3  C   UNL     1       2.820   5.695  17.960  0.00  0.00    +0.000 A 
ATOM      4  C   UNL     1       2.292   4.457  18.356  0.00  0.00    +0.000 A 
ATOM      5  C   UNL     1       1.650   4.344  19.609  0.00  0.00    +0.000 A 
ATOM      6  C   UNL     1       1.589   5.456  20.462  0.00  0.00    +0.000 A 
ATOM      7  C   UNL     1       1.025   3.042  20.038  0.00  0.00    +0.000 C 
ATOM      8  C   UNL     1       0.842   2.101  18.845  0.00  0.00    +0.000 C 
ATOM      9  N   UNL     1       2.099   1.992  18.111  0.00  0.00    +0.000 NA
ATOM     10  C   UNL     1       2.440   3.261  17.442  0.00  0.00    +0.000 C 
ATOM     11  H   UNL     1       2.013   1.246  17.382  0.00  0.00    +0.000 HD
ENDROOT
BRANCH   1  12
ATOM     12  O   UNL     1       2.065   7.738  20.904  0.00  0.00    +0.000 OA
ATOM     13  H   UNL     1       1.993   8.648  20.579  0.00  0.00    +0.000 HD
ENDBRANCH   1  12
TORSDOF 1
ENDMDL
MODEL 2
REMARK VINA RESULT:      -5.5      3.417      4.564
REMARK  Name = 
REMARK  1 active torsions:
REMARK  status: ('A' for Active; 'I' for Inactive)
REMARK    1  A    between atoms: O_1  and  C_2
REMARK                            x       y       z     vdW  Elec       q    Type
REMARK                         _______ _______ _______ _____ _____    ______ ____
ROOT
ATOM      1  C   UNL     1       2.363   4.312  17.810  0.00  0.00    +0.000 A 
ATOM      2  C   UNL     1       2.645   4.983  19.008  0.00  0.00    +0.000 A 
ATOM      3  C   UNL     1       3.967   5.267  19.359  0.00  0.00    +0.000 A 
ATOM      4  C   UNL     1       5.022   4.884  18.517  0.00  0.00    +0.000 A 
ATOM      5  C   UNL     1       4.737   4.237  17.295  0.00  0.00    +0.000 A 
ATOM      6  C   UNL     1       3.408   3.942  16.958  0.00  0.00    +0.000 A 
ATOM      7  C   UNL     1       5.846   3.863  16.346  0.00  0.00    +0.000 C 
ATOM      8  C   UNL     1       7.137   4.609  16.689  0.00  0.00    +0.000 C 
ATOM      9  N   UNL     1       7.434   4.445  18.109  0.00  0.00    +0.000 NA
ATOM     10  C   UNL     1       6.448   5.153  18.947  0.00  0.00    +0.000 C 
ATOM     11  H   UNL     1       8.383   4.835  18.315  0.00  0.00    +0.000 HD
ENDROOT
BRANCH   1  12
ATOM     12  O   UNL     1       1.092   4.016  17.468  0.00  0.00    +0.000 OA
ATOM     13  H   UNL     1       0.879   3.300  16.851  0.00  0.00    +0.000 HD
ENDBRANCH   1  12
TORSDOF 1
ENDMDL
MODEL 3
REMARK VINA RESULT:      -5.4      1.721      2.344
REMARK  Name = 
REMARK  1 active torsions:
REMARK  status: ('A' for Active; 'I' for Inactive)
REMARK    1  A    between atoms: O_1  and  C_2
REMARK                            x       y       z     vdW  Elec       q    Type
REMARK                         _______ _______ _______ _____ _____    ______ ____
ROOT
ATOM      1  C   UNL     1       3.877   6.119  17.490  0.00  0.00    +0.000 A 
ATOM      2  C   UNL     1       4.695   5.177  16.849  0.00  0.00    +0.000 A 
ATOM      3  C   UNL     1       4.414   3.813  16.959  0.00  0.00    +0.000 A 
ATOM      4  C   UNL     1       3.315   3.373  17.711  0.00  0.00    +0.000 A 
ATOM      5  C   UNL     1       2.472   4.322  18.331  0.00  0.00    +0.000 A 
ATOM      6  C   UNL     1       2.770   5.689  18.228  0.00  0.00    +0.000 A 
ATOM      7  C   UNL     1       1.254   3.882  19.100  0.00  0.00    +0.000 C 
ATOM      8  C   UNL     1       0.885   2.435  18.763  0.00  0.00    +0.000 C 
ATOM      9  N   UNL     1       2.064   1.586  18.901  0.00  0.00    +0.000 NA
ATOM     10  C   UNL     1       3.066   1.888  17.862  0.00  0.00    +0.000 C 
ATOM     11  H   UNL     1       1.784   0.582  18.807  0.00  0.00    +0.000 HD
ENDROOT
BRANCH   1  12
ATOM     12  O   UNL     1       4.147   7.438  17.406  0.00  0.00    +0.000 OA
ATOM     13  H   UNL     1       4.783   7.871  17.994  0.00  0.00    +0.000 HD
ENDBRANCH   1  12
TORSDOF 1
ENDMDL
MODEL 4
REMARK VINA RESULT:      -5.4      3.558      4.853
REMARK  Name = 
REMARK  1 active torsions:
REMARK  status: ('A' for Active; 'I' for Inactive)
REMARK    1  A    between atoms: O_1  and  C_2
REMARK                            x       y       z     vdW  Elec       q    Type
REMARK                         _______ _______ _______ _____ _____    ______ ____
ROOT
ATOM      1  C   UNL     1       2.624   4.302  17.717  0.00  0.00    +0.000 A 
ATOM      2  C   UNL     1       2.675   5.650  18.098  0.00  0.00    +0.000 A 
ATOM      3  C   UNL     1       3.791   6.428  17.780  0.00  0.00    +0.000 A 
ATOM      4  C   UNL     1       4.868   5.869  17.077  0.00  0.00    +0.000 A 
ATOM      5  C   UNL     1       4.804   4.520  16.664  0.00  0.00    +0.000 A 
ATOM      6  C   UNL     1       3.687   3.742  17.002  0.00  0.00    +0.000 A 
ATOM      7  C   UNL     1       5.922   3.908  15.861  0.00  0.00    +0.000 C 
ATOM      8  C   UNL     1       6.826   4.990  15.265  0.00  0.00    +0.000 C 
ATOM      9  N   UNL     1       7.233   5.920  16.314  0.00  0.00    +0.000 NA
ATOM     10  C   UNL     1       6.089   6.717  16.794  0.00  0.00    +0.000 C 
ATOM     11  H   UNL     1       7.957   6.575  15.938  0.00  0.00    +0.000 HD
ENDROOT
BRANCH   1  12
ATOM     12  O   UNL     1       1.560   3.535  18.033  0.00  0.00    +0.000 OA
ATOM     13  H   UNL     1       0.769   3.500  17.476  0.00  0.00    +0.000 HD
ENDBRANCH   1  12
TORSDOF 1
ENDMDL
MODEL 5
REMARK VINA RESULT:      -5.4      0.907      2.161
REMARK  Name = 
REMARK  1 active torsions:
REMARK  status: ('A' for Active; 'I' for Inactive)
REMARK    1  A    between atoms: O_1  and  C_2
REMARK                            x       y       z     vdW  Elec       q    Type
REMARK                         _______ _______ _______ _____ _____    ______ ____
ROOT
ATOM      1  C   UNL     1       2.250   6.687  19.180  0.00  0.00    +0.000 A 
ATOM      2  C   UNL     1       1.853   6.240  20.449  0.00  0.00    +0.000 A 
ATOM      3  C   UNL     1       1.672   4.875  20.687  0.00  0.00    +0.000 A 
ATOM      4  C   UNL     1       1.885   3.941  19.662  0.00  0.00    +0.000 A 
ATOM      5  C   UNL     1       2.316   4.387  18.394  0.00  0.00    +0.000 A 
ATOM      6  C   UNL     1       2.480   5.761  18.159  0.00  0.00    +0.000 A 
ATOM      7  C   UNL     1       2.605   3.404  17.290  0.00  0.00    +0.000 C 
ATOM      8  C   UNL     1       2.758   1.985  17.845  0.00  0.00    +0.000 C 
ATOM      9  N   UNL     1       1.616   1.668  18.696  0.00  0.00    +0.000 NA
ATOM     10  C   UNL     1       1.628   2.475  19.931  0.00  0.00    +0.000 C 
ATOM     11  H   UNL     1       1.650   0.656  18.963  0.00  0.00    +0.000 HD
ENDROOT
BRANCH   1  12
ATOM     12  O   UNL     1       2.411   8.003  18.932  0.00  0.00    +0.000 OA
ATOM     13  H   UNL     1       1.664   8.619  18.922  0.00  0.00    +0.000 HD
ENDBRANCH   1  12
TORSDOF 1
ENDMDL
MODEL 6
REMARK VINA RESULT:      -5.4      2.839      4.465
REMARK  Name = 
REMARK  1 active torsions:
REMARK  status: ('A' for Active; 'I' for Inactive)
REMARK    1  A    between atoms: O_1  and  C_2
REMARK                            x       y       z     vdW  Elec       q    Type
REMARK                         _______ _______ _______ _____ _____    ______ ____
ROOT
ATOM      1  C   UNL     1       2.067   2.702  18.356  0.00  0.00    +0.000 A 
ATOM      2  C   UNL     1       1.329   2.629  19.545  0.00  0.00    +0.000 A 
ATOM      3  C   UNL     1       1.126   3.776  20.317  0.00  0.00    +0.000 A 
ATOM      4  C   UNL     1       1.659   5.008  19.910  0.00  0.00    +0.000 A 
ATOM      5  C   UNL     1       2.375   5.089  18.696  0.00  0.00    +0.000 A 
ATOM      6  C   UNL     1       2.587   3.930  17.935  0.00  0.00    +0.000 A 
ATOM      7  C   UNL     1       2.911   6.409  18.207  0.00  0.00    +0.000 C 
ATOM      8  C   UNL     1       2.248   7.577  18.940  0.00  0.00    +0.000 C 
ATOM      9  N   UNL     1       2.323   7.356  20.380  0.00  0.00    +0.000 NA
ATOM     10  C   UNL     1       1.473   6.224  20.793  0.00  0.00    +0.000 C 
ATOM     11  H   UNL     1       1.995   8.214  20.883  0.00  0.00    +0.000 HD
ENDROOT
BRANCH   1  12
ATOM     12  O   UNL     1       2.286   1.599  17.610  0.00  0.00    +0.000 OA
ATOM     13  H   UNL     1       1.908   1.495  16.724  0.00  0.00    +0.000 HD
ENDBRANCH   1  12
TORSDOF 1
ENDMDL
MODEL 7
REMARK VINA RESULT:      -5.4      3.087      4.489
REMARK  Name = 
REMARK  1 active torsions:
REMARK  status: ('A' for Active; 'I' for Inactive)
REMARK    1  A    between atoms: O_1  and  C_2
REMARK                            x       y       z     vdW  Elec       q    Type
REMARK                         _______ _______ _______ _____ _____    ______ ____
ROOT
ATOM      1  C   UNL     1       2.091   2.815  18.266  0.00  0.00    +0.000 A 
ATOM      2  C   UNL     1       1.552   4.016  18.747  0.00  0.00    +0.000 A 
ATOM      3  C   UNL     1       2.182   5.231  18.464  0.00  0.00    +0.000 A 
ATOM      4  C   UNL     1       3.356   5.260  17.697  0.00  0.00    +0.000 A 
ATOM      5  C   UNL     1       3.881   4.054  17.184  0.00  0.00    +0.000 A 
ATOM      6  C   UNL     1       3.251   2.837  17.487  0.00  0.00    +0.000 A 
ATOM      7  C   UNL     1       5.109   4.059  16.312  0.00  0.00    +0.000 C 
ATOM      8  C   UNL     1       5.399   5.465  15.780  0.00  0.00    +0.000 C 
ATOM      9  N   UNL     1       5.401   6.416  16.887  0.00  0.00    +0.000 NA
ATOM     10  C   UNL     1       4.049   6.582  17.452  0.00  0.00    +0.000 C 
ATOM     11  H   UNL     1       5.733   7.348  16.546  0.00  0.00    +0.000 HD
ENDROOT
BRANCH   1  12
ATOM     12  O   UNL     1       1.503   1.634  18.547  0.00  0.00    +0.000 OA
ATOM     13  H   UNL     1       1.207   1.029  17.851  0.00  0.00    +0.000 HD
ENDBRANCH   1  12
TORSDOF 1
ENDMDL
MODEL 8
REMARK VINA RESULT:      -5.4      2.463      3.882
REMARK  Name = 
REMARK  1 active torsions:
REMARK  status: ('A' for Active; 'I' for Inactive)
REMARK    1  A    between atoms: O_1  and  C_2
REMARK                            x       y       z     vdW  Elec       q    Type
REMARK                         _______ _______ _______ _____ _____    ______ ____
ROOT
ATOM      1  C   UNL     1       1.397   3.225  19.262  0.00  0.00    +0.000 A 
ATOM      2  C   UNL     1       2.087   2.156  18.674  0.00  0.00    +0.000 A 
ATOM      3  C   UNL     1       3.182   2.400  17.841  0.00  0.00    +0.000 A 
ATOM      4  C   UNL     1       3.600   3.715  17.586  0.00  0.00    +0.000 A 
ATOM      5  C   UNL     1       2.925   4.791  18.203  0.00  0.00    +0.000 A 
ATOM      6  C   UNL     1       1.817   4.537  19.025  0.00  0.00    +0.000 A 
ATOM      7  C   UNL     1       3.385   6.210  17.991  0.00  0.00    +0.000 C 
ATOM      8  C   UNL     1       4.803   6.248  17.417  0.00  0.00    +0.000 C 
ATOM      9  N   UNL     1       4.882   5.374  16.251  0.00  0.00    +0.000 NA
ATOM     10  C   UNL     1       4.752   3.956  16.636  0.00  0.00    +0.000 C 
ATOM     11  H   UNL     1       5.806   5.504  15.778  0.00  0.00    +0.000 HD
ENDROOT
BRANCH   1  12
ATOM     12  O   UNL     1       0.327   3.004  20.053  0.00  0.00    +0.000 OA
ATOM     13  H   UNL     1      -0.485   2.596  19.718  0.00  0.00    +0.000 HD
ENDBRANCH   1  12
TORSDOF 1
ENDMDL
MODEL 9
REMARK VINA RESULT:      -5.3      3.136      4.391
REMARK  Name = 
REMARK  1 active torsions:
REMARK  status: ('A' for Active; 'I' for Inactive)
REMARK    1  A    between atoms: O_1  and  C_2
REMARK                            x       y       z     vdW  Elec       q    Type
REMARK                         _______ _______ _______ _____ _____    ______ ____
ROOT
ATOM      1  C   UNL     1       1.509   2.504  18.628  0.00  0.00    +0.000 A 
ATOM      2  C   UNL     1       1.886   2.864  19.929  0.00  0.00    +0.000 A 
ATOM      3  C   UNL     1       3.128   3.461  20.160  0.00  0.00    +0.000 A 
ATOM      4  C   UNL     1       4.007   3.705  19.095  0.00  0.00    +0.000 A 
ATOM      5  C   UNL     1       3.615   3.372  17.780  0.00  0.00    +0.000 A 
ATOM      6  C   UNL     1       2.373   2.759  17.559  0.00  0.00    +0.000 A 
ATOM      7  C   UNL     1       4.516   3.672  16.610  0.00  0.00    +0.000 C 
ATOM      8  C   UNL     1       5.603   4.677  16.997  0.00  0.00    +0.000 C 
ATOM      9  N   UNL     1       6.272   4.228  18.215  0.00  0.00    +0.000 NA
ATOM     10  C   UNL     1       5.369   4.301  19.378  0.00  0.00    +0.000 C 
ATOM     11  H   UNL     1       7.102   4.838  18.402  0.00  0.00    +0.000 HD
ENDROOT
BRANCH   1  12
ATOM     12  O   UNL     1       0.321   1.910  18.393  0.00  0.00    +0.000 OA
ATOM     13  H   UNL     1      -0.100   1.329  19.043  0.00  0.00    +0.000 HD
ENDBRANCH   1  12
TORSDOF 1
ENDMDL
