MODEL 1
REMARK VINA RESULT:      -8.4      0.000      0.000
REMARK  Name = 
REMARK  9 active torsions:
REMARK  status: ('A' for Active; 'I' for Inactive)
REMARK    1  A    between atoms: C_1  and  N_2
REMARK    2  A    between atoms: N_2  and  C_3
REMARK    3  A    between atoms: C_4  and  C_6
REMARK    4  A    between atoms: C_10  and  C_11
REMARK    5  A    between atoms: C_11  and  N_12
REMARK    6  A    between atoms: N_12  and  C_13
REMARK    7  A    between atoms: C_19  and  C_20
REMARK    8  A    between atoms: C_20  and  O_22
REMARK    9  A    between atoms: C_25  and  O_26
REMARK                            x       y       z     vdW  Elec       q    Type
REMARK                         _______ _______ _______ _____ _____    ______ ____
ROOT
ATOM      1  N   UNL     1       2.171   5.449  19.364  0.00  0.00    +0.000 N 
ATOM      2  H   UNL     1       1.778   4.668  19.902  0.00  0.00    +0.000 HD
ENDROOT
BRANCH   1   3
ATOM      3  C   UNL     1       3.230   4.932  18.597  0.00  0.00    +0.000 A 
ATOM      4  C   UNL     1       3.065   4.116  17.472  0.00  0.00    +0.000 A 
ATOM      5  C   UNL     1       4.145   3.709  16.675  0.00  0.00    +0.000 A 
ATOM      6  C   UNL     1       5.415   4.160  17.042  0.00  0.00    +0.000 A 
ATOM      7  N   UNL     1       6.649   3.953  16.489  0.00  0.00    +0.000 N 
ATOM      8  N   UNL     1       7.657   4.575  17.131  0.00  0.00    +0.000 NA
ATOM      9  C   UNL     1       7.035   5.209  18.152  0.00  0.00    +0.000 A 
ATOM     10  C   UNL     1       5.632   4.985  18.133  0.00  0.00    +0.000 A 
ATOM     11  C   UNL     1       4.526   5.388  18.912  0.00  0.00    +0.000 A 
ATOM     12  H   UNL     1       6.868   3.396  15.671  0.00  0.00    +0.000 HD
BRANCH   9  13
ATOM     13  C   UNL     1       7.823   6.012  19.095  0.00  0.00    +0.000 C 
ATOM     14  O   UNL     1       8.360   7.077  18.830  0.00  0.00    +0.000 OA
BRANCH  13  15
ATOM     15  O   UNL     1       7.885   5.437  20.327  0.00  0.00    +0.000 OA
ATOM     16  H   UNL     1       8.841   5.266  20.502  0.00  0.00    +0.000 HD
ENDBRANCH  13  15
ENDBRANCH   9  13
ENDBRANCH   1   3
BRANCH   1  17
ATOM     17  C   UNL     1       2.427   6.586  20.255  0.00  0.00    +0.000 C 
BRANCH  17  22
ATOM     18  C   UNL     1       0.813  10.067  19.771  0.00  0.00    +0.000 A 
ATOM     19  C   UNL     1       1.287  10.342  18.480  0.00  0.00    +0.000 A 
ATOM     20  C   UNL     1       1.933   9.364  17.726  0.00  0.00    +0.000 A 
ATOM     21  C   UNL     1       2.249   8.141  18.305  0.00  0.00    +0.000 A 
ATOM     22  C   UNL     1       1.899   7.869  19.638  0.00  0.00    +0.000 A 
ATOM     23  C   UNL     1       1.098   8.804  20.327  0.00  0.00    +0.000 A 
BRANCH  18  27
ATOM     24  C   UNL     1      -1.568  12.753  21.129  0.00  0.00    +0.000 C 
ATOM     25  N   UNL     1      -1.060  11.711  20.251  0.00  0.00    +0.000 N 
ATOM     26  C   UNL     1      -1.880  11.372  19.099  0.00  0.00    +0.000 C 
ATOM     27  C   UNL     1       0.178  11.146  20.599  0.00  0.00    +0.000 C 
ATOM     28  O   UNL     1       0.801  11.563  21.580  0.00  0.00    +0.000 OA
ENDBRANCH  18  27
BRANCH  23  29
ATOM     29  O   UNL     1       0.581   8.471  21.552  0.00  0.00    +0.000 OA
ATOM     30  H   UNL     1       1.200   8.775  22.251  0.00  0.00    +0.000 HD
ENDBRANCH  23  29
ENDBRANCH  17  22
ENDBRANCH   1  17
TORSDOF 7
ENDMDL
MODEL 2
REMARK VINA RESULT:      -8.2      2.288      2.944
REMARK  Name = 
REMARK  9 active torsions:
REMARK  status: ('A' for Active; 'I' for Inactive)
REMARK    1  A    between atoms: C_1  and  N_2
REMARK    2  A    between atoms: N_2  and  C_3
REMARK    3  A    between atoms: C_4  and  C_6
REMARK    4  A    between atoms: C_10  and  C_11
REMARK    5  A    between atoms: C_11  and  N_12
REMARK    6  A    between atoms: N_12  and  C_13
REMARK    7  A    between atoms: C_19  and  C_20
REMARK    8  A    between atoms: C_20  and  O_22
REMARK    9  A    between atoms: C_25  and  O_26
REMARK                            x       y       z     vdW  Elec       q    Type
REMARK                         _______ _______ _______ _____ _____    ______ ____
ROOT
ATOM      1  N   UNL     1       2.647   6.690  17.905  0.00  0.00    +0.000 N 
ATOM      2  H   UNL     1       2.053   6.326  18.658  0.00  0.00    +0.000 HD
ENDROOT
BRANCH   1   3
ATOM      3  C   UNL     1       3.930   6.143  18.090  0.00  0.00    +0.000 A 
ATOM      4  C   UNL     1       4.454   5.762  19.331  0.00  0.00    +0.000 A 
ATOM      5  C   UNL     1       5.697   5.123  19.456  0.00  0.00    +0.000 A 
ATOM      6  C   UNL     1       6.405   4.868  18.279  0.00  0.00    +0.000 A 
ATOM      7  N   UNL     1       7.616   4.272  18.057  0.00  0.00    +0.000 N 
ATOM      8  N   UNL     1       7.968   4.195  16.759  0.00  0.00    +0.000 NA
ATOM      9  C   UNL     1       6.928   4.776  16.117  0.00  0.00    +0.000 A 
ATOM     10  C   UNL     1       5.924   5.206  17.025  0.00  0.00    +0.000 A 
ATOM     11  C   UNL     1       4.665   5.838  16.928  0.00  0.00    +0.000 A 
ATOM     12  H   UNL     1       8.252   3.898  18.753  0.00  0.00    +0.000 HD
BRANCH   9  13
ATOM     13  C   UNL     1       6.947   4.881  14.653  0.00  0.00    +0.000 C 
ATOM     14  O   UNL     1       7.707   5.591  14.012  0.00  0.00    +0.000 OA
BRANCH  13  15
ATOM     15  O   UNL     1       6.016   4.077  14.071  0.00  0.00    +0.000 OA
ATOM     16  H   UNL     1       5.321   3.924  14.754  0.00  0.00    +0.000 HD
ENDBRANCH  13  15
ENDBRANCH   9  13
ENDBRANCH   1   3
BRANCH   1  17
ATOM     17  C   UNL     1       2.502   8.147  17.818  0.00  0.00    +0.000 C 
BRANCH  17  22
ATOM     18  C   UNL     1      -0.015  10.135  19.978  0.00  0.00    +0.000 A 
ATOM     19  C   UNL     1      -0.023   9.307  21.109  0.00  0.00    +0.000 A 
ATOM     20  C   UNL     1       0.892   8.265  21.246  0.00  0.00    +0.000 A 
ATOM     21  C   UNL     1       1.730   7.937  20.186  0.00  0.00    +0.000 A 
ATOM     22  C   UNL     1       1.685   8.667  18.987  0.00  0.00    +0.000 A 
ATOM     23  C   UNL     1       0.876   9.821  18.932  0.00  0.00    +0.000 A 
BRANCH  18  27
ATOM     24  C   UNL     1      -2.086  13.346  20.346  0.00  0.00    +0.000 C 
ATOM     25  N   UNL     1      -1.029  12.378  20.597  0.00  0.00    +0.000 N 
ATOM     26  C   UNL     1      -0.076  12.711  21.643  0.00  0.00    +0.000 C 
ATOM     27  C   UNL     1      -1.046  11.214  19.811  0.00  0.00    +0.000 C 
ATOM     28  O   UNL     1      -1.948  11.028  18.988  0.00  0.00    +0.000 OA
ENDBRANCH  18  27
BRANCH  23  29
ATOM     29  O   UNL     1       0.969  10.656  17.848  0.00  0.00    +0.000 OA
ATOM     30  H   UNL     1       0.918  11.585  18.158  0.00  0.00    +0.000 HD
ENDBRANCH  23  29
ENDBRANCH  17  22
ENDBRANCH   1  17
TORSDOF 7
ENDMDL
MODEL 3
REMARK VINA RESULT:      -8.0      0.849      1.256
REMARK  Name = 
REMARK  9 active torsions:
REMARK  status: ('A' for Active; 'I' for Inactive)
REMARK    1  A    between atoms: C_1  and  N_2
REMARK    2  A    between atoms: N_2  and  C_3
REMARK    3  A    between atoms: C_4  and  C_6
REMARK    4  A    between atoms: C_10  and  C_11
REMARK    5  A    between atoms: C_11  and  N_12
REMARK    6  A    between atoms: N_12  and  C_13
REMARK    7  A    between atoms: C_19  and  C_20
REMARK    8  A    between atoms: C_20  and  O_22
REMARK    9  A    between atoms: C_25  and  O_26
REMARK                            x       y       z     vdW  Elec       q    Type
REMARK                         _______ _______ _______ _____ _____    ______ ____
ROOT
ATOM      1  N   UNL     1       2.186   5.540  19.263  0.00  0.00    +0.000 N 
ATOM      2  H   UNL     1       1.760   4.750  19.759  0.00  0.00    +0.000 HD
ENDROOT
BRANCH   1   3
ATOM      3  C   UNL     1       3.268   5.030  18.523  0.00  0.00    +0.000 A 
ATOM      4  C   UNL     1       3.139   4.331  17.317  0.00  0.00    +0.000 A 
ATOM      5  C   UNL     1       4.250   3.932  16.560  0.00  0.00    +0.000 A 
ATOM      6  C   UNL     1       5.514   4.267  17.054  0.00  0.00    +0.000 A 
ATOM      7  N   UNL     1       6.771   4.035  16.568  0.00  0.00    +0.000 N 
ATOM      8  N   UNL     1       7.763   4.531  17.333  0.00  0.00    +0.000 NA
ATOM      9  C   UNL     1       7.104   5.108  18.364  0.00  0.00    +0.000 A 
ATOM     10  C   UNL     1       5.697   4.975  18.230  0.00  0.00    +0.000 A 
ATOM     11  C   UNL     1       4.561   5.373  18.967  0.00  0.00    +0.000 A 
ATOM     12  H   UNL     1       7.018   3.541  15.717  0.00  0.00    +0.000 HD
BRANCH   9  13
ATOM     13  C   UNL     1       7.866   5.770  19.431  0.00  0.00    +0.000 C 
ATOM     14  O   UNL     1       8.002   5.339  20.565  0.00  0.00    +0.000 OA
BRANCH  13  15
ATOM     15  O   UNL     1       8.426   6.937  19.009  0.00  0.00    +0.000 OA
ATOM     16  H   UNL     1       7.772   7.348  18.395  0.00  0.00    +0.000 HD
ENDBRANCH  13  15
ENDBRANCH   9  13
ENDBRANCH   1   3
BRANCH   1  17
ATOM     17  C   UNL     1       2.423   6.644  20.199  0.00  0.00    +0.000 C 
BRANCH  17  22
ATOM     18  C   UNL     1       0.744  10.113  19.883  0.00  0.00    +0.000 A 
ATOM     19  C   UNL     1       1.177  10.441  18.590  0.00  0.00    +0.000 A 
ATOM     20  C   UNL     1       1.815   9.499  17.784  0.00  0.00    +0.000 A 
ATOM     21  C   UNL     1       2.167   8.262  18.311  0.00  0.00    +0.000 A 
ATOM     22  C   UNL     1       1.859   7.939  19.643  0.00  0.00    +0.000 A 
ATOM     23  C   UNL     1       1.063   8.836  20.386  0.00  0.00    +0.000 A 
BRANCH  18  27
ATOM     24  C   UNL     1       0.014  13.322  21.858  0.00  0.00    +0.000 C 
ATOM     25  N   UNL     1       0.716  12.404  20.976  0.00  0.00    +0.000 N 
ATOM     26  C   UNL     1       1.972  12.873  20.413  0.00  0.00    +0.000 C 
ATOM     27  C   UNL     1       0.115  11.152  20.766  0.00  0.00    +0.000 C 
ATOM     28  O   UNL     1      -0.932  10.856  21.349  0.00  0.00    +0.000 OA
ENDBRANCH  18  27
BRANCH  23  29
ATOM     29  O   UNL     1       0.586   8.453  21.613  0.00  0.00    +0.000 OA
ATOM     30  H   UNL     1       0.774   7.498  21.742  0.00  0.00    +0.000 HD
ENDBRANCH  23  29
ENDBRANCH  17  22
ENDBRANCH   1  17
TORSDOF 7
ENDMDL
MODEL 4
REMARK VINA RESULT:      -7.9      3.416      5.138
REMARK  Name = 
REMARK  9 active torsions:
REMARK  status: ('A' for Active; 'I' for Inactive)
REMARK    1  A    between atoms: C_1  and  N_2
REMARK    2  A    between atoms: N_2  and  C_3
REMARK    3  A    between atoms: C_4  and  C_6
REMARK    4  A    between atoms: C_10  and  C_11
REMARK    5  A    between atoms: C_11  and  N_12
REMARK    6  A    between atoms: N_12  and  C_13
REMARK    7  A    between atoms: C_19  and  C_20
REMARK    8  A    between atoms: C_20  and  O_22
REMARK    9  A    between atoms: C_25  and  O_26
REMARK                            x       y       z     vdW  Elec       q    Type
REMARK                         _______ _______ _______ _____ _____    ______ ____
ROOT
ATOM      1  N   UNL     1       4.518   2.921  17.720  0.00  0.00    +0.000 N 
ATOM      2  H   UNL     1       4.675   1.939  17.470  0.00  0.00    +0.000 HD
ENDROOT
BRANCH   1   3
ATOM      3  C   UNL     1       5.333   3.699  16.878  0.00  0.00    +0.000 A 
ATOM      4  C   UNL     1       6.238   4.666  17.330  0.00  0.00    +0.000 A 
ATOM      5  C   UNL     1       7.107   5.344  16.462  0.00  0.00    +0.000 A 
ATOM      6  C   UNL     1       7.045   5.010  15.107  0.00  0.00    +0.000 A 
ATOM      7  N   UNL     1       7.741   5.471  14.023  0.00  0.00    +0.000 N 
ATOM      8  N   UNL     1       7.403   4.887  12.857  0.00  0.00    +0.000 NA
ATOM      9  C   UNL     1       6.436   4.010  13.213  0.00  0.00    +0.000 A 
ATOM     10  C   UNL     1       6.183   4.046  14.610  0.00  0.00    +0.000 A 
ATOM     11  C   UNL     1       5.327   3.372  15.507  0.00  0.00    +0.000 A 
ATOM     12  H   UNL     1       8.461   6.184  14.016  0.00  0.00    +0.000 HD
BRANCH   9  13
ATOM     13  C   UNL     1       5.806   3.170  12.187  0.00  0.00    +0.000 C 
ATOM     14  O   UNL     1       4.700   3.364  11.706  0.00  0.00    +0.000 OA
BRANCH  13  15
ATOM     15  O   UNL     1       6.608   2.136  11.811  0.00  0.00    +0.000 OA
ATOM     16  H   UNL     1       6.788   2.266  10.849  0.00  0.00    +0.000 HD
ENDBRANCH  13  15
ENDBRANCH   9  13
ENDBRANCH   1   3
BRANCH   1  17
ATOM     17  C   UNL     1       4.633   3.089  19.173  0.00  0.00    +0.000 C 
BRANCH  17  22
ATOM     18  C   UNL     1       1.987   5.692  20.257  0.00  0.00    +0.000 A 
ATOM     19  C   UNL     1       0.900   4.825  20.440  0.00  0.00    +0.000 A 
ATOM     20  C   UNL     1       1.068   3.442  20.406  0.00  0.00    +0.000 A 
ATOM     21  C   UNL     1       2.296   2.903  20.040  0.00  0.00    +0.000 A 
ATOM     22  C   UNL     1       3.380   3.740  19.730  0.00  0.00    +0.000 A 
ATOM     23  C   UNL     1       3.238   5.128  19.936  0.00  0.00    +0.000 A 
BRANCH  18  27
ATOM     24  C   UNL     1       1.702   9.356  19.151  0.00  0.00    +0.000 C 
ATOM     25  N   UNL     1       1.915   7.921  19.046  0.00  0.00    +0.000 N 
ATOM     26  C   UNL     1       2.253   7.407  17.728  0.00  0.00    +0.000 C 
ATOM     27  C   UNL     1       1.784   7.179  20.231  0.00  0.00    +0.000 C 
ATOM     28  O   UNL     1       1.545   7.748  21.301  0.00  0.00    +0.000 OA
ENDBRANCH  18  27
BRANCH  23  29
ATOM     29  O   UNL     1       4.339   5.939  19.832  0.00  0.00    +0.000 OA
ATOM     30  H   UNL     1       5.128   5.443  20.140  0.00  0.00    +0.000 HD
ENDBRANCH  23  29
ENDBRANCH  17  22
ENDBRANCH   1  17
TORSDOF 7
ENDMDL
MODEL 5
REMARK VINA RESULT:      -7.9      3.019      4.025
REMARK  Name = 
REMARK  9 active torsions:
REMARK  status: ('A' for Active; 'I' for Inactive)
REMARK    1  A    between atoms: C_1  and  N_2
REMARK    2  A    between atoms: N_2  and  C_3
REMARK    3  A    between atoms: C_4  and  C_6
REMARK    4  A    between atoms: C_10  and  C_11
REMARK    5  A    between atoms: C_11  and  N_12
REMARK    6  A    between atoms: N_12  and  C_13
REMARK    7  A    between atoms: C_19  and  C_20
REMARK    8  A    between atoms: C_20  and  O_22
REMARK    9  A    between atoms: C_25  and  O_26
REMARK                            x       y       z     vdW  Elec       q    Type
REMARK                         _______ _______ _______ _____ _____    ______ ____
ROOT
ATOM      1  N   UNL     1       3.172   7.856  17.852  0.00  0.00    +0.000 N 
ATOM      2  H   UNL     1       3.496   8.171  16.931  0.00  0.00    +0.000 HD
ENDROOT
BRANCH   1   3
ATOM      3  C   UNL     1       3.680   6.559  18.047  0.00  0.00    +0.000 A 
ATOM      4  C   UNL     1       4.859   6.077  17.466  0.00  0.00    +0.000 A 
ATOM      5  C   UNL     1       5.383   4.812  17.772  0.00  0.00    +0.000 A 
ATOM      6  C   UNL     1       4.681   4.037  18.698  0.00  0.00    +0.000 A 
ATOM      7  N   UNL     1       4.919   2.788  19.205  0.00  0.00    +0.000 N 
ATOM      8  N   UNL     1       4.006   2.372  20.104  0.00  0.00    +0.000 NA
ATOM      9  C   UNL     1       3.137   3.406  20.173  0.00  0.00    +0.000 A 
ATOM     10  C   UNL     1       3.521   4.473  19.317  0.00  0.00    +0.000 A 
ATOM     11  C   UNL     1       3.022   5.754  18.998  0.00  0.00    +0.000 A 
ATOM     12  H   UNL     1       5.688   2.170  18.975  0.00  0.00    +0.000 HD
BRANCH   9  13
ATOM     13  C   UNL     1       1.978   3.321  21.070  0.00  0.00    +0.000 C 
ATOM     14  O   UNL     1       2.040   3.226  22.286  0.00  0.00    +0.000 OA
BRANCH  13  15
ATOM     15  O   UNL     1       0.801   3.373  20.389  0.00  0.00    +0.000 OA
ATOM     16  H   UNL     1       0.203   2.722  20.826  0.00  0.00    +0.000 HD
ENDBRANCH  13  15
ENDBRANCH   9  13
ENDBRANCH   1   3
BRANCH   1  17
ATOM     17  C   UNL     1       1.728   8.080  17.974  0.00  0.00    +0.000 C 
BRANCH  17  22
ATOM     18  C   UNL     1       1.099  11.579  19.496  0.00  0.00    +0.000 A 
ATOM     19  C   UNL     1       0.578  11.179  20.735  0.00  0.00    +0.000 A 
ATOM     20  C   UNL     1       0.614   9.845  21.136  0.00  0.00    +0.000 A 
ATOM     21  C   UNL     1       1.033   8.866  20.243  0.00  0.00    +0.000 A 
ATOM     22  C   UNL     1       1.450   9.211  18.947  0.00  0.00    +0.000 A 
ATOM     23  C   UNL     1       1.568  10.579  18.621  0.00  0.00    +0.000 A 
BRANCH  18  27
ATOM     24  C   UNL     1       1.661  15.346  19.028  0.00  0.00    +0.000 C 
ATOM     25  N   UNL     1       1.866  13.998  19.533  0.00  0.00    +0.000 N 
ATOM     26  C   UNL     1       2.939  13.819  20.497  0.00  0.00    +0.000 C 
ATOM     27  C   UNL     1       0.997  13.007  19.047  0.00  0.00    +0.000 C 
ATOM     28  O   UNL     1       0.086  13.303  18.266  0.00  0.00    +0.000 OA
ENDBRANCH  18  27
BRANCH  23  29
ATOM     29  O   UNL     1       2.159  10.938  17.436  0.00  0.00    +0.000 OA
ATOM     30  H   UNL     1       2.326  11.905  17.447  0.00  0.00    +0.000 HD
ENDBRANCH  23  29
ENDBRANCH  17  22
ENDBRANCH   1  17
TORSDOF 7
ENDMDL
MODEL 6
REMARK VINA RESULT:      -7.8      1.971      2.502
REMARK  Name = 
REMARK  9 active torsions:
REMARK  status: ('A' for Active; 'I' for Inactive)
REMARK    1  A    between atoms: C_1  and  N_2
REMARK    2  A    between atoms: N_2  and  C_3
REMARK    3  A    between atoms: C_4  and  C_6
REMARK    4  A    between atoms: C_10  and  C_11
REMARK    5  A    between atoms: C_11  and  N_12
REMARK    6  A    between atoms: N_12  and  C_13
REMARK    7  A    between atoms: C_19  and  C_20
REMARK    8  A    between atoms: C_20  and  O_22
REMARK    9  A    between atoms: C_25  and  O_26
REMARK                            x       y       z     vdW  Elec       q    Type
REMARK                         _______ _______ _______ _____ _____    ______ ____
ROOT
ATOM      1  N   UNL     1       2.121   6.685  18.455  0.00  0.00    +0.000 N 
ATOM      2  H   UNL     1       2.175   6.803  19.473  0.00  0.00    +0.000 HD
ENDROOT
BRANCH   1   3
ATOM      3  C   UNL     1       3.188   5.849  18.079  0.00  0.00    +0.000 A 
ATOM      4  C   UNL     1       3.035   4.546  17.590  0.00  0.00    +0.000 A 
ATOM      5  C   UNL     1       4.120   3.786  17.128  0.00  0.00    +0.000 A 
ATOM      6  C   UNL     1       5.381   4.386  17.165  0.00  0.00    +0.000 A 
ATOM      7  N   UNL     1       6.616   3.930  16.794  0.00  0.00    +0.000 N 
ATOM      8  N   UNL     1       7.613   4.819  16.971  0.00  0.00    +0.000 NA
ATOM      9  C   UNL     1       6.982   5.899  17.487  0.00  0.00    +0.000 A 
ATOM     10  C   UNL     1       5.586   5.679  17.619  0.00  0.00    +0.000 A 
ATOM     11  C   UNL     1       4.474   6.424  18.069  0.00  0.00    +0.000 A 
ATOM     12  H   UNL     1       6.844   3.018  16.413  0.00  0.00    +0.000 HD
BRANCH   9  13
ATOM     13  C   UNL     1       7.757   7.100  17.820  0.00  0.00    +0.000 C 
ATOM     14  O   UNL     1       7.838   8.098  17.119  0.00  0.00    +0.000 OA
BRANCH  13  15
ATOM     15  O   UNL     1       8.380   6.988  19.025  0.00  0.00    +0.000 OA
ATOM     16  H   UNL     1       7.785   7.422  19.682  0.00  0.00    +0.000 HD
ENDBRANCH  13  15
ENDBRANCH   9  13
ENDBRANCH   1   3
BRANCH   1  17
ATOM     17  C   UNL     1       1.983   7.995  17.810  0.00  0.00    +0.000 C 
BRANCH  17  22
ATOM     18  C   UNL     1       1.086  11.356  19.499  0.00  0.00    +0.000 A 
ATOM     19  C   UNL     1       0.609  10.859  20.720  0.00  0.00    +0.000 A 
ATOM     20  C   UNL     1       0.756   9.514  21.057  0.00  0.00    +0.000 A 
ATOM     21  C   UNL     1       1.246   8.615  20.116  0.00  0.00    +0.000 A 
ATOM     22  C   UNL     1       1.623   9.053  18.837  0.00  0.00    +0.000 A 
ATOM     23  C   UNL     1       1.627  10.440  18.575  0.00  0.00    +0.000 A 
BRANCH  18  27
ATOM     24  C   UNL     1       1.306  15.180  19.245  0.00  0.00    +0.000 C 
ATOM     25  N   UNL     1       1.618  13.831  19.690  0.00  0.00    +0.000 N 
ATOM     26  C   UNL     1       2.668  13.701  20.688  0.00  0.00    +0.000 C 
ATOM     27  C   UNL     1       0.866  12.792  19.118  0.00  0.00    +0.000 C 
ATOM     28  O   UNL     1      -0.039  13.044  18.316  0.00  0.00    +0.000 OA
ENDBRANCH  18  27
BRANCH  23  29
ATOM     29  O   UNL     1       2.178  10.901  17.407  0.00  0.00    +0.000 OA
ATOM     30  H   UNL     1       3.125  10.644  17.380  0.00  0.00    +0.000 HD
ENDBRANCH  23  29
ENDBRANCH  17  22
ENDBRANCH   1  17
TORSDOF 7
ENDMDL
MODEL 7
REMARK VINA RESULT:      -7.8      2.979      3.858
REMARK  Name = 
REMARK  9 active torsions:
REMARK  status: ('A' for Active; 'I' for Inactive)
REMARK    1  A    between atoms: C_1  and  N_2
REMARK    2  A    between atoms: N_2  and  C_3
REMARK    3  A    between atoms: C_4  and  C_6
REMARK    4  A    between atoms: C_10  and  C_11
REMARK    5  A    between atoms: C_11  and  N_12
REMARK    6  A    between atoms: N_12  and  C_13
REMARK    7  A    between atoms: C_19  and  C_20
REMARK    8  A    between atoms: C_20  and  O_22
REMARK    9  A    between atoms: C_25  and  O_26
REMARK                            x       y       z     vdW  Elec       q    Type
REMARK                         _______ _______ _______ _____ _____    ______ ____
ROOT
ATOM      1  N   UNL     1       2.233   7.186  17.618  0.00  0.00    +0.000 N 
ATOM      2  H   UNL     1       1.260   6.980  17.870  0.00  0.00    +0.000 HD
ENDROOT
BRANCH   1   3
ATOM      3  C   UNL     1       2.998   6.059  17.967  0.00  0.00    +0.000 A 
ATOM      4  C   UNL     1       4.305   5.825  17.523  0.00  0.00    +0.000 A 
ATOM      5  C   UNL     1       5.069   4.741  17.979  0.00  0.00    +0.000 A 
ATOM      6  C   UNL     1       4.476   3.891  18.917  0.00  0.00    +0.000 A 
ATOM      7  N   UNL     1       4.940   2.771  19.551  0.00  0.00    +0.000 N 
ATOM      8  N   UNL     1       4.064   2.219  20.414  0.00  0.00    +0.000 NA
ATOM      9  C   UNL     1       2.982   3.027  20.323  0.00  0.00    +0.000 A 
ATOM     10  C   UNL     1       3.195   4.089  19.406  0.00  0.00    +0.000 A 
ATOM     11  C   UNL     1       2.452   5.194  18.936  0.00  0.00    +0.000 A 
ATOM     12  H   UNL     1       5.847   2.334  19.437  0.00  0.00    +0.000 HD
BRANCH   9  13
ATOM     13  C   UNL     1       1.793   2.739  21.135  0.00  0.00    +0.000 C 
ATOM     14  O   UNL     1       1.810   2.431  22.317  0.00  0.00    +0.000 OA
BRANCH  13  15
ATOM     15  O   UNL     1       0.643   2.867  20.418  0.00  0.00    +0.000 OA
ATOM     16  H   UNL     1       0.128   2.040  20.577  0.00  0.00    +0.000 HD
ENDBRANCH  13  15
ENDBRANCH   9  13
ENDBRANCH   1   3
BRANCH   1  17
ATOM     17  C   UNL     1       2.616   8.499  18.150  0.00  0.00    +0.000 C 
BRANCH  17  22
ATOM     18  C   UNL     1      -0.348  10.286  19.875  0.00  0.00    +0.000 A 
ATOM     19  C   UNL     1      -0.429   9.495  21.029  0.00  0.00    +0.000 A 
ATOM     20  C   UNL     1       0.555   8.554  21.329  0.00  0.00    +0.000 A 
ATOM     21  C   UNL     1       1.556   8.282  20.403  0.00  0.00    +0.000 A 
ATOM     22  C   UNL     1       1.603   8.968  19.178  0.00  0.00    +0.000 A 
ATOM     23  C   UNL     1       0.702  10.033  18.969  0.00  0.00    +0.000 A 
BRANCH  18  27
ATOM     24  C   UNL     1      -3.434  11.959  18.322  0.00  0.00    +0.000 C 
ATOM     25  N   UNL     1      -2.428  10.939  18.575  0.00  0.00    +0.000 N 
ATOM     26  C   UNL     1      -2.539   9.710  17.807  0.00  0.00    +0.000 C 
ATOM     27  C   UNL     1      -1.445  11.251  19.529  0.00  0.00    +0.000 C 
ATOM     28  O   UNL     1      -1.433  12.358  20.075  0.00  0.00    +0.000 OA
ENDBRANCH  18  27
BRANCH  23  29
ATOM     29  O   UNL     1       0.859  10.840  17.872  0.00  0.00    +0.000 OA
ATOM     30  H   UNL     1       0.098  10.705  17.268  0.00  0.00    +0.000 HD
ENDBRANCH  23  29
ENDBRANCH  17  22
ENDBRANCH   1  17
TORSDOF 7
ENDMDL
MODEL 8
REMARK VINA RESULT:      -7.7      2.925      3.699
REMARK  Name = 
REMARK  9 active torsions:
REMARK  status: ('A' for Active; 'I' for Inactive)
REMARK    1  A    between atoms: C_1  and  N_2
REMARK    2  A    between atoms: N_2  and  C_3
REMARK    3  A    between atoms: C_4  and  C_6
REMARK    4  A    between atoms: C_10  and  C_11
REMARK    5  A    between atoms: C_11  and  N_12
REMARK    6  A    between atoms: N_12  and  C_13
REMARK    7  A    between atoms: C_19  and  C_20
REMARK    8  A    between atoms: C_20  and  O_22
REMARK    9  A    between atoms: C_25  and  O_26
REMARK                            x       y       z     vdW  Elec       q    Type
REMARK                         _______ _______ _______ _____ _____    ______ ____
ROOT
ATOM      1  N   UNL     1       3.415   7.586  18.254  0.00  0.00    +0.000 N 
ATOM      2  H   UNL     1       4.215   8.057  17.816  0.00  0.00    +0.000 HD
ENDROOT
BRANCH   1   3
ATOM      3  C   UNL     1       3.567   6.208  18.019  0.00  0.00    +0.000 A 
ATOM      4  C   UNL     1       4.285   5.664  16.948  0.00  0.00    +0.000 A 
ATOM      5  C   UNL     1       4.499   4.284  16.812  0.00  0.00    +0.000 A 
ATOM      6  C   UNL     1       3.968   3.455  17.803  0.00  0.00    +0.000 A 
ATOM      7  N   UNL     1       3.999   2.097  17.965  0.00  0.00    +0.000 N 
ATOM      8  N   UNL     1       3.373   1.656  19.074  0.00  0.00    +0.000 NA
ATOM      9  C   UNL     1       2.913   2.792  19.648  0.00  0.00    +0.000 A 
ATOM     10  C   UNL     1       3.267   3.942  18.894  0.00  0.00    +0.000 A 
ATOM     11  C   UNL     1       3.076   5.336  19.011  0.00  0.00    +0.000 A 
ATOM     12  H   UNL     1       4.433   1.416  17.352  0.00  0.00    +0.000 HD
BRANCH   9  13
ATOM     13  C   UNL     1       2.160   2.715  20.905  0.00  0.00    +0.000 C 
ATOM     14  O   UNL     1       2.654   2.526  22.007  0.00  0.00    +0.000 OA
BRANCH  13  15
ATOM     15  O   UNL     1       0.824   2.892  20.712  0.00  0.00    +0.000 OA
ATOM     16  H   UNL     1       0.663   2.730  19.752  0.00  0.00    +0.000 HD
ENDBRANCH  13  15
ENDBRANCH   9  13
ENDBRANCH   1   3
BRANCH   1  17
ATOM     17  C   UNL     1       2.168   8.244  17.846  0.00  0.00    +0.000 C 
BRANCH  17  22
ATOM     18  C   UNL     1      -0.132  10.374  20.109  0.00  0.00    +0.000 A 
ATOM     19  C   UNL     1      -0.032   9.617  21.285  0.00  0.00    +0.000 A 
ATOM     20  C   UNL     1       0.892   8.580  21.398  0.00  0.00    +0.000 A 
ATOM     21  C   UNL     1       1.626   8.184  20.285  0.00  0.00    +0.000 A 
ATOM     22  C   UNL     1       1.466   8.838  19.053  0.00  0.00    +0.000 A 
ATOM     23  C   UNL     1       0.656   9.992  19.005  0.00  0.00    +0.000 A 
BRANCH  18  27
ATOM     24  C   UNL     1      -2.234  13.552  20.572  0.00  0.00    +0.000 C 
ATOM     25  N   UNL     1      -1.167  12.589  20.793  0.00  0.00    +0.000 N 
ATOM     26  C   UNL     1      -0.213  12.902  21.845  0.00  0.00    +0.000 C 
ATOM     27  C   UNL     1      -1.174  11.447  19.975  0.00  0.00    +0.000 C 
ATOM     28  O   UNL     1      -2.077  11.274  19.151  0.00  0.00    +0.000 OA
ENDBRANCH  18  27
BRANCH  23  29
ATOM     29  O   UNL     1       0.644  10.758  17.867  0.00  0.00    +0.000 OA
ATOM     30  H   UNL     1       0.303  10.216  17.124  0.00  0.00    +0.000 HD
ENDBRANCH  23  29
ENDBRANCH  17  22
ENDBRANCH   1  17
TORSDOF 7
ENDMDL
MODEL 9
REMARK VINA RESULT:      -7.7      2.772      3.714
REMARK  Name = 
REMARK  9 active torsions:
REMARK  status: ('A' for Active; 'I' for Inactive)
REMARK    1  A    between atoms: C_1  and  N_2
REMARK    2  A    between atoms: N_2  and  C_3
REMARK    3  A    between atoms: C_4  and  C_6
REMARK    4  A    between atoms: C_10  and  C_11
REMARK    5  A    between atoms: C_11  and  N_12
REMARK    6  A    between atoms: N_12  and  C_13
REMARK    7  A    between atoms: C_19  and  C_20
REMARK    8  A    between atoms: C_20  and  O_22
REMARK    9  A    between atoms: C_25  and  O_26
REMARK                            x       y       z     vdW  Elec       q    Type
REMARK                         _______ _______ _______ _____ _____    ______ ____
ROOT
ATOM      1  N   UNL     1       2.026   8.154  18.737  0.00  0.00    +0.000 N 
ATOM      2  H   UNL     1       1.223   8.120  18.099  0.00  0.00    +0.000 HD
ENDROOT
BRANCH   1   3
ATOM      3  C   UNL     1       2.733   6.948  18.576  0.00  0.00    +0.000 A 
ATOM      4  C   UNL     1       3.825   6.783  17.716  0.00  0.00    +0.000 A 
ATOM      5  C   UNL     1       4.566   5.593  17.664  0.00  0.00    +0.000 A 
ATOM      6  C   UNL     1       4.176   4.561  18.521  0.00  0.00    +0.000 A 
ATOM      7  N   UNL     1       4.677   3.303  18.717  0.00  0.00    +0.000 N 
ATOM      8  N   UNL     1       4.030   2.587  19.657  0.00  0.00    +0.000 NA
ATOM      9  C   UNL     1       3.060   3.431  20.081  0.00  0.00    +0.000 A 
ATOM     10  C   UNL     1       3.116   4.679  19.406  0.00  0.00    +0.000 A 
ATOM     11  C   UNL     1       2.395   5.891  19.444  0.00  0.00    +0.000 A 
ATOM     12  H   UNL     1       5.461   2.874  18.238  0.00  0.00    +0.000 HD
BRANCH   9  13
ATOM     13  C   UNL     1       2.128   2.995  21.128  0.00  0.00    +0.000 C 
ATOM     14  O   UNL     1       2.448   2.687  22.267  0.00  0.00    +0.000 OA
BRANCH  13  15
ATOM     15  O   UNL     1       0.839   2.982  20.691  0.00  0.00    +0.000 OA
ATOM     16  H   UNL     1       0.739   2.158  20.159  0.00  0.00    +0.000 HD
ENDBRANCH  13  15
ENDBRANCH   9  13
ENDBRANCH   1   3
BRANCH   1  17
ATOM     17  C   UNL     1       1.579   8.541  20.079  0.00  0.00    +0.000 C 
BRANCH  17  22
ATOM     18  C   UNL     1      -0.278  11.841  20.864  0.00  0.00    +0.000 A 
ATOM     19  C   UNL     1      -0.828  12.081  19.596  0.00  0.00    +0.000 A 
ATOM     20  C   UNL     1      -0.766  11.118  18.590  0.00  0.00    +0.000 A 
ATOM     21  C   UNL     1      -0.021   9.961  18.785  0.00  0.00    +0.000 A 
ATOM     22  C   UNL     1       0.648   9.738  20.000  0.00  0.00    +0.000 A 
ATOM     23  C   UNL     1       0.432  10.640  21.062  0.00  0.00    +0.000 A 
BRANCH  18  27
ATOM     24  C   UNL     1      -1.298  14.166  23.743  0.00  0.00    +0.000 C 
ATOM     25  N   UNL     1      -1.400  13.094  22.765  0.00  0.00    +0.000 N 
ATOM     26  C   UNL     1      -2.640  12.335  22.758  0.00  0.00    +0.000 C 
ATOM     27  C   UNL     1      -0.294  12.909  21.919  0.00  0.00    +0.000 C 
ATOM     28  O   UNL     1       0.682  13.661  21.994  0.00  0.00    +0.000 OA
ENDBRANCH  18  27
BRANCH  23  29
ATOM     29  O   UNL     1       0.912  10.336  22.311  0.00  0.00    +0.000 OA
ATOM     30  H   UNL     1       1.363  11.127  22.678  0.00  0.00    +0.000 HD
ENDBRANCH  23  29
ENDBRANCH  17  22
ENDBRANCH   1  17
TORSDOF 7
ENDMDL
