MODEL 1
REMARK VINA RESULT:      -8.4      0.000      0.000
REMARK  Name = 
REMARK  3 active torsions:
REMARK  status: ('A' for Active; 'I' for Inactive)
REMARK    1  A    between atoms: C_2  and  C_14
REMARK    2  A    between atoms: C_7  and  C_8
REMARK    3  A    between atoms: C_20  and  O_21
REMARK                            x       y       z     vdW  Elec       q    Type
REMARK                         _______ _______ _______ _____ _____    ______ ____
ROOT
ATOM      1  O   UNL     1       5.492   5.576  16.603  0.00  0.00    +0.000 OA
ATOM      2  C   UNL     1       5.199   4.607  15.907  0.00  0.00    +0.000 C 
ATOM      3  N   UNL     1       4.310   3.621  16.268  0.00  0.00    +0.000 N 
ATOM      4  C   UNL     1       3.662   3.564  17.500  0.00  0.00    +0.000 A 
ATOM      5  C   UNL     1       3.259   4.706  18.180  0.00  0.00    +0.000 A 
ATOM      6  C   UNL     1       2.715   4.574  19.455  0.00  0.00    +0.000 A 
ATOM      7  C   UNL     1       2.611   3.306  20.028  0.00  0.00    +0.000 A 
ATOM      8  C   UNL     1       2.995   2.222  19.250  0.00  0.00    +0.000 A 
ATOM      9  N   UNL     1       3.477   2.322  17.990  0.00  0.00    +0.000 NA
ATOM     10  H   UNL     1       4.372   2.733  15.781  0.00  0.00    +0.000 HD
ENDROOT
BRANCH   2  11
ATOM     11  C   UNL     1       5.875   4.451  14.583  0.00  0.00    +0.000 A 
ATOM     12  C   UNL     1       5.198   3.684  13.622  0.00  0.00    +0.000 A 
ATOM     13  C   UNL     1       5.761   3.469  12.368  0.00  0.00    +0.000 A 
ATOM     14 CL   UNL     1       4.926   2.512  11.204  0.00  0.00    +0.000 Cl
ATOM     15  C   UNL     1       7.000   4.020  12.049  0.00  0.00    +0.000 A 
ATOM     16  C   UNL     1       7.677   4.799  12.984  0.00  0.00    +0.000 A 
ATOM     17  C   UNL     1       7.115   5.017  14.246  0.00  0.00    +0.000 A 
BRANCH  17  18
ATOM     18  O   UNL     1       7.791   5.803  15.144  0.00  0.00    +0.000 OA
ATOM     19  H   UNL     1       7.423   6.700  15.121  0.00  0.00    +0.000 HD
ENDBRANCH  17  18
ENDBRANCH   2  11
BRANCH   7  20
ATOM     20  C   UNL     1       2.141   3.088  21.429  0.00  0.00    +0.000 C 
ATOM     21  F   UNL     1       0.820   2.772  21.520  0.00  0.00    +0.000 F 
ATOM     22  F   UNL     1       2.810   2.078  22.054  0.00  0.00    +0.000 F 
ATOM     23  F   UNL     1       2.316   4.187  22.214  0.00  0.00    +0.000 F 
ENDBRANCH   7  20
TORSDOF 3
ENDMDL
MODEL 2
REMARK VINA RESULT:      -7.6      7.023      7.925
REMARK  Name = 
REMARK  3 active torsions:
REMARK  status: ('A' for Active; 'I' for Inactive)
REMARK    1  A    between atoms: C_2  and  C_14
REMARK    2  A    between atoms: C_7  and  C_8
REMARK    3  A    between atoms: C_20  and  O_21
REMARK                            x       y       z     vdW  Elec       q    Type
REMARK                         _______ _______ _______ _____ _____    ______ ____
ROOT
ATOM      1  O   UNL     1       7.633  10.131  17.781  0.00  0.00    +0.000 OA
ATOM      2  C   UNL     1       8.620   9.713  18.382  0.00  0.00    +0.000 C 
ATOM      3  N   UNL     1       8.856   8.390  18.678  0.00  0.00    +0.000 N 
ATOM      4  C   UNL     1       7.977   7.352  18.380  0.00  0.00    +0.000 A 
ATOM      5  C   UNL     1       7.192   7.350  17.233  0.00  0.00    +0.000 A 
ATOM      6  C   UNL     1       6.258   6.331  17.059  0.00  0.00    +0.000 A 
ATOM      7  C   UNL     1       6.116   5.356  18.045  0.00  0.00    +0.000 A 
ATOM      8  C   UNL     1       6.979   5.415  19.130  0.00  0.00    +0.000 A 
ATOM      9  N   UNL     1       7.929   6.365  19.296  0.00  0.00    +0.000 NA
ATOM     10  H   UNL     1       9.513   8.187  19.424  0.00  0.00    +0.000 HD
ENDROOT
BRANCH   2  11
ATOM     11  C   UNL     1       9.630  10.702  18.867  0.00  0.00    +0.000 A 
ATOM     12  C   UNL     1      10.354  11.390  17.880  0.00  0.00    +0.000 A 
ATOM     13  C   UNL     1      11.330  12.314  18.238  0.00  0.00    +0.000 A 
ATOM     14 CL   UNL     1      12.221  13.140  17.017  0.00  0.00    +0.000 Cl
ATOM     15  C   UNL     1      11.594  12.575  19.580  0.00  0.00    +0.000 A 
ATOM     16  C   UNL     1      10.872  11.915  20.573  0.00  0.00    +0.000 A 
ATOM     17  C   UNL     1       9.892  10.984  20.217  0.00  0.00    +0.000 A 
BRANCH  17  18
ATOM     18  O   UNL     1       9.180  10.360  21.210  0.00  0.00    +0.000 OA
ATOM     19  H   UNL     1       9.296  10.849  22.039  0.00  0.00    +0.000 HD
ENDBRANCH  17  18
ENDBRANCH   2  11
BRANCH   7  20
ATOM     20  C   UNL     1       5.066   4.294  17.986  0.00  0.00    +0.000 C 
ATOM     21  F   UNL     1       5.118   3.416  19.025  0.00  0.00    +0.000 F 
ATOM     22  F   UNL     1       3.803   4.806  17.993  0.00  0.00    +0.000 F 
ATOM     23  F   UNL     1       5.152   3.539  16.856  0.00  0.00    +0.000 F 
ENDBRANCH   7  20
TORSDOF 3
ENDMDL
MODEL 3
REMARK VINA RESULT:      -7.5      5.846      8.242
REMARK  Name = 
REMARK  3 active torsions:
REMARK  status: ('A' for Active; 'I' for Inactive)
REMARK    1  A    between atoms: C_2  and  C_14
REMARK    2  A    between atoms: C_7  and  C_8
REMARK    3  A    between atoms: C_20  and  O_21
REMARK                            x       y       z     vdW  Elec       q    Type
REMARK                         _______ _______ _______ _____ _____    ______ ____
ROOT
ATOM      1  O   UNL     1       2.303   8.953  17.348  0.00  0.00    +0.000 OA
ATOM      2  C   UNL     1       2.228   8.337  18.409  0.00  0.00    +0.000 C 
ATOM      3  N   UNL     1       2.914   7.179  18.695  0.00  0.00    +0.000 N 
ATOM      4  C   UNL     1       3.747   6.520  17.795  0.00  0.00    +0.000 A 
ATOM      5  C   UNL     1       4.524   7.201  16.866  0.00  0.00    +0.000 A 
ATOM      6  C   UNL     1       5.248   6.469  15.928  0.00  0.00    +0.000 A 
ATOM      7  C   UNL     1       5.156   5.078  15.926  0.00  0.00    +0.000 A 
ATOM      8  C   UNL     1       4.393   4.487  16.924  0.00  0.00    +0.000 A 
ATOM      9  N   UNL     1       3.724   5.175  17.878  0.00  0.00    +0.000 NA
ATOM     10  H   UNL     1       2.557   6.598  19.447  0.00  0.00    +0.000 HD
ENDROOT
BRANCH   2  11
ATOM     11  C   UNL     1       1.302   8.850  19.465  0.00  0.00    +0.000 A 
ATOM     12  C   UNL     1       0.477   9.927  19.102  0.00  0.00    +0.000 A 
ATOM     13  C   UNL     1      -0.402  10.482  20.027  0.00  0.00    +0.000 A 
ATOM     14 CL   UNL     1      -1.397  11.813  19.573  0.00  0.00    +0.000 Cl
ATOM     15  C   UNL     1      -0.480   9.971  21.320  0.00  0.00    +0.000 A 
ATOM     16  C   UNL     1       0.318   8.891  21.691  0.00  0.00    +0.000 A 
ATOM     17  C   UNL     1       1.204   8.330  20.765  0.00  0.00    +0.000 A 
BRANCH  17  18
ATOM     18  O   UNL     1       1.966   7.255  21.146  0.00  0.00    +0.000 OA
ATOM     19  H   UNL     1       2.802   7.574  21.520  0.00  0.00    +0.000 HD
ENDBRANCH  17  18
ENDBRANCH   2  11
BRANCH   7  20
ATOM     20  C   UNL     1       5.813   4.226  14.888  0.00  0.00    +0.000 C 
ATOM     21  F   UNL     1       7.022   4.698  14.479  0.00  0.00    +0.000 F 
ATOM     22  F   UNL     1       6.036   2.953  15.321  0.00  0.00    +0.000 F 
ATOM     23  F   UNL     1       5.059   4.105  13.761  0.00  0.00    +0.000 F 
ENDBRANCH   7  20
TORSDOF 3
ENDMDL
MODEL 4
REMARK VINA RESULT:      -7.3      6.090      8.374
REMARK  Name = 
REMARK  3 active torsions:
REMARK  status: ('A' for Active; 'I' for Inactive)
REMARK    1  A    between atoms: C_2  and  C_14
REMARK    2  A    between atoms: C_7  and  C_8
REMARK    3  A    between atoms: C_20  and  O_21
REMARK                            x       y       z     vdW  Elec       q    Type
REMARK                         _______ _______ _______ _____ _____    ______ ____
ROOT
ATOM      1  O   UNL     1       2.323   9.333  17.316  0.00  0.00    +0.000 OA
ATOM      2  C   UNL     1       2.018   8.733  18.345  0.00  0.00    +0.000 C 
ATOM      3  N   UNL     1       2.525   7.510  18.720  0.00  0.00    +0.000 N 
ATOM      4  C   UNL     1       3.415   6.763  17.953  0.00  0.00    +0.000 A 
ATOM      5  C   UNL     1       4.396   7.354  17.166  0.00  0.00    +0.000 A 
ATOM      6  C   UNL     1       5.178   6.547  16.344  0.00  0.00    +0.000 A 
ATOM      7  C   UNL     1       4.943   5.173  16.309  0.00  0.00    +0.000 A 
ATOM      8  C   UNL     1       3.974   4.670  17.167  0.00  0.00    +0.000 A 
ATOM      9  N   UNL     1       3.238   5.428  18.014  0.00  0.00    +0.000 NA
ATOM     10  H   UNL     1       1.996   6.972  19.398  0.00  0.00    +0.000 HD
ENDROOT
BRANCH   2  11
ATOM     11  C   UNL     1       0.996   9.344  19.248  0.00  0.00    +0.000 A 
ATOM     12  C   UNL     1       1.173   9.131  20.625  0.00  0.00    +0.000 A 
ATOM     13  C   UNL     1       0.259   9.645  21.540  0.00  0.00    +0.000 A 
ATOM     14 CL   UNL     1       0.479   9.363  23.224  0.00  0.00    +0.000 Cl
ATOM     15  C   UNL     1      -0.837  10.385  21.101  0.00  0.00    +0.000 A 
ATOM     16  C   UNL     1      -1.016  10.622  19.740  0.00  0.00    +0.000 A 
ATOM     17  C   UNL     1      -0.101  10.106  18.817  0.00  0.00    +0.000 A 
BRANCH  17  18
ATOM     18  O   UNL     1      -0.287  10.367  17.483  0.00  0.00    +0.000 OA
ATOM     19  H   UNL     1      -1.181  10.719  17.350  0.00  0.00    +0.000 HD
ENDBRANCH  17  18
ENDBRANCH   2  11
BRANCH   7  20
ATOM     20  C   UNL     1       5.661   4.253  15.377  0.00  0.00    +0.000 C 
ATOM     21  F   UNL     1       5.102   4.184  14.138  0.00  0.00    +0.000 F 
ATOM     22  F   UNL     1       6.960   4.617  15.180  0.00  0.00    +0.000 F 
ATOM     23  F   UNL     1       5.703   2.973  15.838  0.00  0.00    +0.000 F 
ENDBRANCH   7  20
TORSDOF 3
ENDMDL
MODEL 5
REMARK VINA RESULT:      -7.3      5.620      7.055
REMARK  Name = 
REMARK  3 active torsions:
REMARK  status: ('A' for Active; 'I' for Inactive)
REMARK    1  A    between atoms: C_2  and  C_14
REMARK    2  A    between atoms: C_7  and  C_8
REMARK    3  A    between atoms: C_20  and  O_21
REMARK                            x       y       z     vdW  Elec       q    Type
REMARK                         _______ _______ _______ _____ _____    ______ ____
ROOT
ATOM      1  O   UNL     1       1.653   5.871  20.720  0.00  0.00    +0.000 OA
ATOM      2  C   UNL     1       2.130   6.432  19.736  0.00  0.00    +0.000 C 
ATOM      3  N   UNL     1       2.052   7.783  19.488  0.00  0.00    +0.000 N 
ATOM      4  C   UNL     1       1.374   8.690  20.299  0.00  0.00    +0.000 A 
ATOM      5  C   UNL     1       1.318   8.554  21.681  0.00  0.00    +0.000 A 
ATOM      6  C   UNL     1       0.530   9.438  22.413  0.00  0.00    +0.000 A 
ATOM      7  C   UNL     1      -0.200  10.420  21.745  0.00  0.00    +0.000 A 
ATOM      8  C   UNL     1      -0.041  10.508  20.369  0.00  0.00    +0.000 A 
ATOM      9  N   UNL     1       0.759   9.693  19.641  0.00  0.00    +0.000 NA
ATOM     10  H   UNL     1       2.193   8.093  18.532  0.00  0.00    +0.000 HD
ENDROOT
BRANCH   2  11
ATOM     11  C   UNL     1       2.815   5.597  18.703  0.00  0.00    +0.000 A 
ATOM     12  C   UNL     1       3.983   6.135  18.139  0.00  0.00    +0.000 A 
ATOM     13  C   UNL     1       4.677   5.437  17.156  0.00  0.00    +0.000 A 
ATOM     14 CL   UNL     1       6.099   6.116  16.461  0.00  0.00    +0.000 Cl
ATOM     15  C   UNL     1       4.225   4.192  16.725  0.00  0.00    +0.000 A 
ATOM     16  C   UNL     1       3.079   3.634  17.287  0.00  0.00    +0.000 A 
ATOM     17  C   UNL     1       2.378   4.333  18.275  0.00  0.00    +0.000 A 
BRANCH  17  18
ATOM     18  O   UNL     1       1.263   3.757  18.828  0.00  0.00    +0.000 OA
ATOM     19  H   UNL     1       0.694   4.452  19.194  0.00  0.00    +0.000 HD
ENDBRANCH  17  18
ENDBRANCH   2  11
BRANCH   7  20
ATOM     20  C   UNL     1      -1.151  11.337  22.444  0.00  0.00    +0.000 C 
ATOM     21  F   UNL     1      -2.139  11.817  21.639  0.00  0.00    +0.000 F 
ATOM     22  F   UNL     1      -1.783  10.736  23.491  0.00  0.00    +0.000 F 
ATOM     23  F   UNL     1      -0.531  12.431  22.965  0.00  0.00    +0.000 F 
ENDBRANCH   7  20
TORSDOF 3
ENDMDL
MODEL 6
REMARK VINA RESULT:      -7.2      5.937      8.336
REMARK  Name = 
REMARK  3 active torsions:
REMARK  status: ('A' for Active; 'I' for Inactive)
REMARK    1  A    between atoms: C_2  and  C_14
REMARK    2  A    between atoms: C_7  and  C_8
REMARK    3  A    between atoms: C_20  and  O_21
REMARK                            x       y       z     vdW  Elec       q    Type
REMARK                         _______ _______ _______ _____ _____    ______ ____
ROOT
ATOM      1  O   UNL     1       2.380   6.572  20.100  0.00  0.00    +0.000 OA
ATOM      2  C   UNL     1       2.177   7.542  19.373  0.00  0.00    +0.000 C 
ATOM      3  N   UNL     1       2.693   7.695  18.107  0.00  0.00    +0.000 N 
ATOM      4  C   UNL     1       3.561   6.791  17.500  0.00  0.00    +0.000 A 
ATOM      5  C   UNL     1       3.471   5.420  17.710  0.00  0.00    +0.000 A 
ATOM      6  C   UNL     1       4.441   4.589  17.155  0.00  0.00    +0.000 A 
ATOM      7  C   UNL     1       5.490   5.151  16.428  0.00  0.00    +0.000 A 
ATOM      8  C   UNL     1       5.467   6.525  16.232  0.00  0.00    +0.000 A 
ATOM      9  N   UNL     1       4.507   7.347  16.717  0.00  0.00    +0.000 NA
ATOM     10  H   UNL     1       2.727   8.635  17.726  0.00  0.00    +0.000 HD
ENDROOT
BRANCH   2  11
ATOM     11  C   UNL     1       1.340   8.663  19.899  0.00  0.00    +0.000 A 
ATOM     12  C   UNL     1       1.034   8.624  21.269  0.00  0.00    +0.000 A 
ATOM     13  C   UNL     1       0.243   9.615  21.843  0.00  0.00    +0.000 A 
ATOM     14 CL   UNL     1      -0.137   9.546  23.521  0.00  0.00    +0.000 Cl
ATOM     15  C   UNL     1      -0.247  10.662  21.066  0.00  0.00    +0.000 A 
ATOM     16  C   UNL     1       0.063  10.727  19.709  0.00  0.00    +0.000 A 
ATOM     17  C   UNL     1       0.856   9.732  19.128  0.00  0.00    +0.000 A 
BRANCH  17  18
ATOM     18  O   UNL     1       1.164   9.826  17.795  0.00  0.00    +0.000 OA
ATOM     19  H   UNL     1       0.964   8.981  17.362  0.00  0.00    +0.000 HD
ENDBRANCH  17  18
ENDBRANCH   2  11
BRANCH   7  20
ATOM     20  C   UNL     1       6.628   4.342  15.894  0.00  0.00    +0.000 C 
ATOM     21  F   UNL     1       7.584   4.064  16.822  0.00  0.00    +0.000 F 
ATOM     22  F   UNL     1       6.226   3.138  15.399  0.00  0.00    +0.000 F 
ATOM     23  F   UNL     1       7.273   4.965  14.869  0.00  0.00    +0.000 F 
ENDBRANCH   7  20
TORSDOF 3
ENDMDL
MODEL 7
REMARK VINA RESULT:      -7.2      5.819      7.959
REMARK  Name = 
REMARK  3 active torsions:
REMARK  status: ('A' for Active; 'I' for Inactive)
REMARK    1  A    between atoms: C_2  and  C_14
REMARK    2  A    between atoms: C_7  and  C_8
REMARK    3  A    between atoms: C_20  and  O_21
REMARK                            x       y       z     vdW  Elec       q    Type
REMARK                         _______ _______ _______ _____ _____    ______ ____
ROOT
ATOM      1  O   UNL     1       1.932   8.367  18.173  0.00  0.00    +0.000 OA
ATOM      2  C   UNL     1       1.699   8.445  19.377  0.00  0.00    +0.000 C 
ATOM      3  N   UNL     1       1.960   7.452  20.293  0.00  0.00    +0.000 N 
ATOM      4  C   UNL     1       2.476   6.201  19.966  0.00  0.00    +0.000 A 
ATOM      5  C   UNL     1       3.397   6.022  18.940  0.00  0.00    +0.000 A 
ATOM      6  C   UNL     1       3.785   4.729  18.601  0.00  0.00    +0.000 A 
ATOM      7  C   UNL     1       3.224   3.646  19.277  0.00  0.00    +0.000 A 
ATOM      8  C   UNL     1       2.351   3.927  20.318  0.00  0.00    +0.000 A 
ATOM      9  N   UNL     1       1.999   5.177  20.701  0.00  0.00    +0.000 NA
ATOM     10  H   UNL     1       1.460   7.486  21.176  0.00  0.00    +0.000 HD
ENDROOT
BRANCH   2  11
ATOM     11  C   UNL     1       1.052   9.688  19.898  0.00  0.00    +0.000 A 
ATOM     12  C   UNL     1       0.405   9.582  21.140  0.00  0.00    +0.000 A 
ATOM     13  C   UNL     1      -0.242  10.683  21.692  0.00  0.00    +0.000 A 
ATOM     14 CL   UNL     1      -1.045  10.535  23.209  0.00  0.00    +0.000 Cl
ATOM     15  C   UNL     1      -0.249  11.905  21.024  0.00  0.00    +0.000 A 
ATOM     16  C   UNL     1       0.403  12.032  19.799  0.00  0.00    +0.000 A 
ATOM     17  C   UNL     1       1.054  10.928  19.240  0.00  0.00    +0.000 A 
BRANCH  17  18
ATOM     18  O   UNL     1       1.706  11.081  18.042  0.00  0.00    +0.000 OA
ATOM     19  H   UNL     1       1.252  11.758  17.517  0.00  0.00    +0.000 HD
ENDBRANCH  17  18
ENDBRANCH   2  11
BRANCH   7  20
ATOM     20  C   UNL     1       3.503   2.226  18.902  0.00  0.00    +0.000 C 
ATOM     21  F   UNL     1       3.960   2.076  17.629  0.00  0.00    +0.000 F 
ATOM     22  F   UNL     1       4.440   1.648  19.705  0.00  0.00    +0.000 F 
ATOM     23  F   UNL     1       2.398   1.436  18.997  0.00  0.00    +0.000 F 
ENDBRANCH   7  20
TORSDOF 3
ENDMDL
MODEL 8
REMARK VINA RESULT:      -7.1      6.651      9.153
REMARK  Name = 
REMARK  3 active torsions:
REMARK  status: ('A' for Active; 'I' for Inactive)
REMARK    1  A    between atoms: C_2  and  C_14
REMARK    2  A    between atoms: C_7  and  C_8
REMARK    3  A    between atoms: C_20  and  O_21
REMARK                            x       y       z     vdW  Elec       q    Type
REMARK                         _______ _______ _______ _____ _____    ______ ____
ROOT
ATOM      1  O   UNL     1       0.821   9.469  18.952  0.00  0.00    +0.000 OA
ATOM      2  C   UNL     1       0.902   9.188  20.146  0.00  0.00    +0.000 C 
ATOM      3  N   UNL     1       1.544   8.080  20.649  0.00  0.00    +0.000 N 
ATOM      4  C   UNL     1       2.144   7.098  19.864  0.00  0.00    +0.000 A 
ATOM      5  C   UNL     1       2.780   7.393  18.665  0.00  0.00    +0.000 A 
ATOM      6  C   UNL     1       3.261   6.346  17.883  0.00  0.00    +0.000 A 
ATOM      7  C   UNL     1       3.071   5.031  18.307  0.00  0.00    +0.000 A 
ATOM      8  C   UNL     1       2.468   4.840  19.542  0.00  0.00    +0.000 A 
ATOM      9  N   UNL     1       2.040   5.843  20.344  0.00  0.00    +0.000 NA
ATOM     10  H   UNL     1       1.293   7.779  21.585  0.00  0.00    +0.000 HD
ENDROOT
BRANCH   2  11
ATOM     11  C   UNL     1       0.229  10.084  21.135  0.00  0.00    +0.000 A 
ATOM     12  C   UNL     1       0.374  11.465  20.926  0.00  0.00    +0.000 A 
ATOM     13  C   UNL     1      -0.201  12.374  21.808  0.00  0.00    +0.000 A 
ATOM     14 CL   UNL     1      -0.001  14.065  21.549  0.00  0.00    +0.000 Cl
ATOM     15  C   UNL     1      -0.934  11.925  22.904  0.00  0.00    +0.000 A 
ATOM     16  C   UNL     1      -1.105  10.559  23.115  0.00  0.00    +0.000 A 
ATOM     17  C   UNL     1      -0.527   9.641  22.232  0.00  0.00    +0.000 A 
BRANCH  17  18
ATOM     18  O   UNL     1      -0.723   8.301  22.448  0.00  0.00    +0.000 OA
ATOM     19  H   UNL     1      -1.215   7.926  21.702  0.00  0.00    +0.000 HD
ENDBRANCH  17  18
ENDBRANCH   2  11
BRANCH   7  20
ATOM     20  C   UNL     1       3.459   3.850  17.477  0.00  0.00    +0.000 C 
ATOM     21  F   UNL     1       2.397   3.172  16.962  0.00  0.00    +0.000 F 
ATOM     22  F   UNL     1       4.236   4.192  16.412  0.00  0.00    +0.000 F 
ATOM     23  F   UNL     1       4.180   2.934  18.181  0.00  0.00    +0.000 F 
ENDBRANCH   7  20
TORSDOF 3
ENDMDL
MODEL 9
REMARK VINA RESULT:      -7.1      6.244      8.333
REMARK  Name = 
REMARK  3 active torsions:
REMARK  status: ('A' for Active; 'I' for Inactive)
REMARK    1  A    between atoms: C_2  and  C_14
REMARK    2  A    between atoms: C_7  and  C_8
REMARK    3  A    between atoms: C_20  and  O_21
REMARK                            x       y       z     vdW  Elec       q    Type
REMARK                         _______ _______ _______ _____ _____    ______ ____
ROOT
ATOM      1  O   UNL     1       1.534   9.169  17.792  0.00  0.00    +0.000 OA
ATOM      2  C   UNL     1       1.465   9.122  19.018  0.00  0.00    +0.000 C 
ATOM      3  N   UNL     1       1.908   8.072  19.789  0.00  0.00    +0.000 N 
ATOM      4  C   UNL     1       2.448   6.896  19.274  0.00  0.00    +0.000 A 
ATOM      5  C   UNL     1       3.227   6.877  18.124  0.00  0.00    +0.000 A 
ATOM      6  C   UNL     1       3.641   5.650  17.610  0.00  0.00    +0.000 A 
ATOM      7  C   UNL     1       3.244   4.474  18.244  0.00  0.00    +0.000 A 
ATOM      8  C   UNL     1       2.507   4.597  19.414  0.00  0.00    +0.000 A 
ATOM      9  N   UNL     1       2.138   5.778  19.962  0.00  0.00    +0.000 NA
ATOM     10  H   UNL     1       1.534   7.990  20.729  0.00  0.00    +0.000 HD
ENDROOT
BRANCH   2  11
ATOM     11  C   UNL     1       0.823  10.263  19.739  0.00  0.00    +0.000 A 
ATOM     12  C   UNL     1       0.232   9.966  20.978  0.00  0.00    +0.000 A 
ATOM     13  C   UNL     1      -0.407  10.961  21.710  0.00  0.00    +0.000 A 
ATOM     14 CL   UNL     1      -1.141  10.580  23.220  0.00  0.00    +0.000 Cl
ATOM     15  C   UNL     1      -0.459  12.267  21.227  0.00  0.00    +0.000 A 
ATOM     16  C   UNL     1       0.138  12.583  20.009  0.00  0.00    +0.000 A 
ATOM     17  C   UNL     1       0.780  11.585  19.269  0.00  0.00    +0.000 A 
BRANCH  17  18
ATOM     18  O   UNL     1       1.378  11.923  18.081  0.00  0.00    +0.000 OA
ATOM     19  H   UNL     1       0.915  11.478  17.355  0.00  0.00    +0.000 HD
ENDBRANCH  17  18
ENDBRANCH   2  11
BRANCH   7  20
ATOM     20  C   UNL     1       3.552   3.117  17.698  0.00  0.00    +0.000 C 
ATOM     21  F   UNL     1       2.489   2.515  17.099  0.00  0.00    +0.000 F 
ATOM     22  F   UNL     1       4.542   3.143  16.762  0.00  0.00    +0.000 F 
ATOM     23  F   UNL     1       3.977   2.253  18.660  0.00  0.00    +0.000 F 
ENDBRANCH   7  20
TORSDOF 3
ENDMDL
