MODEL 1
REMARK VINA RESULT:      -9.2      0.000      0.000
REMARK  Name = 
REMARK  3 active torsions:
REMARK  status: ('A' for Active; 'I' for Inactive)
REMARK    1  A    between atoms: C_1  and  C_2
REMARK    2  A    between atoms: C_8  and  C_9
REMARK    3  A    between atoms: N_11  and  C_12
REMARK                            x       y       z     vdW  Elec       q    Type
REMARK                         _______ _______ _______ _____ _____    ______ ____
ROOT
ATOM      1  C   UNL     1       2.076   7.929  19.207  0.00  0.00    +0.000 A 
ATOM      2  C   UNL     1       2.793   8.335  18.081  0.00  0.00    +0.000 A 
ATOM      3  C   UNL     1       3.622   7.427  17.427  0.00  0.00    +0.000 A 
ATOM      4  C   UNL     1       3.669   6.099  17.845  0.00  0.00    +0.000 A 
ATOM      5  C   UNL     1       2.795   5.628  18.838  0.00  0.00    +0.000 A 
ATOM      6  C   UNL     1       2.081   6.582  19.586  0.00  0.00    +0.000 A 
ATOM      7  C   UNL     1       2.610   4.120  19.054  0.00  0.00    +0.000 C 
ATOM      8  C   UNL     1       1.130   3.703  19.136  0.00  0.00    +0.000 C 
ATOM      9  O   UNL     1       0.895   3.462  20.523  0.00  0.00    +0.000 OA
ATOM     10  C   UNL     1       2.133   3.375  21.060  0.00  0.00    +0.000 C 
ATOM     11  N   UNL     1       2.129   2.969  22.344  0.00  0.00    +0.000 N 
ATOM     12  N   UNL     1       3.162   3.701  20.362  0.00  0.00    +0.000 NA
ATOM     13  C   UNL     1       3.433   3.408  17.977  0.00  0.00    +0.000 C 
ATOM     14  C   UNL     1       3.226   1.960  17.562  0.00  0.00    +0.000 C 
ATOM     15  C   UNL     1       2.816   3.059  16.625  0.00  0.00    +0.000 C 
ATOM     16  C   UNL     1       4.789   4.055  17.879  0.00  0.00    +0.000 C 
ATOM     17  O   UNL     1       4.613   5.317  17.222  0.00  0.00    +0.000 OA
ATOM     18  H   UNL     1       1.261   3.137  22.837  0.00  0.00    +0.000 HD
ATOM     19  H   UNL     1       2.970   3.213  22.849  0.00  0.00    +0.000 HD
ENDROOT
BRANCH   1  22
ATOM     20  C   UNL     1       0.489   9.802  19.578  0.00  0.00    +0.000 C 
ATOM     21  O   UNL     1       0.020   9.864  18.447  0.00  0.00    +0.000 OA
ATOM     22  N   UNL     1       1.389   8.845  20.016  0.00  0.00    +0.000 N 
ATOM     23  H   UNL     1       1.541   8.805  21.020  0.00  0.00    +0.000 HD
BRANCH  20  31
ATOM     24  C   UNL     1      -0.566   8.903  22.295  0.00  0.00    +0.000 C 
ATOM     25  C   UNL     1      -0.444  10.345  21.898  0.00  0.00    +0.000 A 
ATOM     26  C   UNL     1      -0.862  11.340  22.796  0.00  0.00    +0.000 A 
ATOM     27  C   UNL     1      -0.756  12.681  22.447  0.00  0.00    +0.000 A 
ATOM     28 CL   UNL     1      -1.272  13.908  23.529  0.00  0.00    +0.000 Cl
ATOM     29  C   UNL     1      -0.218  13.001  21.212  0.00  0.00    +0.000 A 
ATOM     30  N   UNL     1       0.216  12.082  20.319  0.00  0.00    +0.000 NA
ATOM     31  C   UNL     1       0.069  10.764  20.663  0.00  0.00    +0.000 A 
ENDBRANCH  20  31
ENDBRANCH   1  22
TORSDOF 2
ENDMDL
MODEL 2
REMARK VINA RESULT:      -9.1      0.768      1.403
REMARK  Name = 
REMARK  3 active torsions:
REMARK  status: ('A' for Active; 'I' for Inactive)
REMARK    1  A    between atoms: C_1  and  C_2
REMARK    2  A    between atoms: C_8  and  C_9
REMARK    3  A    between atoms: N_11  and  C_12
REMARK                            x       y       z     vdW  Elec       q    Type
REMARK                         _______ _______ _______ _____ _____    ______ ____
ROOT
ATOM      1  C   UNL     1       2.211   7.942  18.962  0.00  0.00    +0.000 A 
ATOM      2  C   UNL     1       2.983   8.275  17.849  0.00  0.00    +0.000 A 
ATOM      3  C   UNL     1       3.822   7.318  17.281  0.00  0.00    +0.000 A 
ATOM      4  C   UNL     1       3.826   6.014  17.770  0.00  0.00    +0.000 A 
ATOM      5  C   UNL     1       2.901   5.612  18.749  0.00  0.00    +0.000 A 
ATOM      6  C   UNL     1       2.174   6.617  19.412  0.00  0.00    +0.000 A 
ATOM      7  C   UNL     1       2.678   4.121  19.036  0.00  0.00    +0.000 C 
ATOM      8  C   UNL     1       1.189   3.734  19.075  0.00  0.00    +0.000 C 
ATOM      9  O   UNL     1       0.890   3.572  20.461  0.00  0.00    +0.000 OA
ATOM     10  C   UNL     1       2.102   3.494  21.056  0.00  0.00    +0.000 C 
ATOM     11  N   UNL     1       2.035   3.158  22.358  0.00  0.00    +0.000 N 
ATOM     12  N   UNL     1       3.166   3.765  20.387  0.00  0.00    +0.000 NA
ATOM     13  C   UNL     1       3.534   3.339  18.036  0.00  0.00    +0.000 C 
ATOM     14  C   UNL     1       3.317   1.874  17.690  0.00  0.00    +0.000 C 
ATOM     15  C   UNL     1       2.969   2.927  16.678  0.00  0.00    +0.000 C 
ATOM     16  C   UNL     1       4.905   3.957  17.963  0.00  0.00    +0.000 C 
ATOM     17  O   UNL     1       4.781   5.184  17.233  0.00  0.00    +0.000 OA
ATOM     18  H   UNL     1       1.150   3.367  22.803  0.00  0.00    +0.000 HD
ATOM     19  H   UNL     1       2.858   3.415  22.886  0.00  0.00    +0.000 HD
ENDROOT
BRANCH   1  22
ATOM     20  C   UNL     1       0.602   9.821  19.170  0.00  0.00    +0.000 C 
ATOM     21  O   UNL     1       0.144   9.789  18.033  0.00  0.00    +0.000 OA
ATOM     22  N   UNL     1       1.507   8.912  19.690  0.00  0.00    +0.000 N 
ATOM     23  H   UNL     1       1.649   8.952  20.695  0.00  0.00    +0.000 HD
BRANCH  20  31
ATOM     24  C   UNL     1       1.274  12.784  18.908  0.00  0.00    +0.000 C 
ATOM     25  C   UNL     1       0.501  12.217  20.062  0.00  0.00    +0.000 A 
ATOM     26  C   UNL     1       0.089  13.073  21.096  0.00  0.00    +0.000 A 
ATOM     27  C   UNL     1      -0.629  12.567  22.173  0.00  0.00    +0.000 A 
ATOM     28 CL   UNL     1      -1.131  13.597  23.449  0.00  0.00    +0.000 Cl
ATOM     29  C   UNL     1      -0.935  11.217  22.186  0.00  0.00    +0.000 A 
ATOM     30  N   UNL     1      -0.577  10.354  21.207  0.00  0.00    +0.000 NA
ATOM     31  C   UNL     1       0.163  10.861  20.172  0.00  0.00    +0.000 A 
ENDBRANCH  20  31
ENDBRANCH   1  22
TORSDOF 2
ENDMDL
MODEL 3
REMARK VINA RESULT:      -8.6      1.268      1.514
REMARK  Name = 
REMARK  3 active torsions:
REMARK  status: ('A' for Active; 'I' for Inactive)
REMARK    1  A    between atoms: C_1  and  C_2
REMARK    2  A    between atoms: C_8  and  C_9
REMARK    3  A    between atoms: N_11  and  C_12
REMARK                            x       y       z     vdW  Elec       q    Type
REMARK                         _______ _______ _______ _____ _____    ______ ____
ROOT
ATOM      1  C   UNL     1       2.333   7.478  18.734  0.00  0.00    +0.000 A 
ATOM      2  C   UNL     1       3.359   7.753  17.829  0.00  0.00    +0.000 A 
ATOM      3  C   UNL     1       4.321   6.781  17.562  0.00  0.00    +0.000 A 
ATOM      4  C   UNL     1       4.210   5.514  18.130  0.00  0.00    +0.000 A 
ATOM      5  C   UNL     1       3.072   5.157  18.871  0.00  0.00    +0.000 A 
ATOM      6  C   UNL     1       2.193   6.186  19.256  0.00  0.00    +0.000 A 
ATOM      7  C   UNL     1       2.794   3.684  19.201  0.00  0.00    +0.000 C 
ATOM      8  C   UNL     1       1.346   3.263  18.892  0.00  0.00    +0.000 C 
ATOM      9  O   UNL     1       0.708   3.189  20.167  0.00  0.00    +0.000 OA
ATOM     10  C   UNL     1       1.731   3.183  21.051  0.00  0.00    +0.000 C 
ATOM     11  N   UNL     1       1.340   2.935  22.316  0.00  0.00    +0.000 N 
ATOM     12  N   UNL     1       2.927   3.434  20.653  0.00  0.00    +0.000 NA
ATOM     13  C   UNL     1       3.880   2.857  18.507  0.00  0.00    +0.000 C 
ATOM     14  C   UNL     1       3.769   1.367  18.225  0.00  0.00    +0.000 C 
ATOM     15  C   UNL     1       3.680   2.339  17.085  0.00  0.00    +0.000 C 
ATOM     16  C   UNL     1       5.220   3.503  18.737  0.00  0.00    +0.000 C 
ATOM     17  O   UNL     1       5.276   4.674  17.912  0.00  0.00    +0.000 OA
ATOM     18  H   UNL     1       0.369   3.152  22.507  0.00  0.00    +0.000 HD
ATOM     19  H   UNL     1       2.001   3.249  23.014  0.00  0.00    +0.000 HD
ENDROOT
BRANCH   1  22
ATOM     20  C   UNL     1       1.273   9.719  18.608  0.00  0.00    +0.000 C 
ATOM     21  O   UNL     1       1.699  10.055  17.508  0.00  0.00    +0.000 OA
ATOM     22  N   UNL     1       1.461   8.477  19.189  0.00  0.00    +0.000 N 
ATOM     23  H   UNL     1       0.895   8.280  20.009  0.00  0.00    +0.000 HD
BRANCH  20  31
ATOM     24  C   UNL     1      -1.681  10.227  18.047  0.00  0.00    +0.000 C 
ATOM     25  C   UNL     1      -0.931  10.896  19.160  0.00  0.00    +0.000 A 
ATOM     26  C   UNL     1      -1.596  11.829  19.972  0.00  0.00    +0.000 A 
ATOM     27  C   UNL     1      -0.919  12.458  21.009  0.00  0.00    +0.000 A 
ATOM     28 CL   UNL     1      -1.715  13.607  22.003  0.00  0.00    +0.000 Cl
ATOM     29  C   UNL     1       0.409  12.130  21.225  0.00  0.00    +0.000 A 
ATOM     30  N   UNL     1       1.091  11.225  20.484  0.00  0.00    +0.000 NA
ATOM     31  C   UNL     1       0.419  10.643  19.442  0.00  0.00    +0.000 A 
ENDBRANCH  20  31
ENDBRANCH   1  22
TORSDOF 2
ENDMDL
MODEL 4
REMARK VINA RESULT:      -8.6      1.147      1.158
REMARK  Name = 
REMARK  3 active torsions:
REMARK  status: ('A' for Active; 'I' for Inactive)
REMARK    1  A    between atoms: C_1  and  C_2
REMARK    2  A    between atoms: C_8  and  C_9
REMARK    3  A    between atoms: N_11  and  C_12
REMARK                            x       y       z     vdW  Elec       q    Type
REMARK                         _______ _______ _______ _____ _____    ______ ____
ROOT
ATOM      1  C   UNL     1       2.187   7.949  18.798  0.00  0.00    +0.000 A 
ATOM      2  C   UNL     1       2.994   8.249  17.700  0.00  0.00    +0.000 A 
ATOM      3  C   UNL     1       3.870   7.286  17.204  0.00  0.00    +0.000 A 
ATOM      4  C   UNL     1       3.878   6.004  17.748  0.00  0.00    +0.000 A 
ATOM      5  C   UNL     1       2.924   5.626  18.708  0.00  0.00    +0.000 A 
ATOM      6  C   UNL     1       2.156   6.643  19.302  0.00  0.00    +0.000 A 
ATOM      7  C   UNL     1       2.716   4.144  19.050  0.00  0.00    +0.000 C 
ATOM      8  C   UNL     1       1.234   3.731  19.052  0.00  0.00    +0.000 C 
ATOM      9  O   UNL     1       0.886   3.622  20.432  0.00  0.00    +0.000 OA
ATOM     10  C   UNL     1       2.076   3.591  21.073  0.00  0.00    +0.000 C 
ATOM     11  N   UNL     1       1.967   3.309  22.385  0.00  0.00    +0.000 N 
ATOM     12  N   UNL     1       3.160   3.854  20.432  0.00  0.00    +0.000 NA
ATOM     13  C   UNL     1       3.621   3.337  18.116  0.00  0.00    +0.000 C 
ATOM     14  C   UNL     1       3.443   1.855  17.824  0.00  0.00    +0.000 C 
ATOM     15  C   UNL     1       3.114   2.858  16.757  0.00  0.00    +0.000 C 
ATOM     16  C   UNL     1       4.983   3.977  18.067  0.00  0.00    +0.000 C 
ATOM     17  O   UNL     1       4.866   5.170  17.281  0.00  0.00    +0.000 OA
ATOM     18  H   UNL     1       1.063   3.519  22.787  0.00  0.00    +0.000 HD
ATOM     19  H   UNL     1       2.766   3.603  22.931  0.00  0.00    +0.000 HD
ENDROOT
BRANCH   1  22
ATOM     20  C   UNL     1       1.045   8.905  20.784  0.00  0.00    +0.000 C 
ATOM     21  O   UNL     1       1.448   8.106  21.622  0.00  0.00    +0.000 OA
ATOM     22  N   UNL     1       1.440   8.935  19.458  0.00  0.00    +0.000 N 
ATOM     23  H   UNL     1       1.171   9.763  18.933  0.00  0.00    +0.000 HD
BRANCH  20  31
ATOM     24  C   UNL     1       0.111   9.450  23.635  0.00  0.00    +0.000 C 
ATOM     25  C   UNL     1      -0.365  10.239  22.452  0.00  0.00    +0.000 A 
ATOM     26  C   UNL     1      -1.309  11.259  22.644  0.00  0.00    +0.000 A 
ATOM     27  C   UNL     1      -1.761  12.003  21.561  0.00  0.00    +0.000 A 
ATOM     28 CL   UNL     1      -2.923  13.245  21.778  0.00  0.00    +0.000 Cl
ATOM     29  C   UNL     1      -1.246  11.722  20.307  0.00  0.00    +0.000 A 
ATOM     30  N   UNL     1      -0.321  10.762  20.071  0.00  0.00    +0.000 NA
ATOM     31  C   UNL     1       0.085  10.013  21.143  0.00  0.00    +0.000 A 
ENDBRANCH  20  31
ENDBRANCH   1  22
TORSDOF 2
ENDMDL
MODEL 5
REMARK VINA RESULT:      -8.5      1.253      1.589
REMARK  Name = 
REMARK  3 active torsions:
REMARK  status: ('A' for Active; 'I' for Inactive)
REMARK    1  A    between atoms: C_1  and  C_2
REMARK    2  A    between atoms: C_8  and  C_9
REMARK    3  A    between atoms: N_11  and  C_12
REMARK                            x       y       z     vdW  Elec       q    Type
REMARK                         _______ _______ _______ _____ _____    ______ ____
ROOT
ATOM      1  C   UNL     1       2.084   7.904  18.972  0.00  0.00    +0.000 A 
ATOM      2  C   UNL     1       2.904   8.267  17.903  0.00  0.00    +0.000 A 
ATOM      3  C   UNL     1       3.806   7.343  17.381  0.00  0.00    +0.000 A 
ATOM      4  C   UNL     1       3.827   6.037  17.867  0.00  0.00    +0.000 A 
ATOM      5  C   UNL     1       2.864   5.600  18.791  0.00  0.00    +0.000 A 
ATOM      6  C   UNL     1       2.067   6.576  19.416  0.00  0.00    +0.000 A 
ATOM      7  C   UNL     1       2.676   4.101  19.063  0.00  0.00    +0.000 C 
ATOM      8  C   UNL     1       1.202   3.664  19.018  0.00  0.00    +0.000 C 
ATOM      9  O   UNL     1       0.831   3.486  20.385  0.00  0.00    +0.000 OA
ATOM     10  C   UNL     1       2.010   3.447  21.046  0.00  0.00    +0.000 C 
ATOM     11  N   UNL     1       1.883   3.103  22.342  0.00  0.00    +0.000 N 
ATOM     12  N   UNL     1       3.100   3.756  20.438  0.00  0.00    +0.000 NA
ATOM     13  C   UNL     1       3.612   3.353  18.110  0.00  0.00    +0.000 C 
ATOM     14  C   UNL     1       3.466   1.883  17.749  0.00  0.00    +0.000 C 
ATOM     15  C   UNL     1       3.138   2.927  16.722  0.00  0.00    +0.000 C 
ATOM     16  C   UNL     1       4.963   4.017  18.115  0.00  0.00    +0.000 C 
ATOM     17  O   UNL     1       4.839   5.242  17.382  0.00  0.00    +0.000 OA
ATOM     18  H   UNL     1       0.968   3.280  22.736  0.00  0.00    +0.000 HD
ATOM     19  H   UNL     1       2.666   3.385  22.916  0.00  0.00    +0.000 HD
ENDROOT
BRANCH   1  22
ATOM     20  C   UNL     1       1.161   8.931  21.035  0.00  0.00    +0.000 C 
ATOM     21  O   UNL     1       1.833   8.316  21.855  0.00  0.00    +0.000 OA
ATOM     22  N   UNL     1       1.308   8.846  19.661  0.00  0.00    +0.000 N 
ATOM     23  H   UNL     1       0.815   9.550  19.118  0.00  0.00    +0.000 HD
BRANCH  20  31
ATOM     24  C   UNL     1       0.043  11.081  19.183  0.00  0.00    +0.000 C 
ATOM     25  C   UNL     1      -0.382  10.929  20.614  0.00  0.00    +0.000 A 
ATOM     26  C   UNL     1      -1.313  11.831  21.151  0.00  0.00    +0.000 A 
ATOM     27  C   UNL     1      -1.721  11.706  22.474  0.00  0.00    +0.000 A 
ATOM     28 CL   UNL     1      -2.850  12.807  23.148  0.00  0.00    +0.000 Cl
ATOM     29  C   UNL     1      -1.200  10.669  23.229  0.00  0.00    +0.000 A 
ATOM     30  N   UNL     1      -0.314   9.762  22.754  0.00  0.00    +0.000 NA
ATOM     31  C   UNL     1       0.105   9.923  21.460  0.00  0.00    +0.000 A 
ENDBRANCH  20  31
ENDBRANCH   1  22
TORSDOF 2
ENDMDL
MODEL 6
REMARK VINA RESULT:      -8.0      3.579      8.732
REMARK  Name = 
REMARK  3 active torsions:
REMARK  status: ('A' for Active; 'I' for Inactive)
REMARK    1  A    between atoms: C_1  and  C_2
REMARK    2  A    between atoms: C_8  and  C_9
REMARK    3  A    between atoms: N_11  and  C_12
REMARK                            x       y       z     vdW  Elec       q    Type
REMARK                         _______ _______ _______ _____ _____    ______ ____
ROOT
ATOM      1  C   UNL     1       1.183   8.743  20.424  0.00  0.00    +0.000 A 
ATOM      2  C   UNL     1       0.414   8.143  21.421  0.00  0.00    +0.000 A 
ATOM      3  C   UNL     1      -0.384   8.933  22.246  0.00  0.00    +0.000 A 
ATOM      4  C   UNL     1      -0.477  10.305  22.020  0.00  0.00    +0.000 A 
ATOM      5  C   UNL     1       0.122  10.889  20.891  0.00  0.00    +0.000 A 
ATOM      6  C   UNL     1       1.040  10.111  20.163  0.00  0.00    +0.000 A 
ATOM      7  C   UNL     1      -0.259  12.312  20.463  0.00  0.00    +0.000 C 
ATOM      8  C   UNL     1      -0.575  12.421  18.960  0.00  0.00    +0.000 C 
ATOM      9  O   UNL     1       0.572  13.054  18.391  0.00  0.00    +0.000 OA
ATOM     10  C   UNL     1       1.232  13.564  19.455  0.00  0.00    +0.000 C 
ATOM     11  N   UNL     1       2.261  14.361  19.111  0.00  0.00    +0.000 N 
ATOM     12  N   UNL     1       0.876  13.242  20.649  0.00  0.00    +0.000 NA
ATOM     13  C   UNL     1      -1.374  12.780  21.403  0.00  0.00    +0.000 C 
ATOM     14  C   UNL     1      -2.316  13.935  21.101  0.00  0.00    +0.000 C 
ATOM     15  C   UNL     1      -2.841  12.530  21.061  0.00  0.00    +0.000 C 
ATOM     16  C   UNL     1      -1.009  12.428  22.820  0.00  0.00    +0.000 C 
ATOM     17  O   UNL     1      -1.180  11.013  22.966  0.00  0.00    +0.000 OA
ATOM     18  H   UNL     1       2.634  14.192  18.185  0.00  0.00    +0.000 HD
ATOM     19  H   UNL     1       2.949  14.475  19.843  0.00  0.00    +0.000 HD
ENDROOT
BRANCH   1  22
ATOM     20  C   UNL     1       2.169   7.844  18.330  0.00  0.00    +0.000 C 
ATOM     21  O   UNL     1       1.456   8.438  17.529  0.00  0.00    +0.000 OA
ATOM     22  N   UNL     1       2.148   8.026  19.702  0.00  0.00    +0.000 N 
ATOM     23  H   UNL     1       2.919   7.609  20.217  0.00  0.00    +0.000 HD
BRANCH  20  31
ATOM     24  C   UNL     1       1.716   4.829  18.250  0.00  0.00    +0.000 C 
ATOM     25  C   UNL     1       3.017   5.473  17.872  0.00  0.00    +0.000 A 
ATOM     26  C   UNL     1       4.099   4.663  17.493  0.00  0.00    +0.000 A 
ATOM     27  C   UNL     1       5.311   5.240  17.137  0.00  0.00    +0.000 A 
ATOM     28 CL   UNL     1       6.645   4.263  16.682  0.00  0.00    +0.000 Cl
ATOM     29  C   UNL     1       5.414   6.621  17.153  0.00  0.00    +0.000 A 
ATOM     30  N   UNL     1       4.397   7.448  17.494  0.00  0.00    +0.000 NA
ATOM     31  C   UNL     1       3.221   6.860  17.877  0.00  0.00    +0.000 A 
ENDBRANCH  20  31
ENDBRANCH   1  22
TORSDOF 2
ENDMDL
MODEL 7
REMARK VINA RESULT:      -7.9      3.243      8.843
REMARK  Name = 
REMARK  3 active torsions:
REMARK  status: ('A' for Active; 'I' for Inactive)
REMARK    1  A    between atoms: C_1  and  C_2
REMARK    2  A    between atoms: C_8  and  C_9
REMARK    3  A    between atoms: N_11  and  C_12
REMARK                            x       y       z     vdW  Elec       q    Type
REMARK                         _______ _______ _______ _____ _____    ______ ____
ROOT
ATOM      1  C   UNL     1       0.715   9.037  21.542  0.00  0.00    +0.000 A 
ATOM      2  C   UNL     1      -0.184   8.923  22.603  0.00  0.00    +0.000 A 
ATOM      3  C   UNL     1      -0.787  10.067  23.122  0.00  0.00    +0.000 A 
ATOM      4  C   UNL     1      -0.559  11.306  22.528  0.00  0.00    +0.000 A 
ATOM      5  C   UNL     1       0.171  11.406  21.332  0.00  0.00    +0.000 A 
ATOM      6  C   UNL     1       0.894  10.274  20.912  0.00  0.00    +0.000 A 
ATOM      7  C   UNL     1       0.133  12.699  20.507  0.00  0.00    +0.000 C 
ATOM      8  C   UNL     1      -0.131  12.449  19.012  0.00  0.00    +0.000 C 
ATOM      9  O   UNL     1       1.137  12.631  18.382  0.00  0.00    +0.000 OA
ATOM     10  C   UNL     1       1.885  13.262  19.315  0.00  0.00    +0.000 C 
ATOM     11  N   UNL     1       3.074  13.686  18.847  0.00  0.00    +0.000 N 
ATOM     12  N   UNL     1       1.451  13.373  20.520  0.00  0.00    +0.000 NA
ATOM     13  C   UNL     1      -0.854  13.643  21.199  0.00  0.00    +0.000 C 
ATOM     14  C   UNL     1      -1.501  14.844  20.527  0.00  0.00    +0.000 C 
ATOM     15  C   UNL     1      -2.335  13.634  20.829  0.00  0.00    +0.000 C 
ATOM     16  C   UNL     1      -0.597  13.632  22.683  0.00  0.00    +0.000 C 
ATOM     17  O   UNL     1      -1.091  12.386  23.192  0.00  0.00    +0.000 OA
ATOM     18  H   UNL     1       3.408  13.187  18.032  0.00  0.00    +0.000 HD
ATOM     19  H   UNL     1       3.761  13.848  19.571  0.00  0.00    +0.000 HD
ENDROOT
BRANCH   1  22
ATOM     20  C   UNL     1       1.898   7.702  19.816  0.00  0.00    +0.000 C 
ATOM     21  O   UNL     1       1.790   8.487  18.880  0.00  0.00    +0.000 OA
ATOM     22  N   UNL     1       1.496   7.954  21.116  0.00  0.00    +0.000 N 
ATOM     23  H   UNL     1       1.820   7.293  21.817  0.00  0.00    +0.000 HD
BRANCH  20  31
ATOM     24  C   UNL     1       3.898   7.087  17.597  0.00  0.00    +0.000 C 
ATOM     25  C   UNL     1       3.455   6.070  18.607  0.00  0.00    +0.000 A 
ATOM     26  C   UNL     1       3.949   4.759  18.522  0.00  0.00    +0.000 A 
ATOM     27  C   UNL     1       3.552   3.803  19.449  0.00  0.00    +0.000 A 
ATOM     28 CL   UNL     1       4.138   2.194  19.351  0.00  0.00    +0.000 Cl
ATOM     29  C   UNL     1       2.679   4.182  20.454  0.00  0.00    +0.000 A 
ATOM     30  N   UNL     1       2.188   5.436  20.592  0.00  0.00    +0.000 NA
ATOM     31  C   UNL     1       2.560   6.356  19.648  0.00  0.00    +0.000 A 
ENDBRANCH  20  31
ENDBRANCH   1  22
TORSDOF 2
ENDMDL
MODEL 8
REMARK VINA RESULT:      -7.8      3.405      8.806
REMARK  Name = 
REMARK  3 active torsions:
REMARK  status: ('A' for Active; 'I' for Inactive)
REMARK    1  A    between atoms: C_1  and  C_2
REMARK    2  A    between atoms: C_8  and  C_9
REMARK    3  A    between atoms: N_11  and  C_12
REMARK                            x       y       z     vdW  Elec       q    Type
REMARK                         _______ _______ _______ _____ _____    ______ ____
ROOT
ATOM      1  C   UNL     1       0.946   8.862  20.462  0.00  0.00    +0.000 A 
ATOM      2  C   UNL     1       0.942   8.595  21.831  0.00  0.00    +0.000 A 
ATOM      3  C   UNL     1       0.446   9.548  22.718  0.00  0.00    +0.000 A 
ATOM      4  C   UNL     1      -0.121  10.724  22.233  0.00  0.00    +0.000 A 
ATOM      5  C   UNL     1      -0.317  10.912  20.855  0.00  0.00    +0.000 A 
ATOM      6  C   UNL     1       0.322  10.018  19.977  0.00  0.00    +0.000 A 
ATOM      7  C   UNL     1      -1.235  12.032  20.350  0.00  0.00    +0.000 C 
ATOM      8  C   UNL     1      -2.240  11.552  19.288  0.00  0.00    +0.000 C 
ATOM      9  O   UNL     1      -1.728  12.044  18.050  0.00  0.00    +0.000 OA
ATOM     10  C   UNL     1      -0.814  12.972  18.414  0.00  0.00    +0.000 C 
ATOM     11  N   UNL     1      -0.339  13.687  17.377  0.00  0.00    +0.000 N 
ATOM     12  N   UNL     1      -0.457  13.076  19.646  0.00  0.00    +0.000 NA
ATOM     13  C   UNL     1      -1.852  12.697  21.584  0.00  0.00    +0.000 C 
ATOM     14  C   UNL     1      -3.104  13.560  21.552  0.00  0.00    +0.000 C 
ATOM     15  C   UNL     1      -3.170  12.193  22.167  0.00  0.00    +0.000 C 
ATOM     16  C   UNL     1      -0.778  12.928  22.614  0.00  0.00    +0.000 C 
ATOM     17  O   UNL     1      -0.458  11.654  23.188  0.00  0.00    +0.000 OA
ATOM     18  H   UNL     1      -0.418  13.229  16.478  0.00  0.00    +0.000 HD
ATOM     19  H   UNL     1       0.551  14.130  17.563  0.00  0.00    +0.000 HD
ENDROOT
BRANCH   1  22
ATOM     20  C   UNL     1       2.023   6.731  19.782  0.00  0.00    +0.000 C 
ATOM     21  O   UNL     1       1.702   6.053  20.752  0.00  0.00    +0.000 OA
ATOM     22  N   UNL     1       1.610   8.032  19.548  0.00  0.00    +0.000 N 
ATOM     23  H   UNL     1       1.799   8.397  18.619  0.00  0.00    +0.000 HD
BRANCH  20  31
ATOM     24  C   UNL     1       1.565   3.990  18.527  0.00  0.00    +0.000 C 
ATOM     25  C   UNL     1       2.688   4.899  18.124  0.00  0.00    +0.000 A 
ATOM     26  C   UNL     1       3.600   4.469  17.147  0.00  0.00    +0.000 A 
ATOM     27  C   UNL     1       4.646   5.297  16.759  0.00  0.00    +0.000 A 
ATOM     28 CL   UNL     1       5.775   4.783  15.575  0.00  0.00    +0.000 Cl
ATOM     29  C   UNL     1       4.750   6.548  17.345  0.00  0.00    +0.000 A 
ATOM     30  N   UNL     1       3.887   7.017  18.277  0.00  0.00    +0.000 NA
ATOM     31  C   UNL     1       2.884   6.173  18.675  0.00  0.00    +0.000 A 
ENDBRANCH  20  31
ENDBRANCH   1  22
TORSDOF 2
ENDMDL
MODEL 9
REMARK VINA RESULT:      -7.6      4.099      8.654
REMARK  Name = 
REMARK  3 active torsions:
REMARK  status: ('A' for Active; 'I' for Inactive)
REMARK    1  A    between atoms: C_1  and  C_2
REMARK    2  A    between atoms: C_8  and  C_9
REMARK    3  A    between atoms: N_11  and  C_12
REMARK                            x       y       z     vdW  Elec       q    Type
REMARK                         _______ _______ _______ _____ _____    ______ ____
ROOT
ATOM      1  C   UNL     1       1.228   9.277  18.671  0.00  0.00    +0.000 A 
ATOM      2  C   UNL     1       1.693   9.965  19.792  0.00  0.00    +0.000 A 
ATOM      3  C   UNL     1       1.034  11.118  20.215  0.00  0.00    +0.000 A 
ATOM      4  C   UNL     1      -0.131  11.532  19.573  0.00  0.00    +0.000 A 
ATOM      5  C   UNL     1      -0.727  10.733  18.584  0.00  0.00    +0.000 A 
ATOM      6  C   UNL     1       0.025   9.662  18.068  0.00  0.00    +0.000 A 
ATOM      7  C   UNL     1      -2.165  11.012  18.127  0.00  0.00    +0.000 C 
ATOM      8  C   UNL     1      -3.039   9.746  18.089  0.00  0.00    +0.000 C 
ATOM      9  O   UNL     1      -3.153   9.423  16.703  0.00  0.00    +0.000 OA
ATOM     10  C   UNL     1      -2.745  10.544  16.066  0.00  0.00    +0.000 C 
ATOM     11  N   UNL     1      -2.950  10.504  14.736  0.00  0.00    +0.000 N 
ATOM     12  N   UNL     1      -2.192  11.496  16.729  0.00  0.00    +0.000 NA
ATOM     13  C   UNL     1      -2.700  12.151  19.000  0.00  0.00    +0.000 C 
ATOM     14  C   UNL     1      -4.176  12.473  19.175  0.00  0.00    +0.000 C 
ATOM     15  C   UNL     1      -3.417  11.858  20.315  0.00  0.00    +0.000 C 
ATOM     16  C   UNL     1      -1.655  13.231  19.103  0.00  0.00    +0.000 C 
ATOM     17  O   UNL     1      -0.628  12.748  19.978  0.00  0.00    +0.000 OA
ATOM     18  H   UNL     1      -3.017   9.572  14.347  0.00  0.00    +0.000 HD
ATOM     19  H   UNL     1      -2.371  11.151  14.216  0.00  0.00    +0.000 HD
ENDROOT
BRANCH   1  22
ATOM     20  C   UNL     1       2.497   7.145  18.751  0.00  0.00    +0.000 C 
ATOM     21  O   UNL     1       2.249   6.834  19.911  0.00  0.00    +0.000 OA
ATOM     22  N   UNL     1       1.961   8.235  18.087  0.00  0.00    +0.000 N 
ATOM     23  H   UNL     1       2.108   8.258  17.082  0.00  0.00    +0.000 HD
BRANCH  20  31
ATOM     24  C   UNL     1       1.927   4.225  18.080  0.00  0.00    +0.000 C 
ATOM     25  C   UNL     1       3.148   4.953  17.602  0.00  0.00    +0.000 A 
ATOM     26  C   UNL     1       4.101   4.263  16.836  0.00  0.00    +0.000 A 
ATOM     27  C   UNL     1       5.238   4.920  16.383  0.00  0.00    +0.000 A 
ATOM     28 CL   UNL     1       6.417   4.088  15.455  0.00  0.00    +0.000 Cl
ATOM     29  C   UNL     1       5.393   6.261  16.691  0.00  0.00    +0.000 A 
ATOM     30  N   UNL     1       4.496   6.976  17.410  0.00  0.00    +0.000 NA
ATOM     31  C   UNL     1       3.400   6.304  17.881  0.00  0.00    +0.000 A 
ENDBRANCH  20  31
ENDBRANCH   1  22
TORSDOF 2
ENDMDL
