MODEL 1
REMARK VINA RESULT:      -6.7      0.000      0.000
REMARK  Name = 
REMARK  13 active torsions:
REMARK  status: ('A' for Active; 'I' for Inactive)
REMARK    1  A    between atoms: C_1  and  C_2
REMARK    2  A    between atoms: C_2  and  C_3
REMARK    3  A    between atoms: C_3  and  C_4
REMARK    4  A    between atoms: C_4  and  C_5
REMARK    5  A    between atoms: C_5  and  C_6
REMARK    6  A    between atoms: C_6  and  O_7
REMARK    7  A    between atoms: C_6  and  C_8
REMARK    8  A    between atoms: C_8  and  C_9
REMARK    9  A    between atoms: C_9  and  C_11
REMARK   10  A    between atoms: C_12  and  C_13
REMARK   11  A    between atoms: C_16  and  O_17
REMARK   12  A    between atoms: C_18  and  O_19
REMARK   13  A    between atoms: O_19  and  C_20
REMARK                            x       y       z     vdW  Elec       q    Type
REMARK                         _______ _______ _______ _____ _____    ______ ____
ROOT
ATOM      1  C   UNL     1       2.818   3.363  17.271  0.00  0.00    +0.000 C 
ATOM      2  C   UNL     1       4.141   3.375  17.490  0.00  0.00    +0.000 C 
ENDROOT
BRANCH   2   3
ATOM      3  C   UNL     1       5.098   3.998  16.564  0.00  0.00    +0.000 A 
ATOM      4  C   UNL     1       5.129   3.563  15.237  0.00  0.00    +0.000 A 
ATOM      5  C   UNL     1       6.068   4.085  14.345  0.00  0.00    +0.000 A 
ATOM      6  C   UNL     1       6.981   5.056  14.769  0.00  0.00    +0.000 A 
ATOM      7  C   UNL     1       6.938   5.537  16.080  0.00  0.00    +0.000 A 
ATOM      8  C   UNL     1       5.983   5.007  16.961  0.00  0.00    +0.000 A 
BRANCH   6   9
ATOM      9  O   UNL     1       7.906   5.508  13.870  0.00  0.00    +0.000 OA
ATOM     10  H   UNL     1       7.965   4.881  13.130  0.00  0.00    +0.000 HD
ENDBRANCH   6   9
BRANCH   7  11
ATOM     11  O   UNL     1       7.732   6.483  16.672  0.00  0.00    +0.000 OA
ATOM     12  C   UNL     1       7.147   7.338  17.641  0.00  0.00    +0.000 C 
ENDBRANCH   7  11
ENDBRANCH   2   3
BRANCH   1  13
ATOM     13  C   UNL     1       1.888   2.815  18.293  0.00  0.00    +0.000 C 
ATOM     14  O   UNL     1       0.675   2.775  18.102  0.00  0.00    +0.000 OA
BRANCH  13  15
ATOM     15  C   UNL     1       2.504   2.314  19.577  0.00  0.00    +0.000 C 
BRANCH  15  16
ATOM     16  C   UNL     1       1.834   2.920  20.806  0.00  0.00    +0.000 C 
BRANCH  16  17
ATOM     17  O   UNL     1       0.445   3.090  20.507  0.00  0.00    +0.000 OA
ATOM     18  H   UNL     1       0.217   2.474  19.787  0.00  0.00    +0.000 HD
ENDBRANCH  16  17
BRANCH  16  19
ATOM     19  C   UNL     1       2.442   4.264  21.222  0.00  0.00    +0.000 C 
BRANCH  19  20
ATOM     20  C   UNL     1       1.855   5.436  20.431  0.00  0.00    +0.000 C 
BRANCH  20  21
ATOM     21  C   UNL     1       2.942   6.155  19.632  0.00  0.00    +0.000 C 
BRANCH  21  23
ATOM     22  C   UNL     1       3.422   7.473  17.541  0.00  0.00    +0.000 C 
ATOM     23  C   UNL     1       2.342   6.943  18.470  0.00  0.00    +0.000 C 
ENDBRANCH  21  23
ENDBRANCH  20  21
ENDBRANCH  19  20
ENDBRANCH  16  19
ENDBRANCH  15  16
ENDBRANCH  13  15
ENDBRANCH   1  13
TORSDOF 11
ENDMDL
MODEL 2
REMARK VINA RESULT:      -6.4      3.110      5.973
REMARK  Name = 
REMARK  13 active torsions:
REMARK  status: ('A' for Active; 'I' for Inactive)
REMARK    1  A    between atoms: C_1  and  C_2
REMARK    2  A    between atoms: C_2  and  C_3
REMARK    3  A    between atoms: C_3  and  C_4
REMARK    4  A    between atoms: C_4  and  C_5
REMARK    5  A    between atoms: C_5  and  C_6
REMARK    6  A    between atoms: C_6  and  O_7
REMARK    7  A    between atoms: C_6  and  C_8
REMARK    8  A    between atoms: C_8  and  C_9
REMARK    9  A    between atoms: C_9  and  C_11
REMARK   10  A    between atoms: C_12  and  C_13
REMARK   11  A    between atoms: C_16  and  O_17
REMARK   12  A    between atoms: C_18  and  O_19
REMARK   13  A    between atoms: O_19  and  C_20
REMARK                            x       y       z     vdW  Elec       q    Type
REMARK                         _______ _______ _______ _____ _____    ______ ____
ROOT
ATOM      1  C   UNL     1       4.477   5.739  18.708  0.00  0.00    +0.000 C 
ATOM      2  C   UNL     1       3.405   6.073  19.443  0.00  0.00    +0.000 C 
ENDROOT
BRANCH   2   3
ATOM      3  C   UNL     1       2.595   7.269  19.174  0.00  0.00    +0.000 A 
ATOM      4  C   UNL     1       2.739   7.917  17.945  0.00  0.00    +0.000 A 
ATOM      5  C   UNL     1       2.034   9.093  17.679  0.00  0.00    +0.000 A 
ATOM      6  C   UNL     1       1.169   9.629  18.638  0.00  0.00    +0.000 A 
ATOM      7  C   UNL     1       0.976   8.973  19.857  0.00  0.00    +0.000 A 
ATOM      8  C   UNL     1       1.687   7.789  20.104  0.00  0.00    +0.000 A 
BRANCH   6   9
ATOM      9  O   UNL     1       0.531  10.802  18.347  0.00  0.00    +0.000 OA
ATOM     10  H   UNL     1      -0.407  10.620  18.175  0.00  0.00    +0.000 HD
ENDBRANCH   6   9
BRANCH   7  11
ATOM     11  O   UNL     1       0.173   9.333  20.905  0.00  0.00    +0.000 OA
ATOM     12  C   UNL     1       0.623  10.361  21.773  0.00  0.00    +0.000 C 
ENDBRANCH   7  11
ENDBRANCH   2   3
BRANCH   1  13
ATOM     13  C   UNL     1       5.196   4.462  18.957  0.00  0.00    +0.000 C 
ATOM     14  O   UNL     1       6.413   4.373  18.819  0.00  0.00    +0.000 OA
BRANCH  13  15
ATOM     15  C   UNL     1       4.358   3.280  19.382  0.00  0.00    +0.000 C 
BRANCH  15  16
ATOM     16  C   UNL     1       4.144   2.292  18.240  0.00  0.00    +0.000 C 
BRANCH  16  17
ATOM     17  O   UNL     1       4.712   2.862  17.057  0.00  0.00    +0.000 OA
ATOM     18  H   UNL     1       5.605   3.181  17.279  0.00  0.00    +0.000 HD
ENDBRANCH  16  17
BRANCH  16  19
ATOM     19  C   UNL     1       2.666   1.962  17.998  0.00  0.00    +0.000 C 
BRANCH  19  20
ATOM     20  C   UNL     1       1.765   3.189  18.154  0.00  0.00    +0.000 C 
BRANCH  20  21
ATOM     21  C   UNL     1       0.655   2.927  19.171  0.00  0.00    +0.000 C 
BRANCH  21  23
ATOM     22  C   UNL     1       1.473   2.802  21.549  0.00  0.00    +0.000 C 
ATOM     23  C   UNL     1       0.898   3.699  20.466  0.00  0.00    +0.000 C 
ENDBRANCH  21  23
ENDBRANCH  20  21
ENDBRANCH  19  20
ENDBRANCH  16  19
ENDBRANCH  15  16
ENDBRANCH  13  15
ENDBRANCH   1  13
TORSDOF 11
ENDMDL
MODEL 3
REMARK VINA RESULT:      -6.4      1.211      2.272
REMARK  Name = 
REMARK  13 active torsions:
REMARK  status: ('A' for Active; 'I' for Inactive)
REMARK    1  A    between atoms: C_1  and  C_2
REMARK    2  A    between atoms: C_2  and  C_3
REMARK    3  A    between atoms: C_3  and  C_4
REMARK    4  A    between atoms: C_4  and  C_5
REMARK    5  A    between atoms: C_5  and  C_6
REMARK    6  A    between atoms: C_6  and  O_7
REMARK    7  A    between atoms: C_6  and  C_8
REMARK    8  A    between atoms: C_8  and  C_9
REMARK    9  A    between atoms: C_9  and  C_11
REMARK   10  A    between atoms: C_12  and  C_13
REMARK   11  A    between atoms: C_16  and  O_17
REMARK   12  A    between atoms: C_18  and  O_19
REMARK   13  A    between atoms: O_19  and  C_20
REMARK                            x       y       z     vdW  Elec       q    Type
REMARK                         _______ _______ _______ _____ _____    ______ ____
ROOT
ATOM      1  C   UNL     1       3.619   2.597  18.201  0.00  0.00    +0.000 C 
ATOM      2  C   UNL     1       4.502   3.598  18.321  0.00  0.00    +0.000 C 
ENDROOT
BRANCH   2   3
ATOM      3  C   UNL     1       5.366   4.037  17.215  0.00  0.00    +0.000 A 
ATOM      4  C   UNL     1       6.592   4.636  17.517  0.00  0.00    +0.000 A 
ATOM      5  C   UNL     1       7.410   5.124  16.495  0.00  0.00    +0.000 A 
ATOM      6  C   UNL     1       7.013   5.010  15.159  0.00  0.00    +0.000 A 
ATOM      7  C   UNL     1       5.812   4.376  14.833  0.00  0.00    +0.000 A 
ATOM      8  C   UNL     1       5.006   3.884  15.871  0.00  0.00    +0.000 A 
BRANCH   6   9
ATOM      9  O   UNL     1       7.829   5.538  14.197  0.00  0.00    +0.000 OA
ATOM     10  H   UNL     1       7.582   6.465  14.045  0.00  0.00    +0.000 HD
ENDBRANCH   6   9
BRANCH   7  11
ATOM     11  O   UNL     1       5.265   4.162  13.596  0.00  0.00    +0.000 OA
ATOM     12  C   UNL     1       5.987   3.362  12.672  0.00  0.00    +0.000 C 
ENDBRANCH   7  11
ENDBRANCH   2   3
BRANCH   1  13
ATOM     13  C   UNL     1       2.695   2.266  19.318  0.00  0.00    +0.000 C 
ATOM     14  O   UNL     1       1.700   1.566  19.143  0.00  0.00    +0.000 OA
BRANCH  13  15
ATOM     15  C   UNL     1       3.035   2.833  20.675  0.00  0.00    +0.000 C 
BRANCH  15  16
ATOM     16  C   UNL     1       1.881   3.638  21.262  0.00  0.00    +0.000 C 
BRANCH  16  17
ATOM     17  O   UNL     1       0.888   2.712  21.714  0.00  0.00    +0.000 OA
ATOM     18  H   UNL     1       1.082   2.495  22.643  0.00  0.00    +0.000 HD
ENDBRANCH  16  17
BRANCH  16  19
ATOM     19  C   UNL     1       1.259   4.619  20.261  0.00  0.00    +0.000 C 
BRANCH  19  20
ATOM     20  C   UNL     1       2.203   5.775  19.921  0.00  0.00    +0.000 C 
BRANCH  20  21
ATOM     21  C   UNL     1       2.261   6.008  18.412  0.00  0.00    +0.000 C 
BRANCH  21  23
ATOM     22  C   UNL     1       2.235   8.499  18.051  0.00  0.00    +0.000 C 
ATOM     23  C   UNL     1       3.092   7.245  18.076  0.00  0.00    +0.000 C 
ENDBRANCH  21  23
ENDBRANCH  20  21
ENDBRANCH  19  20
ENDBRANCH  16  19
ENDBRANCH  15  16
ENDBRANCH  13  15
ENDBRANCH   1  13
TORSDOF 11
ENDMDL
MODEL 4
REMARK VINA RESULT:      -6.3      3.231      6.325
REMARK  Name = 
REMARK  13 active torsions:
REMARK  status: ('A' for Active; 'I' for Inactive)
REMARK    1  A    between atoms: C_1  and  C_2
REMARK    2  A    between atoms: C_2  and  C_3
REMARK    3  A    between atoms: C_3  and  C_4
REMARK    4  A    between atoms: C_4  and  C_5
REMARK    5  A    between atoms: C_5  and  C_6
REMARK    6  A    between atoms: C_6  and  O_7
REMARK    7  A    between atoms: C_6  and  C_8
REMARK    8  A    between atoms: C_8  and  C_9
REMARK    9  A    between atoms: C_9  and  C_11
REMARK   10  A    between atoms: C_12  and  C_13
REMARK   11  A    between atoms: C_16  and  O_17
REMARK   12  A    between atoms: C_18  and  O_19
REMARK   13  A    between atoms: O_19  and  C_20
REMARK                            x       y       z     vdW  Elec       q    Type
REMARK                         _______ _______ _______ _____ _____    ______ ____
ROOT
ATOM      1  C   UNL     1       4.044   6.120  18.195  0.00  0.00    +0.000 C 
ATOM      2  C   UNL     1       3.153   7.026  17.767  0.00  0.00    +0.000 C 
ENDROOT
BRANCH   2   3
ATOM      3  C   UNL     1       2.353   7.852  18.682  0.00  0.00    +0.000 A 
ATOM      4  C   UNL     1       2.111   7.381  19.975  0.00  0.00    +0.000 A 
ATOM      5  C   UNL     1       1.301   8.107  20.851  0.00  0.00    +0.000 A 
ATOM      6  C   UNL     1       0.732   9.317  20.446  0.00  0.00    +0.000 A 
ATOM      7  C   UNL     1       0.997   9.829  19.173  0.00  0.00    +0.000 A 
ATOM      8  C   UNL     1       1.818   9.090  18.308  0.00  0.00    +0.000 A 
BRANCH   6   9
ATOM      9  O   UNL     1      -0.085   9.972  21.325  0.00  0.00    +0.000 OA
ATOM     10  H   UNL     1       0.121  10.922  21.305  0.00  0.00    +0.000 HD
ENDBRANCH   6   9
BRANCH   7  11
ATOM     11  O   UNL     1       0.544  10.989  18.604  0.00  0.00    +0.000 OA
ATOM     12  C   UNL     1       1.294  12.176  18.815  0.00  0.00    +0.000 C 
ENDBRANCH   7  11
ENDBRANCH   2   3
BRANCH   1  13
ATOM     13  C   UNL     1       4.904   5.389  17.226  0.00  0.00    +0.000 C 
ATOM     14  O   UNL     1       5.829   5.946  16.641  0.00  0.00    +0.000 OA
BRANCH  13  15
ATOM     15  C   UNL     1       4.584   3.932  16.994  0.00  0.00    +0.000 C 
BRANCH  15  16
ATOM     16  C   UNL     1       4.095   3.246  18.266  0.00  0.00    +0.000 C 
BRANCH  16  17
ATOM     17  O   UNL     1       5.243   2.892  19.041  0.00  0.00    +0.000 OA
ATOM     18  H   UNL     1       6.032   3.225  18.577  0.00  0.00    +0.000 HD
ENDBRANCH  16  17
BRANCH  16  19
ATOM     19  C   UNL     1       3.249   1.998  17.991  0.00  0.00    +0.000 C 
BRANCH  19  20
ATOM     20  C   UNL     1       1.903   2.037  18.721  0.00  0.00    +0.000 C 
BRANCH  20  21
ATOM     21  C   UNL     1       1.290   3.435  18.662  0.00  0.00    +0.000 C 
BRANCH  21  23
ATOM     22  C   UNL     1       1.266   2.934  21.129  0.00  0.00    +0.000 C 
ATOM     23  C   UNL     1       1.063   3.997  20.063  0.00  0.00    +0.000 C 
ENDBRANCH  21  23
ENDBRANCH  20  21
ENDBRANCH  19  20
ENDBRANCH  16  19
ENDBRANCH  15  16
ENDBRANCH  13  15
ENDBRANCH   1  13
TORSDOF 11
ENDMDL
MODEL 5
REMARK VINA RESULT:      -6.3      1.171      1.483
REMARK  Name = 
REMARK  13 active torsions:
REMARK  status: ('A' for Active; 'I' for Inactive)
REMARK    1  A    between atoms: C_1  and  C_2
REMARK    2  A    between atoms: C_2  and  C_3
REMARK    3  A    between atoms: C_3  and  C_4
REMARK    4  A    between atoms: C_4  and  C_5
REMARK    5  A    between atoms: C_5  and  C_6
REMARK    6  A    between atoms: C_6  and  O_7
REMARK    7  A    between atoms: C_6  and  C_8
REMARK    8  A    between atoms: C_8  and  C_9
REMARK    9  A    between atoms: C_9  and  C_11
REMARK   10  A    between atoms: C_12  and  C_13
REMARK   11  A    between atoms: C_16  and  O_17
REMARK   12  A    between atoms: C_18  and  O_19
REMARK   13  A    between atoms: O_19  and  C_20
REMARK                            x       y       z     vdW  Elec       q    Type
REMARK                         _______ _______ _______ _____ _____    ______ ____
ROOT
ATOM      1  C   UNL     1       4.682   3.348  19.192  0.00  0.00    +0.000 C 
ATOM      2  C   UNL     1       4.328   3.512  17.909  0.00  0.00    +0.000 C 
ENDROOT
BRANCH   2   3
ATOM      3  C   UNL     1       5.224   4.101  16.904  0.00  0.00    +0.000 A 
ATOM      4  C   UNL     1       5.271   3.531  15.629  0.00  0.00    +0.000 A 
ATOM      5  C   UNL     1       6.158   4.022  14.668  0.00  0.00    +0.000 A 
ATOM      6  C   UNL     1       7.001   5.095  14.970  0.00  0.00    +0.000 A 
ATOM      7  C   UNL     1       6.940   5.709  16.224  0.00  0.00    +0.000 A 
ATOM      8  C   UNL     1       6.038   5.207  17.175  0.00  0.00    +0.000 A 
BRANCH   6   9
ATOM      9  O   UNL     1       7.879   5.515  14.010  0.00  0.00    +0.000 OA
ATOM     10  H   UNL     1       8.218   6.393  14.251  0.00  0.00    +0.000 HD
ENDBRANCH   6   9
BRANCH   7  11
ATOM     11  O   UNL     1       7.670   6.766  16.697  0.00  0.00    +0.000 OA
ATOM     12  C   UNL     1       7.663   7.012  18.095  0.00  0.00    +0.000 C 
ENDBRANCH   7  11
ENDBRANCH   2   3
BRANCH   1  13
ATOM     13  C   UNL     1       3.776   2.648  20.142  0.00  0.00    +0.000 C 
ATOM     14  O   UNL     1       4.213   2.033  21.111  0.00  0.00    +0.000 OA
BRANCH  13  15
ATOM     15  C   UNL     1       2.295   2.727  19.856  0.00  0.00    +0.000 C 
BRANCH  15  16
ATOM     16  C   UNL     1       1.576   3.655  20.829  0.00  0.00    +0.000 C 
BRANCH  16  17
ATOM     17  O   UNL     1       0.222   3.788  20.388  0.00  0.00    +0.000 OA
ATOM     18  H   UNL     1      -0.305   3.096  20.827  0.00  0.00    +0.000 HD
ENDBRANCH  16  17
BRANCH  16  19
ATOM     19  C   UNL     1       2.226   5.040  20.933  0.00  0.00    +0.000 C 
BRANCH  19  20
ATOM     20  C   UNL     1       1.925   5.914  19.712  0.00  0.00    +0.000 C 
BRANCH  20  21
ATOM     21  C   UNL     1       3.212   6.490  19.122  0.00  0.00    +0.000 C 
BRANCH  21  23
ATOM     22  C   UNL     1       1.908   8.524  18.414  0.00  0.00    +0.000 C 
ATOM     23  C   UNL     1       2.910   7.465  17.986  0.00  0.00    +0.000 C 
ENDBRANCH  21  23
ENDBRANCH  20  21
ENDBRANCH  19  20
ENDBRANCH  16  19
ENDBRANCH  15  16
ENDBRANCH  13  15
ENDBRANCH   1  13
TORSDOF 11
ENDMDL
MODEL 6
REMARK VINA RESULT:      -6.3      1.136      1.376
REMARK  Name = 
REMARK  13 active torsions:
REMARK  status: ('A' for Active; 'I' for Inactive)
REMARK    1  A    between atoms: C_1  and  C_2
REMARK    2  A    between atoms: C_2  and  C_3
REMARK    3  A    between atoms: C_3  and  C_4
REMARK    4  A    between atoms: C_4  and  C_5
REMARK    5  A    between atoms: C_5  and  C_6
REMARK    6  A    between atoms: C_6  and  O_7
REMARK    7  A    between atoms: C_6  and  C_8
REMARK    8  A    between atoms: C_8  and  C_9
REMARK    9  A    between atoms: C_9  and  C_11
REMARK   10  A    between atoms: C_12  and  C_13
REMARK   11  A    between atoms: C_16  and  O_17
REMARK   12  A    between atoms: C_18  and  O_19
REMARK   13  A    between atoms: O_19  and  C_20
REMARK                            x       y       z     vdW  Elec       q    Type
REMARK                         _______ _______ _______ _____ _____    ______ ____
ROOT
ATOM      1  C   UNL     1       2.845   3.277  17.481  0.00  0.00    +0.000 C 
ATOM      2  C   UNL     1       4.161   3.358  17.722  0.00  0.00    +0.000 C 
ENDROOT
BRANCH   2   3
ATOM      3  C   UNL     1       5.106   3.992  16.791  0.00  0.00    +0.000 A 
ATOM      4  C   UNL     1       5.211   3.486  15.493  0.00  0.00    +0.000 A 
ATOM      5  C   UNL     1       6.143   4.020  14.600  0.00  0.00    +0.000 A 
ATOM      6  C   UNL     1       6.975   5.072  14.994  0.00  0.00    +0.000 A 
ATOM      7  C   UNL     1       6.856   5.622  16.273  0.00  0.00    +0.000 A 
ATOM      8  C   UNL     1       5.909   5.078  17.155  0.00  0.00    +0.000 A 
BRANCH   6   9
ATOM      9  O   UNL     1       7.898   5.535  14.099  0.00  0.00    +0.000 OA
ATOM     10  H   UNL     1       7.692   5.182  13.218  0.00  0.00    +0.000 HD
ENDBRANCH   6   9
BRANCH   7  11
ATOM     11  O   UNL     1       7.566   6.650  16.833  0.00  0.00    +0.000 OA
ATOM     12  C   UNL     1       7.705   6.678  18.245  0.00  0.00    +0.000 C 
ENDBRANCH   7  11
ENDBRANCH   2   3
BRANCH   1  13
ATOM     13  C   UNL     1       1.921   2.723  18.506  0.00  0.00    +0.000 C 
ATOM     14  O   UNL     1       0.815   2.282  18.203  0.00  0.00    +0.000 OA
BRANCH  13  15
ATOM     15  C   UNL     1       2.406   2.731  19.936  0.00  0.00    +0.000 C 
BRANCH  15  16
ATOM     16  C   UNL     1       1.727   3.818  20.762  0.00  0.00    +0.000 C 
BRANCH  16  17
ATOM     17  O   UNL     1       0.420   4.028  20.219  0.00  0.00    +0.000 OA
ATOM     18  H   UNL     1      -0.085   4.565  20.856  0.00  0.00    +0.000 HD
ENDBRANCH  16  17
BRANCH  16  19
ATOM     19  C   UNL     1       2.503   5.141  20.771  0.00  0.00    +0.000 C 
BRANCH  19  20
ATOM     20  C   UNL     1       2.251   5.969  19.507  0.00  0.00    +0.000 C 
BRANCH  20  21
ATOM     21  C   UNL     1       2.153   7.457  19.840  0.00  0.00    +0.000 C 
BRANCH  21  23
ATOM     22  C   UNL     1       0.525   9.005  20.975  0.00  0.00    +0.000 C 
ATOM     23  C   UNL     1       1.281   7.691  21.071  0.00  0.00    +0.000 C 
ENDBRANCH  21  23
ENDBRANCH  20  21
ENDBRANCH  19  20
ENDBRANCH  16  19
ENDBRANCH  15  16
ENDBRANCH  13  15
ENDBRANCH   1  13
TORSDOF 11
ENDMDL
MODEL 7
REMARK VINA RESULT:      -6.2      4.527      7.371
REMARK  Name = 
REMARK  13 active torsions:
REMARK  status: ('A' for Active; 'I' for Inactive)
REMARK    1  A    between atoms: C_1  and  C_2
REMARK    2  A    between atoms: C_2  and  C_3
REMARK    3  A    between atoms: C_3  and  C_4
REMARK    4  A    between atoms: C_4  and  C_5
REMARK    5  A    between atoms: C_5  and  C_6
REMARK    6  A    between atoms: C_6  and  O_7
REMARK    7  A    between atoms: C_6  and  C_8
REMARK    8  A    between atoms: C_8  and  C_9
REMARK    9  A    between atoms: C_9  and  C_11
REMARK   10  A    between atoms: C_12  and  C_13
REMARK   11  A    between atoms: C_16  and  O_17
REMARK   12  A    between atoms: C_18  and  O_19
REMARK   13  A    between atoms: O_19  and  C_20
REMARK                            x       y       z     vdW  Elec       q    Type
REMARK                         _______ _______ _______ _____ _____    ______ ____
ROOT
ATOM      1  C   UNL     1       8.431   8.255  18.185  0.00  0.00    +0.000 C 
ATOM      2  C   UNL     1       8.210   9.571  18.063  0.00  0.00    +0.000 C 
ENDROOT
BRANCH   2   3
ATOM      3  C   UNL     1       9.136  10.587  18.584  0.00  0.00    +0.000 A 
ATOM      4  C   UNL     1       9.440  10.584  19.948  0.00  0.00    +0.000 A 
ATOM      5  C   UNL     1      10.264  11.573  20.490  0.00  0.00    +0.000 A 
ATOM      6  C   UNL     1      10.801  12.571  19.672  0.00  0.00    +0.000 A 
ATOM      7  C   UNL     1      10.546  12.567  18.298  0.00  0.00    +0.000 A 
ATOM      8  C   UNL     1       9.722  11.562  17.769  0.00  0.00    +0.000 A 
BRANCH   6   9
ATOM      9  O   UNL     1      11.570  13.539  20.254  0.00  0.00    +0.000 OA
ATOM     10  H   UNL     1      12.029  13.161  21.023  0.00  0.00    +0.000 HD
ENDBRANCH   6   9
BRANCH   7  11
ATOM     11  O   UNL     1      10.985  13.444  17.343  0.00  0.00    +0.000 OA
ATOM     12  C   UNL     1      12.306  13.290  16.846  0.00  0.00    +0.000 C 
ENDBRANCH   7  11
ENDBRANCH   2   3
BRANCH   1  13
ATOM     13  C   UNL     1       7.516   7.272  17.545  0.00  0.00    +0.000 C 
ATOM     14  O   UNL     1       6.732   7.606  16.660  0.00  0.00    +0.000 OA
BRANCH  13  15
ATOM     15  C   UNL     1       7.595   5.847  18.037  0.00  0.00    +0.000 C 
BRANCH  15  16
ATOM     16  C   UNL     1       6.760   5.631  19.295  0.00  0.00    +0.000 C 
BRANCH  16  17
ATOM     17  O   UNL     1       7.651   5.275  20.356  0.00  0.00    +0.000 OA
ATOM     18  H   UNL     1       7.813   6.072  20.891  0.00  0.00    +0.000 HD
ENDBRANCH  16  17
BRANCH  16  19
ATOM     19  C   UNL     1       5.690   4.546  19.130  0.00  0.00    +0.000 C 
BRANCH  19  20
ATOM     20  C   UNL     1       5.206   4.425  17.682  0.00  0.00    +0.000 C 
BRANCH  20  21
ATOM     21  C   UNL     1       4.058   5.394  17.406  0.00  0.00    +0.000 C 
BRANCH  21  23
ATOM     22  C   UNL     1       1.790   4.344  17.711  0.00  0.00    +0.000 C 
ATOM     23  C   UNL     1       2.893   5.158  18.365  0.00  0.00    +0.000 C 
ENDBRANCH  21  23
ENDBRANCH  20  21
ENDBRANCH  19  20
ENDBRANCH  16  19
ENDBRANCH  15  16
ENDBRANCH  13  15
ENDBRANCH   1  13
TORSDOF 11
ENDMDL
MODEL 8
REMARK VINA RESULT:      -6.2      1.244      2.340
REMARK  Name = 
REMARK  13 active torsions:
REMARK  status: ('A' for Active; 'I' for Inactive)
REMARK    1  A    between atoms: C_1  and  C_2
REMARK    2  A    between atoms: C_2  and  C_3
REMARK    3  A    between atoms: C_3  and  C_4
REMARK    4  A    between atoms: C_4  and  C_5
REMARK    5  A    between atoms: C_5  and  C_6
REMARK    6  A    between atoms: C_6  and  O_7
REMARK    7  A    between atoms: C_6  and  C_8
REMARK    8  A    between atoms: C_8  and  C_9
REMARK    9  A    between atoms: C_9  and  C_11
REMARK   10  A    between atoms: C_12  and  C_13
REMARK   11  A    between atoms: C_16  and  O_17
REMARK   12  A    between atoms: C_18  and  O_19
REMARK   13  A    between atoms: O_19  and  C_20
REMARK                            x       y       z     vdW  Elec       q    Type
REMARK                         _______ _______ _______ _____ _____    ______ ____
ROOT
ATOM      1  C   UNL     1       3.675   3.047  18.503  0.00  0.00    +0.000 C 
ATOM      2  C   UNL     1       4.749   3.591  19.094  0.00  0.00    +0.000 C 
ENDROOT
BRANCH   2   3
ATOM      3  C   UNL     1       5.640   4.540  18.411  0.00  0.00    +0.000 A 
ATOM      4  C   UNL     1       6.510   5.317  19.179  0.00  0.00    +0.000 A 
ATOM      5  C   UNL     1       7.326   6.274  18.571  0.00  0.00    +0.000 A 
ATOM      6  C   UNL     1       7.286   6.458  17.186  0.00  0.00    +0.000 A 
ATOM      7  C   UNL     1       6.456   5.661  16.394  0.00  0.00    +0.000 A 
ATOM      8  C   UNL     1       5.649   4.699  17.020  0.00  0.00    +0.000 A 
BRANCH   6   9
ATOM      9  O   UNL     1       8.073   7.434  16.642  0.00  0.00    +0.000 OA
ATOM     10  H   UNL     1       9.000   7.144  16.662  0.00  0.00    +0.000 HD
ENDBRANCH   6   9
BRANCH   7  11
ATOM     11  O   UNL     1       6.288   5.684  15.035  0.00  0.00    +0.000 OA
ATOM     12  C   UNL     1       6.831   4.618  14.274  0.00  0.00    +0.000 C 
ENDBRANCH   7  11
ENDBRANCH   2   3
BRANCH   1  13
ATOM     13  C   UNL     1       2.747   2.179  19.274  0.00  0.00    +0.000 C 
ATOM     14  O   UNL     1       2.342   1.110  18.822  0.00  0.00    +0.000 OA
BRANCH  13  15
ATOM     15  C   UNL     1       2.324   2.674  20.637  0.00  0.00    +0.000 C 
BRANCH  15  16
ATOM     16  C   UNL     1       0.981   3.395  20.589  0.00  0.00    +0.000 C 
BRANCH  16  17
ATOM     17  O   UNL     1       0.069   2.574  19.855  0.00  0.00    +0.000 OA
ATOM     18  H   UNL     1      -0.648   3.144  19.524  0.00  0.00    +0.000 HD
ENDBRANCH  16  17
BRANCH  16  19
ATOM     19  C   UNL     1       1.065   4.783  19.942  0.00  0.00    +0.000 C 
BRANCH  19  20
ATOM     20  C   UNL     1       2.183   5.637  20.547  0.00  0.00    +0.000 C 
BRANCH  20  21
ATOM     21  C   UNL     1       2.210   7.028  19.917  0.00  0.00    +0.000 C 
BRANCH  21  23
ATOM     22  C   UNL     1       3.476   7.460  17.785  0.00  0.00    +0.000 C 
ATOM     23  C   UNL     1       2.183   6.945  18.393  0.00  0.00    +0.000 C 
ENDBRANCH  21  23
ENDBRANCH  20  21
ENDBRANCH  19  20
ENDBRANCH  16  19
ENDBRANCH  15  16
ENDBRANCH  13  15
ENDBRANCH   1  13
TORSDOF 11
ENDMDL
MODEL 9
REMARK VINA RESULT:      -6.1      1.032      2.279
REMARK  Name = 
REMARK  13 active torsions:
REMARK  status: ('A' for Active; 'I' for Inactive)
REMARK    1  A    between atoms: C_1  and  C_2
REMARK    2  A    between atoms: C_2  and  C_3
REMARK    3  A    between atoms: C_3  and  C_4
REMARK    4  A    between atoms: C_4  and  C_5
REMARK    5  A    between atoms: C_5  and  C_6
REMARK    6  A    between atoms: C_6  and  O_7
REMARK    7  A    between atoms: C_6  and  C_8
REMARK    8  A    between atoms: C_8  and  C_9
REMARK    9  A    between atoms: C_9  and  C_11
REMARK   10  A    between atoms: C_12  and  C_13
REMARK   11  A    between atoms: C_16  and  O_17
REMARK   12  A    between atoms: C_18  and  O_19
REMARK   13  A    between atoms: O_19  and  C_20
REMARK                            x       y       z     vdW  Elec       q    Type
REMARK                         _______ _______ _______ _____ _____    ______ ____
ROOT
ATOM      1  C   UNL     1       3.774   3.461  17.822  0.00  0.00    +0.000 C 
ATOM      2  C   UNL     1       3.778   3.848  16.538  0.00  0.00    +0.000 C 
ENDROOT
BRANCH   2   3
ATOM      3  C   UNL     1       5.000   4.253  15.830  0.00  0.00    +0.000 A 
ATOM      4  C   UNL     1       5.930   5.054  16.498  0.00  0.00    +0.000 A 
ATOM      5  C   UNL     1       7.072   5.513  15.837  0.00  0.00    +0.000 A 
ATOM      6  C   UNL     1       7.301   5.167  14.502  0.00  0.00    +0.000 A 
ATOM      7  C   UNL     1       6.407   4.331  13.828  0.00  0.00    +0.000 A 
ATOM      8  C   UNL     1       5.269   3.873  14.510  0.00  0.00    +0.000 A 
BRANCH   6   9
ATOM      9  O   UNL     1       8.412   5.671  13.886  0.00  0.00    +0.000 OA
ATOM     10  H   UNL     1       9.202   5.242  14.253  0.00  0.00    +0.000 HD
ENDBRANCH   6   9
BRANCH   7  11
ATOM     11  O   UNL     1       6.464   3.878  12.538  0.00  0.00    +0.000 OA
ATOM     12  C   UNL     1       5.520   2.901  12.127  0.00  0.00    +0.000 C 
ENDBRANCH   7  11
ENDBRANCH   2   3
BRANCH   1  13
ATOM     13  C   UNL     1       2.527   2.958  18.456  0.00  0.00    +0.000 C 
ATOM     14  O   UNL     1       1.447   3.002  17.873  0.00  0.00    +0.000 OA
BRANCH  13  15
ATOM     15  C   UNL     1       2.652   2.395  19.852  0.00  0.00    +0.000 C 
BRANCH  15  16
ATOM     16  C   UNL     1       1.938   3.264  20.882  0.00  0.00    +0.000 C 
BRANCH  16  17
ATOM     17  O   UNL     1       0.560   3.347  20.506  0.00  0.00    +0.000 OA
ATOM     18  H   UNL     1       0.357   4.282  20.320  0.00  0.00    +0.000 HD
ENDBRANCH  16  17
BRANCH  16  19
ATOM     19  C   UNL     1       2.530   4.673  20.997  0.00  0.00    +0.000 C 
BRANCH  19  20
ATOM     20  C   UNL     1       1.563   5.751  20.499  0.00  0.00    +0.000 C 
BRANCH  20  21
ATOM     21  C   UNL     1       2.321   6.910  19.854  0.00  0.00    +0.000 C 
BRANCH  21  23
ATOM     22  C   UNL     1       3.436   7.487  17.672  0.00  0.00    +0.000 C 
ATOM     23  C   UNL     1       2.221   6.857  18.331  0.00  0.00    +0.000 C 
ENDBRANCH  21  23
ENDBRANCH  20  21
ENDBRANCH  19  20
ENDBRANCH  16  19
ENDBRANCH  15  16
ENDBRANCH  13  15
ENDBRANCH   1  13
TORSDOF 11
ENDMDL
