MODEL 1
REMARK VINA RESULT:      -8.6      0.000      0.000
REMARK  Name = 
REMARK  10 active torsions:
REMARK  status: ('A' for Active; 'I' for Inactive)
REMARK    1  A    between atoms: C_1  and  C_2
REMARK    2  A    between atoms: C_2  and  C_3
REMARK    3  A    between atoms: C_2  and  C_4
REMARK    4  A    between atoms: C_2  and  C_5
REMARK    5  A    between atoms: C_5  and  O_6
REMARK    6  A    between atoms: O_6  and  C_7
REMARK    7  A    between atoms: C_9  and  C_10
REMARK    8  A    between atoms: C_16  and  C_17
REMARK    9  A    between atoms: C_17  and  N_18
REMARK   10  A    between atoms: N_21  and  C_22
REMARK                            x       y       z     vdW  Elec       q    Type
REMARK                         _______ _______ _______ _____ _____    ______ ____
ROOT
ATOM      1  C   UNL     1       2.472   7.396  18.590  0.00  0.00    +0.000 C 
ENDROOT
BRANCH   1   7
ATOM      2  C   UNL     1       4.117   5.497  18.453  0.00  0.00    +0.000 A 
ATOM      3  N   UNL     1       5.136   4.804  17.901  0.00  0.00    +0.000 NA
ATOM      4  C   UNL     1       5.679   5.256  16.740  0.00  0.00    +0.000 A 
ATOM      5  C   UNL     1       5.209   6.412  16.120  0.00  0.00    +0.000 A 
ATOM      6  C   UNL     1       4.149   7.111  16.699  0.00  0.00    +0.000 A 
ATOM      7  C   UNL     1       3.561   6.645  17.880  0.00  0.00    +0.000 A 
BRANCH   4   8
ATOM      8  C   UNL     1       6.843   4.492  16.130  0.00  0.00    +0.000 C 
ATOM      9  F   UNL     1       7.828   4.171  17.017  0.00  0.00    +0.000 F 
ATOM     10  F   UNL     1       6.453   3.312  15.566  0.00  0.00    +0.000 F 
ATOM     11  F   UNL     1       7.458   5.190  15.131  0.00  0.00    +0.000 F 
ENDBRANCH   4   8
BRANCH   2  12
ATOM     12  O   UNL     1       3.620   5.056  19.667  0.00  0.00    +0.000 OA
BRANCH  12  13
ATOM     13  C   UNL     1       3.314   3.652  19.670  0.00  0.00    +0.000 C 
BRANCH  13  15
ATOM     14  C   UNL     1       1.183   4.702  20.540  0.00  0.00    +0.000 C 
ATOM     15  C   UNL     1       1.914   3.378  20.270  0.00  0.00    +0.000 C 
ATOM     16  C   UNL     1       2.035   2.590  21.584  0.00  0.00    +0.000 C 
ATOM     17  C   UNL     1       1.095   2.548  19.265  0.00  0.00    +0.000 C 
ENDBRANCH  13  15
ENDBRANCH  12  13
ENDBRANCH   2  12
ENDBRANCH   1   7
BRANCH   1  18
ATOM     18  N   UNL     1       2.147   8.713  18.050  0.00  0.00    +0.000 N 
ATOM     19  C   UNL     1       1.340   9.500  18.853  0.00  0.00    +0.000 C 
ATOM     20  O   UNL     1       1.056   9.139  19.990  0.00  0.00    +0.000 OA
ATOM     21  N   UNL     1       0.920  10.665  18.247  0.00  0.00    +0.000 N 
ATOM     22  H   UNL     1       1.990   8.774  17.057  0.00  0.00    +0.000 HD
ATOM     23  H   UNL     1       1.132  10.784  17.270  0.00  0.00    +0.000 HD
BRANCH  21  24
ATOM     24  C   UNL     1       0.081  11.644  18.850  0.00  0.00    +0.000 A 
ATOM     25  C   UNL     1       0.585  12.682  19.659  0.00  0.00    +0.000 A 
ATOM     26  C   UNL     1      -0.248  13.602  20.299  0.00  0.00    +0.000 A 
ATOM     27  C   UNL     1      -1.629  13.540  20.154  0.00  0.00    +0.000 A 
ATOM     28  C   UNL     1      -2.130  12.537  19.324  0.00  0.00    +0.000 A 
ATOM     29  N   UNL     1      -3.419  12.224  18.978  0.00  0.00    +0.000 N 
ATOM     30  N   UNL     1      -3.524  11.179  18.141  0.00  0.00    +0.000 NA
ATOM     31  C   UNL     1      -2.254  10.805  17.958  0.00  0.00    +0.000 A 
ATOM     32  C   UNL     1      -1.324  11.606  18.666  0.00  0.00    +0.000 A 
ATOM     33  H   UNL     1      -4.268  12.687  19.285  0.00  0.00    +0.000 HD
ENDBRANCH  21  24
ENDBRANCH   1  18
TORSDOF 7
ENDMDL
MODEL 2
REMARK VINA RESULT:      -8.6      0.277      1.094
REMARK  Name = 
REMARK  10 active torsions:
REMARK  status: ('A' for Active; 'I' for Inactive)
REMARK    1  A    between atoms: C_1  and  C_2
REMARK    2  A    between atoms: C_2  and  C_3
REMARK    3  A    between atoms: C_2  and  C_4
REMARK    4  A    between atoms: C_2  and  C_5
REMARK    5  A    between atoms: C_5  and  O_6
REMARK    6  A    between atoms: O_6  and  C_7
REMARK    7  A    between atoms: C_9  and  C_10
REMARK    8  A    between atoms: C_16  and  C_17
REMARK    9  A    between atoms: C_17  and  N_18
REMARK   10  A    between atoms: N_21  and  C_22
REMARK                            x       y       z     vdW  Elec       q    Type
REMARK                         _______ _______ _______ _____ _____    ______ ____
ROOT
ATOM      1  C   UNL     1       2.598   7.392  18.707  0.00  0.00    +0.000 C 
ENDROOT
BRANCH   1   7
ATOM      2  C   UNL     1       4.148   5.433  18.403  0.00  0.00    +0.000 A 
ATOM      3  N   UNL     1       5.123   4.733  17.781  0.00  0.00    +0.000 NA
ATOM      4  C   UNL     1       5.662   5.239  16.641  0.00  0.00    +0.000 A 
ATOM      5  C   UNL     1       5.234   6.455  16.112  0.00  0.00    +0.000 A 
ATOM      6  C   UNL     1       4.221   7.160  16.761  0.00  0.00    +0.000 A 
ATOM      7  C   UNL     1       3.636   6.641  17.922  0.00  0.00    +0.000 A 
BRANCH   4   8
ATOM      8  C   UNL     1       6.775   4.466  15.953  0.00  0.00    +0.000 C 
ATOM      9  F   UNL     1       7.340   5.117  14.896  0.00  0.00    +0.000 F 
ATOM     10  F   UNL     1       7.804   4.169  16.799  0.00  0.00    +0.000 F 
ATOM     11  F   UNL     1       6.349   3.265  15.461  0.00  0.00    +0.000 F 
ENDBRANCH   4   8
BRANCH   2  12
ATOM     12  O   UNL     1       3.656   4.933  19.596  0.00  0.00    +0.000 OA
BRANCH  12  13
ATOM     13  C   UNL     1       3.169   3.586  19.480  0.00  0.00    +0.000 C 
BRANCH  13  15
ATOM     14  C   UNL     1       2.069   2.639  21.552  0.00  0.00    +0.000 C 
ATOM     15  C   UNL     1       1.832   3.400  20.238  0.00  0.00    +0.000 C 
ATOM     16  C   UNL     1       0.828   2.619  19.376  0.00  0.00    +0.000 C 
ATOM     17  C   UNL     1       1.244   4.786  20.558  0.00  0.00    +0.000 C 
ENDBRANCH  13  15
ENDBRANCH  12  13
ENDBRANCH   2  12
ENDBRANCH   1   7
BRANCH   1  18
ATOM     18  N   UNL     1       2.123   8.637  18.112  0.00  0.00    +0.000 N 
ATOM     19  C   UNL     1       1.291   9.397  18.915  0.00  0.00    +0.000 C 
ATOM     20  O   UNL     1       1.103   9.084  20.085  0.00  0.00    +0.000 OA
ATOM     21  N   UNL     1       0.732  10.479  18.268  0.00  0.00    +0.000 N 
ATOM     22  H   UNL     1       1.908   8.621  17.128  0.00  0.00    +0.000 HD
ATOM     23  H   UNL     1       0.880  10.556  17.275  0.00  0.00    +0.000 HD
BRANCH  21  24
ATOM     24  C   UNL     1      -0.160  11.415  18.863  0.00  0.00    +0.000 A 
ATOM     25  C   UNL     1       0.255  12.355  19.826  0.00  0.00    +0.000 A 
ATOM     26  C   UNL     1      -0.637  13.229  20.452  0.00  0.00    +0.000 A 
ATOM     27  C   UNL     1      -1.991  13.217  20.137  0.00  0.00    +0.000 A 
ATOM     28  C   UNL     1      -2.400  12.314  19.155  0.00  0.00    +0.000 A 
ATOM     29  N   UNL     1      -3.642  12.069  18.628  0.00  0.00    +0.000 N 
ATOM     30  N   UNL     1      -3.658  11.115  17.683  0.00  0.00    +0.000 NA
ATOM     31  C   UNL     1      -2.380  10.729  17.617  0.00  0.00    +0.000 A 
ATOM     32  C   UNL     1      -1.533  11.432  18.509  0.00  0.00    +0.000 A 
ATOM     33  H   UNL     1      -4.515  12.521  18.876  0.00  0.00    +0.000 HD
ENDBRANCH  21  24
ENDBRANCH   1  18
TORSDOF 7
ENDMDL
MODEL 3
REMARK VINA RESULT:      -8.5      1.010      1.934
REMARK  Name = 
REMARK  10 active torsions:
REMARK  status: ('A' for Active; 'I' for Inactive)
REMARK    1  A    between atoms: C_1  and  C_2
REMARK    2  A    between atoms: C_2  and  C_3
REMARK    3  A    between atoms: C_2  and  C_4
REMARK    4  A    between atoms: C_2  and  C_5
REMARK    5  A    between atoms: C_5  and  O_6
REMARK    6  A    between atoms: O_6  and  C_7
REMARK    7  A    between atoms: C_9  and  C_10
REMARK    8  A    between atoms: C_16  and  C_17
REMARK    9  A    between atoms: C_17  and  N_18
REMARK   10  A    between atoms: N_21  and  C_22
REMARK                            x       y       z     vdW  Elec       q    Type
REMARK                         _______ _______ _______ _____ _____    ______ ____
ROOT
ATOM      1  C   UNL     1       2.831   7.707  18.552  0.00  0.00    +0.000 C 
ENDROOT
BRANCH   1   7
ATOM      2  C   UNL     1       4.343   5.702  18.388  0.00  0.00    +0.000 A 
ATOM      3  N   UNL     1       5.265   4.915  17.791  0.00  0.00    +0.000 NA
ATOM      4  C   UNL     1       5.722   5.266  16.560  0.00  0.00    +0.000 A 
ATOM      5  C   UNL     1       5.264   6.411  15.913  0.00  0.00    +0.000 A 
ATOM      6  C   UNL     1       4.305   7.208  16.540  0.00  0.00    +0.000 A 
ATOM      7  C   UNL     1       3.804   6.848  17.796  0.00  0.00    +0.000 A 
BRANCH   4   8
ATOM      8  C   UNL     1       6.778   4.395  15.897  0.00  0.00    +0.000 C 
ATOM      9  F   UNL     1       7.358   4.957  14.798  0.00  0.00    +0.000 F 
ATOM     10  F   UNL     1       7.805   4.087  16.741  0.00  0.00    +0.000 F 
ATOM     11  F   UNL     1       6.277   3.196  15.478  0.00  0.00    +0.000 F 
ENDBRANCH   4   8
BRANCH   2  12
ATOM     12  O   UNL     1       3.938   5.364  19.666  0.00  0.00    +0.000 OA
BRANCH  12  13
ATOM     13  C   UNL     1       3.510   3.996  19.775  0.00  0.00    +0.000 C 
BRANCH  13  15
ATOM     14  C   UNL     1       1.409   5.133  20.607  0.00  0.00    +0.000 C 
ATOM     15  C   UNL     1       1.971   3.890  19.899  0.00  0.00    +0.000 C 
ATOM     16  C   UNL     1       1.579   2.635  20.693  0.00  0.00    +0.000 C 
ATOM     17  C   UNL     1       1.364   3.798  18.487  0.00  0.00    +0.000 C 
ENDBRANCH  13  15
ENDBRANCH  12  13
ENDBRANCH   2  12
ENDBRANCH   1   7
BRANCH   1  18
ATOM     18  N   UNL     1       2.013   8.609  17.746  0.00  0.00    +0.000 N 
ATOM     19  C   UNL     1       0.902   9.130  18.385  0.00  0.00    +0.000 C 
ATOM     20  O   UNL     1       0.729   8.938  19.583  0.00  0.00    +0.000 OA
ATOM     21  N   UNL     1       0.067   9.844  17.552  0.00  0.00    +0.000 N 
ATOM     22  H   UNL     1       1.906   8.380  16.771  0.00  0.00    +0.000 HD
ATOM     23  H   UNL     1       0.268   9.828  16.565  0.00  0.00    +0.000 HD
BRANCH  21  24
ATOM     24  C   UNL     1      -1.142  10.478  17.954  0.00  0.00    +0.000 A 
ATOM     25  C   UNL     1      -2.414   9.967  17.628  0.00  0.00    +0.000 A 
ATOM     26  C   UNL     1      -3.596  10.626  17.972  0.00  0.00    +0.000 A 
ATOM     27  C   UNL     1      -3.569  11.828  18.670  0.00  0.00    +0.000 A 
ATOM     28  C   UNL     1      -2.312  12.319  19.028  0.00  0.00    +0.000 A 
ATOM     29  N   UNL     1      -1.958  13.452  19.713  0.00  0.00    +0.000 N 
ATOM     30  N   UNL     1      -0.633  13.601  19.878  0.00  0.00    +0.000 NA
ATOM     31  C   UNL     1      -0.126  12.530  19.262  0.00  0.00    +0.000 A 
ATOM     32  C   UNL     1      -1.114  11.680  18.704  0.00  0.00    +0.000 A 
ATOM     33  H   UNL     1      -2.577  14.161  20.090  0.00  0.00    +0.000 HD
ENDBRANCH  21  24
ENDBRANCH   1  18
TORSDOF 7
ENDMDL
MODEL 4
REMARK VINA RESULT:      -8.4      1.223      2.133
REMARK  Name = 
REMARK  10 active torsions:
REMARK  status: ('A' for Active; 'I' for Inactive)
REMARK    1  A    between atoms: C_1  and  C_2
REMARK    2  A    between atoms: C_2  and  C_3
REMARK    3  A    between atoms: C_2  and  C_4
REMARK    4  A    between atoms: C_2  and  C_5
REMARK    5  A    between atoms: C_5  and  O_6
REMARK    6  A    between atoms: O_6  and  C_7
REMARK    7  A    between atoms: C_9  and  C_10
REMARK    8  A    between atoms: C_16  and  C_17
REMARK    9  A    between atoms: C_17  and  N_18
REMARK   10  A    between atoms: N_21  and  C_22
REMARK                            x       y       z     vdW  Elec       q    Type
REMARK                         _______ _______ _______ _____ _____    ______ ____
ROOT
ATOM      1  C   UNL     1       2.473   7.393  18.691  0.00  0.00    +0.000 C 
ENDROOT
BRANCH   1   7
ATOM      2  C   UNL     1       4.095   5.479  18.486  0.00  0.00    +0.000 A 
ATOM      3  N   UNL     1       5.097   4.787  17.901  0.00  0.00    +0.000 NA
ATOM      4  C   UNL     1       5.622   5.257  16.740  0.00  0.00    +0.000 A 
ATOM      5  C   UNL     1       5.153   6.430  16.152  0.00  0.00    +0.000 A 
ATOM      6  C   UNL     1       4.112   7.127  16.764  0.00  0.00    +0.000 A 
ATOM      7  C   UNL     1       3.541   6.644  17.947  0.00  0.00    +0.000 A 
BRANCH   4   8
ATOM      8  C   UNL     1       6.766   4.492  16.093  0.00  0.00    +0.000 C 
ATOM      9  F   UNL     1       6.398   3.309  15.524  0.00  0.00    +0.000 F 
ATOM     10  F   UNL     1       7.376   5.206  15.102  0.00  0.00    +0.000 F 
ATOM     11  F   UNL     1       7.755   4.183  16.983  0.00  0.00    +0.000 F 
ENDBRANCH   4   8
BRANCH   2  12
ATOM     12  O   UNL     1       3.616   5.020  19.700  0.00  0.00    +0.000 OA
BRANCH  12  13
ATOM     13  C   UNL     1       3.277   3.623  19.676  0.00  0.00    +0.000 C 
BRANCH  13  15
ATOM     14  C   UNL     1       1.010   2.613  19.189  0.00  0.00    +0.000 C 
ATOM     15  C   UNL     1       1.851   3.376  20.224  0.00  0.00    +0.000 C 
ATOM     16  C   UNL     1       1.161   4.709  20.552  0.00  0.00    +0.000 C 
ATOM     17  C   UNL     1       1.950   2.535  21.510  0.00  0.00    +0.000 C 
ENDBRANCH  13  15
ENDBRANCH  12  13
ENDBRANCH   2  12
ENDBRANCH   1   7
BRANCH   1  18
ATOM     18  N   UNL     1       1.977   8.606  18.050  0.00  0.00    +0.000 N 
ATOM     19  C   UNL     1       1.268   9.464  18.873  0.00  0.00    +0.000 C 
ATOM     20  O   UNL     1       1.206   9.255  20.079  0.00  0.00    +0.000 OA
ATOM     21  N   UNL     1       0.677  10.514  18.203  0.00  0.00    +0.000 N 
ATOM     22  H   UNL     1       1.650   8.520  17.101  0.00  0.00    +0.000 HD
ATOM     23  H   UNL     1       0.712  10.504  17.197  0.00  0.00    +0.000 HD
BRANCH  21  24
ATOM     24  C   UNL     1      -0.109  11.533  18.812  0.00  0.00    +0.000 A 
ATOM     25  C   UNL     1      -1.384  11.286  19.356  0.00  0.00    +0.000 A 
ATOM     26  C   UNL     1      -2.177  12.301  19.896  0.00  0.00    +0.000 A 
ATOM     27  C   UNL     1      -1.730  13.618  19.930  0.00  0.00    +0.000 A 
ATOM     28  C   UNL     1      -0.451  13.860  19.426  0.00  0.00    +0.000 A 
ATOM     29  N   UNL     1       0.264  15.026  19.327  0.00  0.00    +0.000 N 
ATOM     30  N   UNL     1       1.482  14.877  18.783  0.00  0.00    +0.000 NA
ATOM     31  C   UNL     1       1.539  13.570  18.513  0.00  0.00    +0.000 A 
ATOM     32  C   UNL     1       0.367  12.866  18.886  0.00  0.00    +0.000 A 
ATOM     33  H   UNL     1      -0.030  15.954  19.612  0.00  0.00    +0.000 HD
ENDBRANCH  21  24
ENDBRANCH   1  18
TORSDOF 7
ENDMDL
MODEL 5
REMARK VINA RESULT:      -8.4      2.677      4.416
REMARK  Name = 
REMARK  10 active torsions:
REMARK  status: ('A' for Active; 'I' for Inactive)
REMARK    1  A    between atoms: C_1  and  C_2
REMARK    2  A    between atoms: C_2  and  C_3
REMARK    3  A    between atoms: C_2  and  C_4
REMARK    4  A    between atoms: C_2  and  C_5
REMARK    5  A    between atoms: C_5  and  O_6
REMARK    6  A    between atoms: O_6  and  C_7
REMARK    7  A    between atoms: C_9  and  C_10
REMARK    8  A    between atoms: C_16  and  C_17
REMARK    9  A    between atoms: C_17  and  N_18
REMARK   10  A    between atoms: N_21  and  C_22
REMARK                            x       y       z     vdW  Elec       q    Type
REMARK                         _______ _______ _______ _____ _____    ______ ____
ROOT
ATOM      1  C   UNL     1       3.019   7.816  18.249  0.00  0.00    +0.000 C 
ENDROOT
BRANCH   1   7
ATOM      2  C   UNL     1       3.230   5.317  18.463  0.00  0.00    +0.000 A 
ATOM      3  N   UNL     1       3.017   4.121  19.055  0.00  0.00    +0.000 NA
ATOM      4  C   UNL     1       2.322   4.086  20.222  0.00  0.00    +0.000 A 
ATOM      5  C   UNL     1       1.828   5.249  20.809  0.00  0.00    +0.000 A 
ATOM      6  C   UNL     1       2.064   6.476  20.190  0.00  0.00    +0.000 A 
ATOM      7  C   UNL     1       2.801   6.534  19.001  0.00  0.00    +0.000 A 
BRANCH   4   8
ATOM      8  C   UNL     1       2.060   2.739  20.877  0.00  0.00    +0.000 C 
ATOM      9  F   UNL     1       3.136   2.217  21.534  0.00  0.00    +0.000 F 
ATOM     10  F   UNL     1       1.054   2.793  21.797  0.00  0.00    +0.000 F 
ATOM     11  F   UNL     1       1.681   1.787  19.975  0.00  0.00    +0.000 F 
ENDBRANCH   4   8
BRANCH   2  12
ATOM     12  O   UNL     1       3.884   5.326  17.244  0.00  0.00    +0.000 OA
BRANCH  12  13
ATOM     13  C   UNL     1       5.254   4.904  17.341  0.00  0.00    +0.000 C 
BRANCH  13  15
ATOM     14  C   UNL     1       6.887   4.674  15.422  0.00  0.00    +0.000 C 
ATOM     15  C   UNL     1       6.155   5.666  16.339  0.00  0.00    +0.000 C 
ATOM     16  C   UNL     1       7.190   6.521  17.086  0.00  0.00    +0.000 C 
ATOM     17  C   UNL     1       5.273   6.589  15.478  0.00  0.00    +0.000 C 
ENDBRANCH  13  15
ENDBRANCH  12  13
ENDBRANCH   2  12
ENDBRANCH   1   7
BRANCH   1  18
ATOM     18  N   UNL     1       1.858   8.349  17.543  0.00  0.00    +0.000 N 
ATOM     19  C   UNL     1       1.091   9.250  18.261  0.00  0.00    +0.000 C 
ATOM     20  O   UNL     1       1.470   9.654  19.354  0.00  0.00    +0.000 OA
ATOM     21  N   UNL     1      -0.081   9.607  17.629  0.00  0.00    +0.000 N 
ATOM     22  H   UNL     1       1.361   7.715  16.939  0.00  0.00    +0.000 HD
ATOM     23  H   UNL     1      -0.326   9.113  16.786  0.00  0.00    +0.000 HD
BRANCH  21  24
ATOM     24  C   UNL     1      -1.049  10.512  18.151  0.00  0.00    +0.000 A 
ATOM     25  C   UNL     1      -0.949  11.069  19.442  0.00  0.00    +0.000 A 
ATOM     26  C   UNL     1      -1.932  11.907  19.972  0.00  0.00    +0.000 A 
ATOM     27  C   UNL     1      -3.063  12.241  19.235  0.00  0.00    +0.000 A 
ATOM     28  C   UNL     1      -3.147  11.722  17.942  0.00  0.00    +0.000 A 
ATOM     29  N   UNL     1      -4.113  11.870  16.981  0.00  0.00    +0.000 N 
ATOM     30  N   UNL     1      -3.852  11.216  15.837  0.00  0.00    +0.000 NA
ATOM     31  C   UNL     1      -2.683  10.619  16.085  0.00  0.00    +0.000 A 
ATOM     32  C   UNL     1      -2.178  10.887  17.382  0.00  0.00    +0.000 A 
ATOM     33  H   UNL     1      -4.973  12.403  17.050  0.00  0.00    +0.000 HD
ENDBRANCH  21  24
ENDBRANCH   1  18
TORSDOF 7
ENDMDL
MODEL 6
REMARK VINA RESULT:      -8.3      1.124      1.495
REMARK  Name = 
REMARK  10 active torsions:
REMARK  status: ('A' for Active; 'I' for Inactive)
REMARK    1  A    between atoms: C_1  and  C_2
REMARK    2  A    between atoms: C_2  and  C_3
REMARK    3  A    between atoms: C_2  and  C_4
REMARK    4  A    between atoms: C_2  and  C_5
REMARK    5  A    between atoms: C_5  and  O_6
REMARK    6  A    between atoms: O_6  and  C_7
REMARK    7  A    between atoms: C_9  and  C_10
REMARK    8  A    between atoms: C_16  and  C_17
REMARK    9  A    between atoms: C_17  and  N_18
REMARK   10  A    between atoms: N_21  and  C_22
REMARK                            x       y       z     vdW  Elec       q    Type
REMARK                         _______ _______ _______ _____ _____    ______ ____
ROOT
ATOM      1  C   UNL     1       2.620   7.775  18.624  0.00  0.00    +0.000 C 
ENDROOT
BRANCH   1   7
ATOM      2  C   UNL     1       3.299   5.504  17.779  0.00  0.00    +0.000 A 
ATOM      3  N   UNL     1       4.069   4.643  17.077  0.00  0.00    +0.000 NA
ATOM      4  C   UNL     1       5.095   5.141  16.339  0.00  0.00    +0.000 A 
ATOM      5  C   UNL     1       5.366   6.507  16.298  0.00  0.00    +0.000 A 
ATOM      6  C   UNL     1       4.555   7.383  17.021  0.00  0.00    +0.000 A 
ATOM      7  C   UNL     1       3.477   6.890  17.765  0.00  0.00    +0.000 A 
BRANCH   4   8
ATOM      8  C   UNL     1       5.979   4.173  15.569  0.00  0.00    +0.000 C 
ATOM      9  F   UNL     1       5.762   2.859  15.865  0.00  0.00    +0.000 F 
ATOM     10  F   UNL     1       5.816   4.280  14.218  0.00  0.00    +0.000 F 
ATOM     11  F   UNL     1       7.308   4.387  15.795  0.00  0.00    +0.000 F 
ENDBRANCH   4   8
BRANCH   2  12
ATOM     12  O   UNL     1       2.298   4.973  18.574  0.00  0.00    +0.000 OA
BRANCH  12  13
ATOM     13  C   UNL     1       2.791   4.441  19.814  0.00  0.00    +0.000 C 
BRANCH  13  15
ATOM     14  C   UNL     1       1.160   2.630  19.137  0.00  0.00    +0.000 C 
ATOM     15  C   UNL     1       2.393   2.956  19.994  0.00  0.00    +0.000 C 
ATOM     16  C   UNL     1       2.079   2.657  21.467  0.00  0.00    +0.000 C 
ATOM     17  C   UNL     1       3.567   2.068  19.542  0.00  0.00    +0.000 C 
ENDBRANCH  13  15
ENDBRANCH  12  13
ENDBRANCH   2  12
ENDBRANCH   1   7
BRANCH   1  18
ATOM     18  N   UNL     1       1.888   8.828  17.928  0.00  0.00    +0.000 N 
ATOM     19  C   UNL     1       0.869   9.421  18.653  0.00  0.00    +0.000 C 
ATOM     20  O   UNL     1       0.717   9.154  19.840  0.00  0.00    +0.000 OA
ATOM     21  N   UNL     1       0.097  10.292  17.915  0.00  0.00    +0.000 N 
ATOM     22  H   UNL     1       1.720   8.694  16.944  0.00  0.00    +0.000 HD
ATOM     23  H   UNL     1       0.260  10.334  16.922  0.00  0.00    +0.000 HD
BRANCH  21  24
ATOM     24  C   UNL     1      -1.013  11.028  18.419  0.00  0.00    +0.000 A 
ATOM     25  C   UNL     1      -1.026  11.599  19.706  0.00  0.00    +0.000 A 
ATOM     26  C   UNL     1      -2.141  12.266  20.219  0.00  0.00    +0.000 A 
ATOM     27  C   UNL     1      -3.300  12.406  19.464  0.00  0.00    +0.000 A 
ATOM     28  C   UNL     1      -3.279  11.875  18.174  0.00  0.00    +0.000 A 
ATOM     29  N   UNL     1      -4.242  11.858  17.199  0.00  0.00    +0.000 N 
ATOM     30  N   UNL     1      -3.861  11.252  16.062  0.00  0.00    +0.000 NA
ATOM     31  C   UNL     1      -2.613  10.856  16.330  0.00  0.00    +0.000 A 
ATOM     32  C   UNL     1      -2.178  11.209  17.632  0.00  0.00    +0.000 A 
ATOM     33  H   UNL     1      -5.179  12.243  17.253  0.00  0.00    +0.000 HD
ENDBRANCH  21  24
ENDBRANCH   1  18
TORSDOF 7
ENDMDL
MODEL 7
REMARK VINA RESULT:      -8.3      1.649      2.117
REMARK  Name = 
REMARK  10 active torsions:
REMARK  status: ('A' for Active; 'I' for Inactive)
REMARK    1  A    between atoms: C_1  and  C_2
REMARK    2  A    between atoms: C_2  and  C_3
REMARK    3  A    between atoms: C_2  and  C_4
REMARK    4  A    between atoms: C_2  and  C_5
REMARK    5  A    between atoms: C_5  and  O_6
REMARK    6  A    between atoms: O_6  and  C_7
REMARK    7  A    between atoms: C_9  and  C_10
REMARK    8  A    between atoms: C_16  and  C_17
REMARK    9  A    between atoms: C_17  and  N_18
REMARK   10  A    between atoms: N_21  and  C_22
REMARK                            x       y       z     vdW  Elec       q    Type
REMARK                         _______ _______ _______ _____ _____    ______ ____
ROOT
ATOM      1  C   UNL     1       2.300   6.746  18.041  0.00  0.00    +0.000 C 
ENDROOT
BRANCH   1   7
ATOM      2  C   UNL     1       4.197   5.635  19.267  0.00  0.00    +0.000 A 
ATOM      3  N   UNL     1       5.496   5.350  19.503  0.00  0.00    +0.000 NA
ATOM      4  C   UNL     1       6.439   5.878  18.678  0.00  0.00    +0.000 A 
ATOM      5  C   UNL     1       6.091   6.700  17.609  0.00  0.00    +0.000 A 
ATOM      6  C   UNL     1       4.744   6.977  17.374  0.00  0.00    +0.000 A 
ATOM      7  C   UNL     1       3.758   6.421  18.197  0.00  0.00    +0.000 A 
BRANCH   4   8
ATOM      8  C   UNL     1       7.903   5.579  18.957  0.00  0.00    +0.000 C 
ATOM      9  F   UNL     1       8.168   5.232  20.249  0.00  0.00    +0.000 F 
ATOM     10  F   UNL     1       8.381   4.554  18.192  0.00  0.00    +0.000 F 
ATOM     11  F   UNL     1       8.713   6.645  18.687  0.00  0.00    +0.000 F 
ENDBRANCH   4   8
BRANCH   2  12
ATOM     12  O   UNL     1       3.257   5.141  20.155  0.00  0.00    +0.000 OA
BRANCH  12  13
ATOM     13  C   UNL     1       3.196   3.706  20.165  0.00  0.00    +0.000 C 
BRANCH  13  15
ATOM     14  C   UNL     1       1.607   2.466  21.694  0.00  0.00    +0.000 C 
ATOM     15  C   UNL     1       1.745   3.200  20.351  0.00  0.00    +0.000 C 
ATOM     16  C   UNL     1       1.357   2.246  19.211  0.00  0.00    +0.000 C 
ATOM     17  C   UNL     1       0.791   4.409  20.338  0.00  0.00    +0.000 C 
ENDBRANCH  13  15
ENDBRANCH  12  13
ENDBRANCH   2  12
ENDBRANCH   1   7
BRANCH   1  18
ATOM     18  N   UNL     1       1.766   7.748  18.959  0.00  0.00    +0.000 N 
ATOM     19  C   UNL     1       1.619   9.018  18.428  0.00  0.00    +0.000 C 
ATOM     20  O   UNL     1       1.800   9.215  17.232  0.00  0.00    +0.000 OA
ATOM     21  N   UNL     1       1.270   9.971  19.361  0.00  0.00    +0.000 N 
ATOM     22  H   UNL     1       2.064   7.693  19.919  0.00  0.00    +0.000 HD
ATOM     23  H   UNL     1       1.265   9.696  20.330  0.00  0.00    +0.000 HD
BRANCH  21  24
ATOM     24  C   UNL     1       1.061  11.351  19.080  0.00  0.00    +0.000 A 
ATOM     25  C   UNL     1       2.093  12.201  18.637  0.00  0.00    +0.000 A 
ATOM     26  C   UNL     1       1.898  13.567  18.423  0.00  0.00    +0.000 A 
ATOM     27  C   UNL     1       0.654  14.154  18.630  0.00  0.00    +0.000 A 
ATOM     28  C   UNL     1      -0.381  13.308  19.033  0.00  0.00    +0.000 A 
ATOM     29  N   UNL     1      -1.697  13.575  19.306  0.00  0.00    +0.000 N 
ATOM     30  N   UNL     1      -2.411  12.497  19.669  0.00  0.00    +0.000 NA
ATOM     31  C   UNL     1      -1.511  11.509  19.637  0.00  0.00    +0.000 A 
ATOM     32  C   UNL     1      -0.218  11.939  19.249  0.00  0.00    +0.000 A 
ATOM     33  H   UNL     1      -2.164  14.475  19.265  0.00  0.00    +0.000 HD
ENDBRANCH  21  24
ENDBRANCH   1  18
TORSDOF 7
ENDMDL
MODEL 8
REMARK VINA RESULT:      -8.3      5.452     10.160
REMARK  Name = 
REMARK  10 active torsions:
REMARK  status: ('A' for Active; 'I' for Inactive)
REMARK    1  A    between atoms: C_1  and  C_2
REMARK    2  A    between atoms: C_2  and  C_3
REMARK    3  A    between atoms: C_2  and  C_4
REMARK    4  A    between atoms: C_2  and  C_5
REMARK    5  A    between atoms: C_5  and  O_6
REMARK    6  A    between atoms: O_6  and  C_7
REMARK    7  A    between atoms: C_9  and  C_10
REMARK    8  A    between atoms: C_16  and  C_17
REMARK    9  A    between atoms: C_17  and  N_18
REMARK   10  A    between atoms: N_21  and  C_22
REMARK                            x       y       z     vdW  Elec       q    Type
REMARK                         _______ _______ _______ _____ _____    ______ ____
ROOT
ATOM      1  C   UNL     1       1.289   9.388  20.586  0.00  0.00    +0.000 C 
ENDROOT
BRANCH   1   7
ATOM      2  C   UNL     1      -0.365  11.279  20.723  0.00  0.00    +0.000 A 
ATOM      3  N   UNL     1      -1.309  12.033  21.329  0.00  0.00    +0.000 NA
ATOM      4  C   UNL     1      -1.717  11.686  22.578  0.00  0.00    +0.000 A 
ATOM      5  C   UNL     1      -1.182  10.581  23.237  0.00  0.00    +0.000 A 
ATOM      6  C   UNL     1      -0.216   9.808  22.593  0.00  0.00    +0.000 A 
ATOM      7  C   UNL     1       0.198  10.135  21.297  0.00  0.00    +0.000 A 
BRANCH   4   8
ATOM      8  C   UNL     1      -2.761  12.547  23.272  0.00  0.00    +0.000 C 
ATOM      9  F   UNL     1      -2.245  13.605  23.962  0.00  0.00    +0.000 F 
ATOM     10  F   UNL     1      -3.663  13.079  22.397  0.00  0.00    +0.000 F 
ATOM     11  F   UNL     1      -3.501  11.841  24.176  0.00  0.00    +0.000 F 
ENDBRANCH   4   8
BRANCH   2  12
ATOM     12  O   UNL     1       0.083  11.684  19.479  0.00  0.00    +0.000 OA
BRANCH  12  13
ATOM     13  C   UNL     1       0.270  13.106  19.386  0.00  0.00    +0.000 C 
BRANCH  13  15
ATOM     14  C   UNL     1       2.442  12.477  18.250  0.00  0.00    +0.000 C 
ATOM     15  C   UNL     1       1.764  13.471  19.207  0.00  0.00    +0.000 C 
ATOM     16  C   UNL     1       2.491  13.446  20.560  0.00  0.00    +0.000 C 
ATOM     17  C   UNL     1       1.862  14.888  18.613  0.00  0.00    +0.000 C 
ENDBRANCH  13  15
ENDBRANCH  12  13
ENDBRANCH   2  12
ENDBRANCH   1   7
BRANCH   1  18
ATOM     18  N   UNL     1       1.637   8.083  21.140  0.00  0.00    +0.000 N 
ATOM     19  C   UNL     1       1.966   7.113  20.209  0.00  0.00    +0.000 C 
ATOM     20  O   UNL     1       2.084   7.406  19.025  0.00  0.00    +0.000 OA
ATOM     21  N   UNL     1       2.128   5.856  20.751  0.00  0.00    +0.000 N 
ATOM     22  H   UNL     1       1.116   7.775  21.946  0.00  0.00    +0.000 HD
ATOM     23  H   UNL     1       1.890   5.732  21.722  0.00  0.00    +0.000 HD
BRANCH  21  24
ATOM     24  C   UNL     1       2.463   4.685  20.014  0.00  0.00    +0.000 A 
ATOM     25  C   UNL     1       1.531   3.663  19.747  0.00  0.00    +0.000 A 
ATOM     26  C   UNL     1       1.880   2.488  19.078  0.00  0.00    +0.000 A 
ATOM     27  C   UNL     1       3.180   2.279  18.629  0.00  0.00    +0.000 A 
ATOM     28  C   UNL     1       4.097   3.305  18.858  0.00  0.00    +0.000 A 
ATOM     29  N   UNL     1       5.426   3.403  18.537  0.00  0.00    +0.000 N 
ATOM     30  N   UNL     1       5.998   4.558  18.918  0.00  0.00    +0.000 NA
ATOM     31  C   UNL     1       4.998   5.212  19.515  0.00  0.00    +0.000 A 
ATOM     32  C   UNL     1       3.777   4.493  19.519  0.00  0.00    +0.000 A 
ATOM     33  H   UNL     1       5.996   2.713  18.061  0.00  0.00    +0.000 HD
ENDBRANCH  21  24
ENDBRANCH   1  18
TORSDOF 7
ENDMDL
MODEL 9
REMARK VINA RESULT:      -8.3      1.335      2.307
REMARK  Name = 
REMARK  10 active torsions:
REMARK  status: ('A' for Active; 'I' for Inactive)
REMARK    1  A    between atoms: C_1  and  C_2
REMARK    2  A    between atoms: C_2  and  C_3
REMARK    3  A    between atoms: C_2  and  C_4
REMARK    4  A    between atoms: C_2  and  C_5
REMARK    5  A    between atoms: C_5  and  O_6
REMARK    6  A    between atoms: O_6  and  C_7
REMARK    7  A    between atoms: C_9  and  C_10
REMARK    8  A    between atoms: C_16  and  C_17
REMARK    9  A    between atoms: C_17  and  N_18
REMARK   10  A    between atoms: N_21  and  C_22
REMARK                            x       y       z     vdW  Elec       q    Type
REMARK                         _______ _______ _______ _____ _____    ______ ____
ROOT
ATOM      1  C   UNL     1       2.534   7.292  18.481  0.00  0.00    +0.000 C 
ENDROOT
BRANCH   1   7
ATOM      2  C   UNL     1       3.599   5.223  17.524  0.00  0.00    +0.000 A 
ATOM      3  N   UNL     1       4.556   4.540  16.858  0.00  0.00    +0.000 NA
ATOM      4  C   UNL     1       5.597   5.230  16.324  0.00  0.00    +0.000 A 
ATOM      5  C   UNL     1       5.695   6.614  16.454  0.00  0.00    +0.000 A 
ATOM      6  C   UNL     1       4.693   7.305  17.137  0.00  0.00    +0.000 A 
ATOM      7  C   UNL     1       3.600   6.613  17.670  0.00  0.00    +0.000 A 
BRANCH   4   8
ATOM      8  C   UNL     1       6.688   4.461  15.596  0.00  0.00    +0.000 C 
ATOM      9  F   UNL     1       7.224   5.122  14.530  0.00  0.00    +0.000 F 
ATOM     10  F   UNL     1       7.740   4.153  16.409  0.00  0.00    +0.000 F 
ATOM     11  F   UNL     1       6.243   3.267  15.105  0.00  0.00    +0.000 F 
ENDBRANCH   4   8
BRANCH   2  12
ATOM     12  O   UNL     1       2.580   4.496  18.114  0.00  0.00    +0.000 OA
BRANCH  12  13
ATOM     13  C   UNL     1       3.023   3.726  19.244  0.00  0.00    +0.000 C 
BRANCH  13  15
ATOM     14  C   UNL     1       2.401   2.732  21.486  0.00  0.00    +0.000 C 
ATOM     15  C   UNL     1       1.890   3.540  20.283  0.00  0.00    +0.000 C 
ATOM     16  C   UNL     1       0.696   2.807  19.652  0.00  0.00    +0.000 C 
ATOM     17  C   UNL     1       1.427   4.926  20.768  0.00  0.00    +0.000 C 
ENDBRANCH  13  15
ENDBRANCH  12  13
ENDBRANCH   2  12
ENDBRANCH   1   7
BRANCH   1  18
ATOM     18  N   UNL     1       2.112   8.608  18.010  0.00  0.00    +0.000 N 
ATOM     19  C   UNL     1       1.297   9.314  18.877  0.00  0.00    +0.000 C 
ATOM     20  O   UNL     1       1.084   8.894  20.009  0.00  0.00    +0.000 OA
ATOM     21  N   UNL     1       0.786  10.475  18.337  0.00  0.00    +0.000 N 
ATOM     22  H   UNL     1       1.909   8.697  17.028  0.00  0.00    +0.000 HD
ATOM     23  H   UNL     1       0.949  10.645  17.357  0.00  0.00    +0.000 HD
BRANCH  21  24
ATOM     24  C   UNL     1      -0.079  11.380  19.014  0.00  0.00    +0.000 A 
ATOM     25  C   UNL     1      -1.468  11.421  18.782  0.00  0.00    +0.000 A 
ATOM     26  C   UNL     1      -2.304  12.351  19.402  0.00  0.00    +0.000 A 
ATOM     27  C   UNL     1      -1.795  13.286  20.297  0.00  0.00    +0.000 A 
ATOM     28  C   UNL     1      -0.426  13.225  20.559  0.00  0.00    +0.000 A 
ATOM     29  N   UNL     1       0.361  13.987  21.383  0.00  0.00    +0.000 N 
ATOM     30  N   UNL     1       1.657  13.633  21.385  0.00  0.00    +0.000 NA
ATOM     31  C   UNL     1       1.698  12.616  20.519  0.00  0.00    +0.000 A 
ATOM     32  C   UNL     1       0.434  12.302  19.959  0.00  0.00    +0.000 A 
ATOM     33  H   UNL     1       0.070  14.764  21.966  0.00  0.00    +0.000 HD
ENDBRANCH  21  24
ENDBRANCH   1  18
TORSDOF 7
ENDMDL
