MODEL 1
REMARK VINA RESULT:      -7.7      0.000      0.000
REMARK  Name = 
REMARK  7 active torsions:
REMARK  status: ('A' for Active; 'I' for Inactive)
REMARK    1  A    between atoms: C_1  and  C_2
REMARK    2  A    between atoms: N_4  and  C_5
REMARK    3  A    between atoms: C_11  and  N_12
REMARK    4  A    between atoms: C_17  and  C_18
REMARK    5  A    between atoms: N_19  and  N_20
REMARK    6  A    between atoms: C_21  and  C_23
REMARK    7  A    between atoms: C_28  and  O_29
REMARK                            x       y       z     vdW  Elec       q    Type
REMARK                         _______ _______ _______ _____ _____    ______ ____
ROOT
ATOM      1  C   UNL     1       6.978   5.075  14.811  0.00  0.00    +0.000 C 
ATOM      2  C   UNL     1       5.985   5.138  15.922  0.00  0.00    +0.000 A 
ATOM      3  N   UNL     1       5.295   4.045  16.273  0.00  0.00    +0.000 NA
ATOM      4  N   UNL     1       4.399   4.484  17.196  0.00  0.00    +0.000 N 
ATOM      5  C   UNL     1       4.636   5.826  17.555  0.00  0.00    +0.000 A 
ATOM      6  C   UNL     1       5.677   6.257  16.742  0.00  0.00    +0.000 A 
ENDROOT
BRANCH   4   7
ATOM      7  C   UNL     1       3.385   3.611  17.699  0.00  0.00    +0.000 A 
ATOM      8  C   UNL     1       3.726   2.526  18.514  0.00  0.00    +0.000 A 
ATOM      9  C   UNL     1       2.714   1.794  19.148  0.00  0.00    +0.000 A 
ATOM     10  C   UNL     1       1.370   2.123  18.953  0.00  0.00    +0.000 A 
ATOM     11  C   UNL     1       1.027   3.158  18.090  0.00  0.00    +0.000 A 
ATOM     12  C   UNL     1       2.032   3.883  17.450  0.00  0.00    +0.000 A 
ENDBRANCH   4   7
BRANCH   5  13
ATOM     13  N   UNL     1       3.952   6.440  18.575  0.00  0.00    +0.000 N 
ATOM     14  C   UNL     1       3.709   5.831  19.876  0.00  0.00    +0.000 C 
ATOM     15  C   UNL     1       2.216   6.047  20.090  0.00  0.00    +0.000 C 
ATOM     16  C   UNL     1       1.995   7.423  19.483  0.00  0.00    +0.000 C 
ATOM     17  C   UNL     1       2.897   7.417  18.252  0.00  0.00    +0.000 C 
ENDBRANCH   5  13
BRANCH   6  18
ATOM     18  C   UNL     1       6.332   7.544  16.800  0.00  0.00    +0.000 C 
ATOM     19  N   UNL     1       7.533   7.658  17.266  0.00  0.00    +0.000 NA
BRANCH  19  20
ATOM     20  N   UNL     1       8.034   8.932  17.282  0.00  0.00    +0.000 N 
ATOM     21  C   UNL     1       8.708   9.408  18.388  0.00  0.00    +0.000 C 
ATOM     22  O   UNL     1       8.916   8.747  19.408  0.00  0.00    +0.000 OA
ATOM     23  H   UNL     1       7.905   9.552  16.482  0.00  0.00    +0.000 HD
BRANCH  21  24
ATOM     24  C   UNL     1       9.205  10.821  18.316  0.00  0.00    +0.000 A 
ATOM     25  C   UNL     1      10.424  11.099  18.959  0.00  0.00    +0.000 A 
ATOM     26  C   UNL     1      10.966  12.386  18.954  0.00  0.00    +0.000 A 
ATOM     27  C   UNL     1      10.295  13.417  18.301  0.00  0.00    +0.000 A 
ATOM     28  C   UNL     1       9.087  13.162  17.654  0.00  0.00    +0.000 A 
ATOM     29  C   UNL     1       8.540  11.872  17.666  0.00  0.00    +0.000 A 
BRANCH  29  30
ATOM     30  O   UNL     1       7.339  11.665  17.030  0.00  0.00    +0.000 OA
ATOM     31  H   UNL     1       7.110  12.477  16.543  0.00  0.00    +0.000 HD
ENDBRANCH  29  30
ENDBRANCH  21  24
ENDBRANCH  19  20
ENDBRANCH   6  18
TORSDOF 6
ENDMDL
MODEL 2
REMARK VINA RESULT:      -7.5      0.827      1.289
REMARK  Name = 
REMARK  7 active torsions:
REMARK  status: ('A' for Active; 'I' for Inactive)
REMARK    1  A    between atoms: C_1  and  C_2
REMARK    2  A    between atoms: N_4  and  C_5
REMARK    3  A    between atoms: C_11  and  N_12
REMARK    4  A    between atoms: C_17  and  C_18
REMARK    5  A    between atoms: N_19  and  N_20
REMARK    6  A    between atoms: C_21  and  C_23
REMARK    7  A    between atoms: C_28  and  O_29
REMARK                            x       y       z     vdW  Elec       q    Type
REMARK                         _______ _______ _______ _____ _____    ______ ____
ROOT
ATOM      1  C   UNL     1       7.236   4.993  15.068  0.00  0.00    +0.000 C 
ATOM      2  C   UNL     1       6.189   5.069  16.126  0.00  0.00    +0.000 A 
ATOM      3  N   UNL     1       5.563   3.957  16.538  0.00  0.00    +0.000 NA
ATOM      4  N   UNL     1       4.595   4.399  17.382  0.00  0.00    +0.000 N 
ATOM      5  C   UNL     1       4.716   5.780  17.639  0.00  0.00    +0.000 A 
ATOM      6  C   UNL     1       5.761   6.223  16.838  0.00  0.00    +0.000 A 
ENDROOT
BRANCH   4   7
ATOM      7  C   UNL     1       3.623   3.494  17.913  0.00  0.00    +0.000 A 
ATOM      8  C   UNL     1       3.974   2.591  18.922  0.00  0.00    +0.000 A 
ATOM      9  C   UNL     1       2.974   1.844  19.558  0.00  0.00    +0.000 A 
ATOM     10  C   UNL     1       1.637   1.976  19.176  0.00  0.00    +0.000 A 
ATOM     11  C   UNL     1       1.295   2.823  18.128  0.00  0.00    +0.000 A 
ATOM     12  C   UNL     1       2.289   3.561  17.485  0.00  0.00    +0.000 A 
ENDBRANCH   4   7
BRANCH   5  13
ATOM     13  N   UNL     1       3.941   6.419  18.575  0.00  0.00    +0.000 N 
ATOM     14  C   UNL     1       3.665   5.889  19.903  0.00  0.00    +0.000 C 
ATOM     15  C   UNL     1       2.152   6.023  20.026  0.00  0.00    +0.000 C 
ATOM     16  C   UNL     1       1.882   7.335  19.308  0.00  0.00    +0.000 C 
ATOM     17  C   UNL     1       2.848   7.300  18.128  0.00  0.00    +0.000 C 
ENDBRANCH   5  13
BRANCH   6  18
ATOM     18  C   UNL     1       6.319   7.556  16.817  0.00  0.00    +0.000 C 
ATOM     19  N   UNL     1       7.411   7.830  17.453  0.00  0.00    +0.000 NA
BRANCH  19  20
ATOM     20  N   UNL     1       7.825   9.133  17.367  0.00  0.00    +0.000 N 
ATOM     21  C   UNL     1       8.655   9.670  18.330  0.00  0.00    +0.000 C 
ATOM     22  O   UNL     1       9.085   9.043  19.301  0.00  0.00    +0.000 OA
ATOM     23  H   UNL     1       7.515   9.727  16.599  0.00  0.00    +0.000 HD
BRANCH  21  24
ATOM     24  C   UNL     1       9.040  11.109  18.157  0.00  0.00    +0.000 A 
ATOM     25  C   UNL     1       8.082  11.955  17.570  0.00  0.00    +0.000 A 
ATOM     26  C   UNL     1       8.348  13.310  17.360  0.00  0.00    +0.000 A 
ATOM     27  C   UNL     1       9.578  13.841  17.739  0.00  0.00    +0.000 A 
ATOM     28  C   UNL     1      10.540  13.020  18.325  0.00  0.00    +0.000 A 
ATOM     29  C   UNL     1      10.276  11.659  18.529  0.00  0.00    +0.000 A 
BRANCH  29  30
ATOM     30  O   UNL     1      11.255  10.880  19.096  0.00  0.00    +0.000 OA
ATOM     31  H   UNL     1      11.977  10.781  18.447  0.00  0.00    +0.000 HD
ENDBRANCH  29  30
ENDBRANCH  21  24
ENDBRANCH  19  20
ENDBRANCH   6  18
TORSDOF 6
ENDMDL
MODEL 3
REMARK VINA RESULT:      -7.2      1.432      1.938
REMARK  Name = 
REMARK  7 active torsions:
REMARK  status: ('A' for Active; 'I' for Inactive)
REMARK    1  A    between atoms: C_1  and  C_2
REMARK    2  A    between atoms: N_4  and  C_5
REMARK    3  A    between atoms: C_11  and  N_12
REMARK    4  A    between atoms: C_17  and  C_18
REMARK    5  A    between atoms: N_19  and  N_20
REMARK    6  A    between atoms: C_21  and  C_23
REMARK    7  A    between atoms: C_28  and  O_29
REMARK                            x       y       z     vdW  Elec       q    Type
REMARK                         _______ _______ _______ _____ _____    ______ ____
ROOT
ATOM      1  C   UNL     1       7.817   4.667  17.871  0.00  0.00    +0.000 C 
ATOM      2  C   UNL     1       6.370   4.916  18.133  0.00  0.00    +0.000 A 
ATOM      3  N   UNL     1       5.586   3.928  18.586  0.00  0.00    +0.000 NA
ATOM      4  N   UNL     1       4.332   4.450  18.575  0.00  0.00    +0.000 N 
ATOM      5  C   UNL     1       4.343   5.827  18.276  0.00  0.00    +0.000 A 
ATOM      6  C   UNL     1       5.668   6.145  18.002  0.00  0.00    +0.000 A 
ENDROOT
BRANCH   4   7
ATOM      7  C   UNL     1       3.199   3.629  18.865  0.00  0.00    +0.000 A 
ATOM      8  C   UNL     1       2.926   3.235  20.180  0.00  0.00    +0.000 A 
ATOM      9  C   UNL     1       1.718   2.590  20.471  0.00  0.00    +0.000 A 
ATOM     10  C   UNL     1       0.797   2.315  19.458  0.00  0.00    +0.000 A 
ATOM     11  C   UNL     1       1.095   2.645  18.140  0.00  0.00    +0.000 A 
ATOM     12  C   UNL     1       2.301   3.278  17.844  0.00  0.00    +0.000 A 
ENDBRANCH   4   7
BRANCH   5  13
ATOM     13  N   UNL     1       3.211   6.600  18.353  0.00  0.00    +0.000 N 
ATOM     14  C   UNL     1       2.817   7.573  17.343  0.00  0.00    +0.000 C 
ATOM     15  C   UNL     1       2.513   8.822  18.160  0.00  0.00    +0.000 C 
ATOM     16  C   UNL     1       1.873   8.245  19.413  0.00  0.00    +0.000 C 
ATOM     17  C   UNL     1       2.685   6.981  19.676  0.00  0.00    +0.000 C 
ENDBRANCH   5  13
BRANCH   6  18
ATOM     18  C   UNL     1       6.194   7.462  17.726  0.00  0.00    +0.000 C 
ATOM     19  N   UNL     1       7.466   7.692  17.767  0.00  0.00    +0.000 NA
BRANCH  19  20
ATOM     20  N   UNL     1       7.834   8.984  17.502  0.00  0.00    +0.000 N 
ATOM     21  C   UNL     1       8.653   9.673  18.373  0.00  0.00    +0.000 C 
ATOM     22  O   UNL     1       9.111   9.197  19.414  0.00  0.00    +0.000 OA
ATOM     23  H   UNL     1       7.497   9.460  16.665  0.00  0.00    +0.000 HD
BRANCH  21  24
ATOM     24  C   UNL     1       8.986  11.088  18.004  0.00  0.00    +0.000 A 
ATOM     25  C   UNL     1       7.927  11.888  17.538  0.00  0.00    +0.000 A 
ATOM     26  C   UNL     1       8.139  13.217  17.163  0.00  0.00    +0.000 A 
ATOM     27  C   UNL     1       9.414  13.767  17.251  0.00  0.00    +0.000 A 
ATOM     28  C   UNL     1      10.477  12.992  17.713  0.00  0.00    +0.000 A 
ATOM     29  C   UNL     1      10.266  11.656  18.083  0.00  0.00    +0.000 A 
BRANCH  29  30
ATOM     30  O   UNL     1      11.342  10.921  18.518  0.00  0.00    +0.000 OA
ATOM     31  H   UNL     1      12.150  11.306  18.130  0.00  0.00    +0.000 HD
ENDBRANCH  29  30
ENDBRANCH  21  24
ENDBRANCH  19  20
ENDBRANCH   6  18
TORSDOF 6
ENDMDL
MODEL 4
REMARK VINA RESULT:      -7.1      5.435      9.730
REMARK  Name = 
REMARK  7 active torsions:
REMARK  status: ('A' for Active; 'I' for Inactive)
REMARK    1  A    between atoms: C_1  and  C_2
REMARK    2  A    between atoms: N_4  and  C_5
REMARK    3  A    between atoms: C_11  and  N_12
REMARK    4  A    between atoms: C_17  and  C_18
REMARK    5  A    between atoms: N_19  and  N_20
REMARK    6  A    between atoms: C_21  and  C_23
REMARK    7  A    between atoms: C_28  and  O_29
REMARK                            x       y       z     vdW  Elec       q    Type
REMARK                         _______ _______ _______ _____ _____    ______ ____
ROOT
ATOM      1  C   UNL     1       0.226   9.302  24.066  0.00  0.00    +0.000 C 
ATOM      2  C   UNL     1      -0.130  10.022  22.811  0.00  0.00    +0.000 A 
ATOM      3  N   UNL     1      -0.550  11.294  22.857  0.00  0.00    +0.000 NA
ATOM      4  N   UNL     1      -0.916  11.583  21.582  0.00  0.00    +0.000 N 
ATOM      5  C   UNL     1      -0.569  10.547  20.691  0.00  0.00    +0.000 A 
ATOM      6  C   UNL     1      -0.042   9.532  21.479  0.00  0.00    +0.000 A 
ENDROOT
BRANCH   4   7
ATOM      7  C   UNL     1      -1.554  12.824  21.271  0.00  0.00    +0.000 A 
ATOM      8  C   UNL     1      -2.944  12.888  21.121  0.00  0.00    +0.000 A 
ATOM      9  C   UNL     1      -3.569  14.136  21.002  0.00  0.00    +0.000 A 
ATOM     10  C   UNL     1      -2.815  15.312  21.007  0.00  0.00    +0.000 A 
ATOM     11  C   UNL     1      -1.428  15.247  21.087  0.00  0.00    +0.000 A 
ATOM     12  C   UNL     1      -0.802  14.006  21.196  0.00  0.00    +0.000 A 
ENDBRANCH   4   7
BRANCH   5  13
ATOM     13  N   UNL     1      -0.706  10.678  19.331  0.00  0.00    +0.000 N 
ATOM     14  C   UNL     1      -0.016  11.683  18.535  0.00  0.00    +0.000 C 
ATOM     15  C   UNL     1      -1.133  12.293  17.697  0.00  0.00    +0.000 C 
ATOM     16  C   UNL     1      -2.009  11.088  17.394  0.00  0.00    +0.000 C 
ATOM     17  C   UNL     1      -1.977  10.290  18.693  0.00  0.00    +0.000 C 
ENDBRANCH   5  13
BRANCH   6  18
ATOM     18  C   UNL     1       0.535   8.294  21.008  0.00  0.00    +0.000 C 
ATOM     19  N   UNL     1       1.796   8.209  20.734  0.00  0.00    +0.000 NA
BRANCH  19  20
ATOM     20  N   UNL     1       2.214   6.986  20.280  0.00  0.00    +0.000 N 
ATOM     21  C   UNL     1       2.521   6.799  18.948  0.00  0.00    +0.000 C 
ATOM     22  O   UNL     1       2.457   7.685  18.093  0.00  0.00    +0.000 OA
ATOM     23  H   UNL     1       2.291   6.194  20.918  0.00  0.00    +0.000 HD
BRANCH  21  24
ATOM     24  C   UNL     1       2.953   5.421  18.546  0.00  0.00    +0.000 A 
ATOM     25  C   UNL     1       2.051   4.675  17.766  0.00  0.00    +0.000 A 
ATOM     26  C   UNL     1       2.359   3.379  17.348  0.00  0.00    +0.000 A 
ATOM     27  C   UNL     1       3.579   2.809  17.702  0.00  0.00    +0.000 A 
ATOM     28  C   UNL     1       4.489   3.532  18.472  0.00  0.00    +0.000 A 
ATOM     29  C   UNL     1       4.176   4.830  18.898  0.00  0.00    +0.000 A 
BRANCH  29  30
ATOM     30  O   UNL     1       5.092   5.504  19.669  0.00  0.00    +0.000 OA
ATOM     31  H   UNL     1       5.227   6.387  19.277  0.00  0.00    +0.000 HD
ENDBRANCH  29  30
ENDBRANCH  21  24
ENDBRANCH  19  20
ENDBRANCH   6  18
TORSDOF 6
ENDMDL
MODEL 5
REMARK VINA RESULT:      -7.1      5.518      9.675
REMARK  Name = 
REMARK  7 active torsions:
REMARK  status: ('A' for Active; 'I' for Inactive)
REMARK    1  A    between atoms: C_1  and  C_2
REMARK    2  A    between atoms: N_4  and  C_5
REMARK    3  A    between atoms: C_11  and  N_12
REMARK    4  A    between atoms: C_17  and  C_18
REMARK    5  A    between atoms: N_19  and  N_20
REMARK    6  A    between atoms: C_21  and  C_23
REMARK    7  A    between atoms: C_28  and  O_29
REMARK                            x       y       z     vdW  Elec       q    Type
REMARK                         _______ _______ _______ _____ _____    ______ ____
ROOT
ATOM      1  C   UNL     1       0.259   9.168  23.947  0.00  0.00    +0.000 C 
ATOM      2  C   UNL     1      -0.065  10.053  22.792  0.00  0.00    +0.000 A 
ATOM      3  N   UNL     1      -0.443  11.321  22.997  0.00  0.00    +0.000 NA
ATOM      4  N   UNL     1      -0.792  11.781  21.768  0.00  0.00    +0.000 N 
ATOM      5  C   UNL     1      -0.472  10.855  20.754  0.00  0.00    +0.000 A 
ATOM      6  C   UNL     1       0.017   9.732  21.409  0.00  0.00    +0.000 A 
ENDROOT
BRANCH   4   7
ATOM      7  C   UNL     1      -1.388  13.072  21.615  0.00  0.00    +0.000 A 
ATOM      8  C   UNL     1      -0.590  14.220  21.577  0.00  0.00    +0.000 A 
ATOM      9  C   UNL     1      -1.168  15.452  21.242  0.00  0.00    +0.000 A 
ATOM     10  C   UNL     1      -2.535  15.545  20.972  0.00  0.00    +0.000 A 
ATOM     11  C   UNL     1      -3.342  14.417  21.076  0.00  0.00    +0.000 A 
ATOM     12  C   UNL     1      -2.772  13.191  21.418  0.00  0.00    +0.000 A 
ENDBRANCH   4   7
BRANCH   5  13
ATOM     13  N   UNL     1      -0.596  11.161  19.421  0.00  0.00    +0.000 N 
ATOM     14  C   UNL     1       0.223  12.147  18.731  0.00  0.00    +0.000 C 
ATOM     15  C   UNL     1      -0.801  12.998  17.992  0.00  0.00    +0.000 C 
ATOM     16  C   UNL     1      -1.838  11.969  17.571  0.00  0.00    +0.000 C 
ATOM     17  C   UNL     1      -1.912  11.029  18.770  0.00  0.00    +0.000 C 
ENDBRANCH   5  13
BRANCH   6  18
ATOM     18  C   UNL     1       0.557   8.545  20.787  0.00  0.00    +0.000 C 
ATOM     19  N   UNL     1       1.832   8.395  20.635  0.00  0.00    +0.000 NA
BRANCH  19  20
ATOM     20  N   UNL     1       2.213   7.234  20.016  0.00  0.00    +0.000 N 
ATOM     21  C   UNL     1       2.563   7.233  18.681  0.00  0.00    +0.000 C 
ATOM     22  O   UNL     1       2.570   8.238  17.967  0.00  0.00    +0.000 OA
ATOM     23  H   UNL     1       2.232   6.353  20.529  0.00  0.00    +0.000 HD
BRANCH  21  24
ATOM     24  C   UNL     1       2.950   5.909  18.090  0.00  0.00    +0.000 A 
ATOM     25  C   UNL     1       1.995   4.879  18.161  0.00  0.00    +0.000 A 
ATOM     26  C   UNL     1       2.264   3.609  17.645  0.00  0.00    +0.000 A 
ATOM     27  C   UNL     1       3.494   3.352  17.047  0.00  0.00    +0.000 A 
ATOM     28  C   UNL     1       4.454   4.360  16.964  0.00  0.00    +0.000 A 
ATOM     29  C   UNL     1       4.186   5.632  17.488  0.00  0.00    +0.000 A 
BRANCH  29  30
ATOM     30  O   UNL     1       5.163   6.594  17.401  0.00  0.00    +0.000 OA
ATOM     31  H   UNL     1       4.819   7.327  16.858  0.00  0.00    +0.000 HD
ENDBRANCH  29  30
ENDBRANCH  21  24
ENDBRANCH  19  20
ENDBRANCH   6  18
TORSDOF 6
ENDMDL
MODEL 6
REMARK VINA RESULT:      -7.0      5.639      9.493
REMARK  Name = 
REMARK  7 active torsions:
REMARK  status: ('A' for Active; 'I' for Inactive)
REMARK    1  A    between atoms: C_1  and  C_2
REMARK    2  A    between atoms: N_4  and  C_5
REMARK    3  A    between atoms: C_11  and  N_12
REMARK    4  A    between atoms: C_17  and  C_18
REMARK    5  A    between atoms: N_19  and  N_20
REMARK    6  A    between atoms: C_21  and  C_23
REMARK    7  A    between atoms: C_28  and  O_29
REMARK                            x       y       z     vdW  Elec       q    Type
REMARK                         _______ _______ _______ _____ _____    ______ ____
ROOT
ATOM      1  C   UNL     1       0.315   9.199  24.022  0.00  0.00    +0.000 C 
ATOM      2  C   UNL     1      -0.085  10.030  22.851  0.00  0.00    +0.000 A 
ATOM      3  N   UNL     1      -0.658  11.228  23.038  0.00  0.00    +0.000 NA
ATOM      4  N   UNL     1      -1.016  11.636  21.792  0.00  0.00    +0.000 N 
ATOM      5  C   UNL     1      -0.516  10.773  20.796  0.00  0.00    +0.000 A 
ATOM      6  C   UNL     1       0.105   9.732  21.474  0.00  0.00    +0.000 A 
ENDROOT
BRANCH   4   7
ATOM      7  C   UNL     1      -1.790  12.824  21.610  0.00  0.00    +0.000 A 
ATOM      8  C   UNL     1      -1.164  14.073  21.535  0.00  0.00    +0.000 A 
ATOM      9  C   UNL     1      -1.912  15.200  21.173  0.00  0.00    +0.000 A 
ATOM     10  C   UNL     1      -3.280  15.091  20.912  0.00  0.00    +0.000 A 
ATOM     11  C   UNL     1      -3.918  13.863  21.052  0.00  0.00    +0.000 A 
ATOM     12  C   UNL     1      -3.178  12.741  21.422  0.00  0.00    +0.000 A 
ENDBRANCH   4   7
BRANCH   5  13
ATOM     13  N   UNL     1      -0.624  11.063  19.458  0.00  0.00    +0.000 N 
ATOM     14  C   UNL     1       0.137  12.107  18.786  0.00  0.00    +0.000 C 
ATOM     15  C   UNL     1      -0.928  12.875  18.013  0.00  0.00    +0.000 C 
ATOM     16  C   UNL     1      -1.870  11.767  17.569  0.00  0.00    +0.000 C 
ATOM     17  C   UNL     1      -1.906  10.828  18.770  0.00  0.00    +0.000 C 
ENDBRANCH   5  13
BRANCH   6  18
ATOM     18  C   UNL     1       0.843   8.642  20.879  0.00  0.00    +0.000 C 
ATOM     19  N   UNL     1       1.599   8.836  19.848  0.00  0.00    +0.000 NA
BRANCH  19  20
ATOM     20  N   UNL     1       2.230   7.718  19.369  0.00  0.00    +0.000 N 
ATOM     21  C   UNL     1       2.714   7.684  18.077  0.00  0.00    +0.000 C 
ATOM     22  O   UNL     1       2.629   8.624  17.282  0.00  0.00    +0.000 OA
ATOM     23  H   UNL     1       2.341   6.892  19.956  0.00  0.00    +0.000 HD
BRANCH  21  24
ATOM     24  C   UNL     1       3.375   6.411  17.641  0.00  0.00    +0.000 A 
ATOM     25  C   UNL     1       4.512   6.535  16.822  0.00  0.00    +0.000 A 
ATOM     26  C   UNL     1       5.194   5.407  16.359  0.00  0.00    +0.000 A 
ATOM     27  C   UNL     1       4.749   4.136  16.712  0.00  0.00    +0.000 A 
ATOM     28  C   UNL     1       3.626   3.991  17.525  0.00  0.00    +0.000 A 
ATOM     29  C   UNL     1       2.938   5.123  17.984  0.00  0.00    +0.000 A 
BRANCH  29  30
ATOM     30  O   UNL     1       1.826   4.938  18.770  0.00  0.00    +0.000 OA
ATOM     31  H   UNL     1       2.112   4.938  19.703  0.00  0.00    +0.000 HD
ENDBRANCH  29  30
ENDBRANCH  21  24
ENDBRANCH  19  20
ENDBRANCH   6  18
TORSDOF 6
ENDMDL
MODEL 7
REMARK VINA RESULT:      -7.0      1.320      1.426
REMARK  Name = 
REMARK  7 active torsions:
REMARK  status: ('A' for Active; 'I' for Inactive)
REMARK    1  A    between atoms: C_1  and  C_2
REMARK    2  A    between atoms: N_4  and  C_5
REMARK    3  A    between atoms: C_11  and  N_12
REMARK    4  A    between atoms: C_17  and  C_18
REMARK    5  A    between atoms: N_19  and  N_20
REMARK    6  A    between atoms: C_21  and  C_23
REMARK    7  A    between atoms: C_28  and  O_29
REMARK                            x       y       z     vdW  Elec       q    Type
REMARK                         _______ _______ _______ _____ _____    ______ ____
ROOT
ATOM      1  C   UNL     1       7.950   4.466  17.421  0.00  0.00    +0.000 C 
ATOM      2  C   UNL     1       6.607   4.964  17.834  0.00  0.00    +0.000 A 
ATOM      3  N   UNL     1       5.706   4.122  18.359  0.00  0.00    +0.000 NA
ATOM      4  N   UNL     1       4.573   4.861  18.482  0.00  0.00    +0.000 N 
ATOM      5  C   UNL     1       4.804   6.221  18.194  0.00  0.00    +0.000 A 
ATOM      6  C   UNL     1       6.129   6.302  17.787  0.00  0.00    +0.000 A 
ENDROOT
BRANCH   4   7
ATOM      7  C   UNL     1       3.344   4.250  18.882  0.00  0.00    +0.000 A 
ATOM      8  C   UNL     1       3.063   4.044  20.238  0.00  0.00    +0.000 A 
ATOM      9  C   UNL     1       1.786   3.618  20.621  0.00  0.00    +0.000 A 
ATOM     10  C   UNL     1       0.801   3.372  19.661  0.00  0.00    +0.000 A 
ATOM     11  C   UNL     1       1.098   3.510  18.310  0.00  0.00    +0.000 A 
ATOM     12  C   UNL     1       2.372   3.926  17.924  0.00  0.00    +0.000 A 
ENDBRANCH   4   7
BRANCH   5  13
ATOM     13  N   UNL     1       3.844   7.183  18.395  0.00  0.00    +0.000 N 
ATOM     14  C   UNL     1       2.930   7.199  19.528  0.00  0.00    +0.000 C 
ATOM     15  C   UNL     1       1.568   7.402  18.877  0.00  0.00    +0.000 C 
ATOM     16  C   UNL     1       1.890   8.352  17.735  0.00  0.00    +0.000 C 
ATOM     17  C   UNL     1       3.241   7.854  17.230  0.00  0.00    +0.000 C 
ENDBRANCH   5  13
BRANCH   6  18
ATOM     18  C   UNL     1       6.855   7.510  17.467  0.00  0.00    +0.000 C 
ATOM     19  N   UNL     1       7.840   7.908  18.204  0.00  0.00    +0.000 NA
BRANCH  19  20
ATOM     20  N   UNL     1       8.434   9.076  17.803  0.00  0.00    +0.000 N 
ATOM     21  C   UNL     1       9.011   9.923  18.727  0.00  0.00    +0.000 C 
ATOM     22  O   UNL     1       9.047   9.702  19.940  0.00  0.00    +0.000 OA
ATOM     23  H   UNL     1       8.447   9.342  16.819  0.00  0.00    +0.000 HD
BRANCH  21  24
ATOM     24  C   UNL     1       9.621  11.184  18.192  0.00  0.00    +0.000 A 
ATOM     25  C   UNL     1      11.015  11.320  18.323  0.00  0.00    +0.000 A 
ATOM     26  C   UNL     1      11.675  12.461  17.862  0.00  0.00    +0.000 A 
ATOM     27  C   UNL     1      10.949  13.485  17.259  0.00  0.00    +0.000 A 
ATOM     28  C   UNL     1       9.568  13.369  17.118  0.00  0.00    +0.000 A 
ATOM     29  C   UNL     1       8.904  12.227  17.587  0.00  0.00    +0.000 A 
BRANCH  29  30
ATOM     30  O   UNL     1       7.539  12.158  17.442  0.00  0.00    +0.000 OA
ATOM     31  H   UNL     1       7.142  12.873  17.973  0.00  0.00    +0.000 HD
ENDBRANCH  29  30
ENDBRANCH  21  24
ENDBRANCH  19  20
ENDBRANCH   6  18
TORSDOF 6
ENDMDL
MODEL 8
REMARK VINA RESULT:      -7.0      0.581      1.063
REMARK  Name = 
REMARK  7 active torsions:
REMARK  status: ('A' for Active; 'I' for Inactive)
REMARK    1  A    between atoms: C_1  and  C_2
REMARK    2  A    between atoms: N_4  and  C_5
REMARK    3  A    between atoms: C_11  and  N_12
REMARK    4  A    between atoms: C_17  and  C_18
REMARK    5  A    between atoms: N_19  and  N_20
REMARK    6  A    between atoms: C_21  and  C_23
REMARK    7  A    between atoms: C_28  and  O_29
REMARK                            x       y       z     vdW  Elec       q    Type
REMARK                         _______ _______ _______ _____ _____    ______ ____
ROOT
ATOM      1  C   UNL     1       7.358   4.819  15.589  0.00  0.00    +0.000 C 
ATOM      2  C   UNL     1       6.219   5.120  16.502  0.00  0.00    +0.000 A 
ATOM      3  N   UNL     1       5.443   4.130  16.964  0.00  0.00    +0.000 NA
ATOM      4  N   UNL     1       4.442   4.759  17.633  0.00  0.00    +0.000 N 
ATOM      5  C   UNL     1       4.677   6.145  17.740  0.00  0.00    +0.000 A 
ATOM      6  C   UNL     1       5.840   6.388  17.021  0.00  0.00    +0.000 A 
ENDROOT
BRANCH   4   7
ATOM      7  C   UNL     1       3.333   4.019  18.149  0.00  0.00    +0.000 A 
ATOM      8  C   UNL     1       2.067   4.143  17.567  0.00  0.00    +0.000 A 
ATOM      9  C   UNL     1       1.038   3.278  17.961  0.00  0.00    +0.000 A 
ATOM     10  C   UNL     1       1.260   2.312  18.945  0.00  0.00    +0.000 A 
ATOM     11  C   UNL     1       2.498   2.232  19.573  0.00  0.00    +0.000 A 
ATOM     12  C   UNL     1       3.522   3.098  19.190  0.00  0.00    +0.000 A 
ENDBRANCH   4   7
BRANCH   5  13
ATOM     13  N   UNL     1       3.878   6.964  18.500  0.00  0.00    +0.000 N 
ATOM     14  C   UNL     1       3.411   6.633  19.839  0.00  0.00    +0.000 C 
ATOM     15  C   UNL     1       1.916   6.915  19.769  0.00  0.00    +0.000 C 
ATOM     16  C   UNL     1       1.858   8.145  18.877  0.00  0.00    +0.000 C 
ATOM     17  C   UNL     1       2.934   7.876  17.830  0.00  0.00    +0.000 C 
ENDBRANCH   5  13
BRANCH   6  18
ATOM     18  C   UNL     1       6.530   7.653  16.910  0.00  0.00    +0.000 C 
ATOM     19  N   UNL     1       7.641   7.861  17.538  0.00  0.00    +0.000 NA
BRANCH  19  20
ATOM     20  N   UNL     1       8.185   9.106  17.363  0.00  0.00    +0.000 N 
ATOM     21  C   UNL     1       8.857   9.729  18.395  0.00  0.00    +0.000 C 
ATOM     22  O   UNL     1       9.025   9.232  19.511  0.00  0.00    +0.000 OA
ATOM     23  H   UNL     1       8.091   9.595  16.474  0.00  0.00    +0.000 HD
BRANCH  21  24
ATOM     24  C   UNL     1       9.403  11.097  18.111  0.00  0.00    +0.000 A 
ATOM     25  C   UNL     1      10.762  11.311  18.405  0.00  0.00    +0.000 A 
ATOM     26  C   UNL     1      11.361  12.553  18.182  0.00  0.00    +0.000 A 
ATOM     27  C   UNL     1      10.609  13.601  17.659  0.00  0.00    +0.000 A 
ATOM     28  C   UNL     1       9.261  13.408  17.358  0.00  0.00    +0.000 A 
ATOM     29  C   UNL     1       8.658  12.164  17.588  0.00  0.00    +0.000 A 
BRANCH  29  30
ATOM     30  O   UNL     1       7.324  12.020  17.294  0.00  0.00    +0.000 OA
ATOM     31  H   UNL     1       7.195  12.245  16.354  0.00  0.00    +0.000 HD
ENDBRANCH  29  30
ENDBRANCH  21  24
ENDBRANCH  19  20
ENDBRANCH   6  18
TORSDOF 6
ENDMDL
MODEL 9
REMARK VINA RESULT:      -7.0      5.857      9.443
REMARK  Name = 
REMARK  7 active torsions:
REMARK  status: ('A' for Active; 'I' for Inactive)
REMARK    1  A    between atoms: C_1  and  C_2
REMARK    2  A    between atoms: N_4  and  C_5
REMARK    3  A    between atoms: C_11  and  N_12
REMARK    4  A    between atoms: C_17  and  C_18
REMARK    5  A    between atoms: N_19  and  N_20
REMARK    6  A    between atoms: C_21  and  C_23
REMARK    7  A    between atoms: C_28  and  O_29
REMARK                            x       y       z     vdW  Elec       q    Type
REMARK                         _______ _______ _______ _____ _____    ______ ____
ROOT
ATOM      1  C   UNL     1      -2.700   9.872  17.623  0.00  0.00    +0.000 C 
ATOM      2  C   UNL     1      -1.764  10.796  18.325  0.00  0.00    +0.000 A 
ATOM      3  N   UNL     1      -2.242  11.792  19.084  0.00  0.00    +0.000 NA
ATOM      4  N   UNL     1      -1.144  12.507  19.445  0.00  0.00    +0.000 N 
ATOM      5  C   UNL     1       0.048  11.865  19.056  0.00  0.00    +0.000 A 
ATOM      6  C   UNL     1      -0.344  10.741  18.339  0.00  0.00    +0.000 A 
ENDROOT
BRANCH   4   7
ATOM      7  C   UNL     1      -1.280  13.742  20.152  0.00  0.00    +0.000 A 
ATOM      8  C   UNL     1      -1.653  13.749  21.501  0.00  0.00    +0.000 A 
ATOM      9  C   UNL     1      -1.602  14.946  22.226  0.00  0.00    +0.000 A 
ATOM     10  C   UNL     1      -1.207  16.135  21.607  0.00  0.00    +0.000 A 
ATOM     11  C   UNL     1      -0.902  16.143  20.250  0.00  0.00    +0.000 A 
ATOM     12  C   UNL     1      -0.961  14.955  19.523  0.00  0.00    +0.000 A 
ENDBRANCH   4   7
BRANCH   5  13
ATOM     13  N   UNL     1       1.284  12.324  19.441  0.00  0.00    +0.000 N 
ATOM     14  C   UNL     1       1.694  12.495  20.828  0.00  0.00    +0.000 C 
ATOM     15  C   UNL     1       2.274  13.903  20.851  0.00  0.00    +0.000 C 
ATOM     16  C   UNL     1       2.965  13.994  19.500  0.00  0.00    +0.000 C 
ATOM     17  C   UNL     1       2.013  13.257  18.564  0.00  0.00    +0.000 C 
ENDBRANCH   5  13
BRANCH   6  18
ATOM     18  C   UNL     1       0.527   9.718  17.806  0.00  0.00    +0.000 C 
ATOM     19  N   UNL     1       1.580   9.338  18.454  0.00  0.00    +0.000 NA
BRANCH  19  20
ATOM     20  N   UNL     1       2.329   8.374  17.833  0.00  0.00    +0.000 N 
ATOM     21  C   UNL     1       2.674   7.216  18.500  0.00  0.00    +0.000 C 
ATOM     22  O   UNL     1       2.340   6.960  19.660  0.00  0.00    +0.000 OA
ATOM     23  H   UNL     1       2.654   8.503  16.876  0.00  0.00    +0.000 HD
BRANCH  21  24
ATOM     24  C   UNL     1       3.510   6.228  17.742  0.00  0.00    +0.000 A 
ATOM     25  C   UNL     1       4.565   6.750  16.971  0.00  0.00    +0.000 A 
ATOM     26  C   UNL     1       5.395   5.912  16.224  0.00  0.00    +0.000 A 
ATOM     27  C   UNL     1       5.185   4.536  16.240  0.00  0.00    +0.000 A 
ATOM     28  C   UNL     1       4.147   3.998  16.999  0.00  0.00    +0.000 A 
ATOM     29  C   UNL     1       3.309   4.840  17.743  0.00  0.00    +0.000 A 
BRANCH  29  30
ATOM     30  O   UNL     1       2.288   4.273  18.467  0.00  0.00    +0.000 OA
ATOM     31  H   UNL     1       2.084   4.862  19.216  0.00  0.00    +0.000 HD
ENDBRANCH  29  30
ENDBRANCH  21  24
ENDBRANCH  19  20
ENDBRANCH   6  18
TORSDOF 6
ENDMDL
