MODEL 1
REMARK VINA RESULT:      -8.6      0.000      0.000
REMARK  Name = 
REMARK  6 active torsions:
REMARK  status: ('A' for Active; 'I' for Inactive)
REMARK    1  A    between atoms: C_6  and  C_7
REMARK    2  A    between atoms: C_7  and  N_8
REMARK    3  A    between atoms: N_8  and  C_9
REMARK    4  A    between atoms: N_17  and  C_18
REMARK    5  A    between atoms: C_18  and  C_19
REMARK    6  A    between atoms: C_19  and  C_21
REMARK                            x       y       z     vdW  Elec       q    Type
REMARK                         _______ _______ _______ _____ _____    ______ ____
ROOT
ATOM      1  C   UNL     1       7.751   7.324  17.892  0.00  0.00    +0.000 A 
ATOM      2  N   UNL     1       8.270   6.905  19.069  0.00  0.00    +0.000 NA
ATOM      3  C   UNL     1       7.849   5.736  19.593  0.00  0.00    +0.000 A 
ATOM      4  N   UNL     1       6.890   4.918  19.126  0.00  0.00    +0.000 NA
ATOM      5  C   UNL     1       6.356   5.394  17.990  0.00  0.00    +0.000 A 
ATOM      6  C   UNL     1       6.725   6.551  17.324  0.00  0.00    +0.000 A 
ATOM      7  C   UNL     1       5.848   6.603  16.218  0.00  0.00    +0.000 A 
ATOM      8  N   UNL     1       4.983   5.586  16.180  0.00  0.00    +0.000 NA
ATOM      9  N   UNL     1       5.322   4.861  17.268  0.00  0.00    +0.000 N 
ENDROOT
BRANCH   1  10
ATOM     10  N   UNL     1       8.289   8.487  17.363  0.00  0.00    +0.000 N 
ATOM     11  H   UNL     1       9.273   8.364  17.147  0.00  0.00    +0.000 HD
BRANCH  10  12
ATOM     12  C   UNL     1       7.914   9.760  17.932  0.00  0.00    +0.000 C 
BRANCH  12  18
ATOM     13  F   UNL     1      10.358  11.803  21.618  0.00  0.00    +0.000 F 
ATOM     14  C   UNL     1      10.288  11.514  20.312  0.00  0.00    +0.000 A 
ATOM     15  C   UNL     1      11.282  11.963  19.453  0.00  0.00    +0.000 A 
ATOM     16  C   UNL     1      11.206  11.673  18.095  0.00  0.00    +0.000 A 
ATOM     17  C   UNL     1      10.127  10.933  17.604  0.00  0.00    +0.000 A 
ATOM     18  C   UNL     1       9.121  10.475  18.471  0.00  0.00    +0.000 A 
ATOM     19  C   UNL     1       9.210  10.773  19.839  0.00  0.00    +0.000 A 
ENDBRANCH  12  18
ENDBRANCH  10  12
ENDBRANCH   1  10
BRANCH   9  20
ATOM     20  C   UNL     1       4.497   3.735  17.647  0.00  0.00    +0.000 C 
BRANCH  20  21
ATOM     21  C   UNL     1       2.999   4.000  17.502  0.00  0.00    +0.000 C 
ATOM     22 CL   UNL     1       2.037   2.513  17.803  0.00  0.00    +0.000 Cl
BRANCH  21  23
ATOM     23  C   UNL     1       2.546   5.087  18.463  0.00  0.00    +0.000 A 
ATOM     24  C   UNL     1       2.558   6.433  18.064  0.00  0.00    +0.000 A 
ATOM     25  C   UNL     1       2.185   7.442  18.956  0.00  0.00    +0.000 A 
ATOM     26  C   UNL     1       1.799   7.114  20.253  0.00  0.00    +0.000 A 
ATOM     27 BR   UNL     1       1.307   8.478  21.464  0.00  0.00    +0.000 Br
ATOM     28  C   UNL     1       1.771   5.785  20.665  0.00  0.00    +0.000 A 
ATOM     29  C   UNL     1       2.138   4.777  19.773  0.00  0.00    +0.000 A 
ENDBRANCH  21  23
ENDBRANCH  20  21
ENDBRANCH   9  20
TORSDOF 6
ENDMDL
MODEL 2
REMARK VINA RESULT:      -8.5      7.071     10.129
REMARK  Name = 
REMARK  6 active torsions:
REMARK  status: ('A' for Active; 'I' for Inactive)
REMARK    1  A    between atoms: C_6  and  C_7
REMARK    2  A    between atoms: C_7  and  N_8
REMARK    3  A    between atoms: N_8  and  C_9
REMARK    4  A    between atoms: N_17  and  C_18
REMARK    5  A    between atoms: C_18  and  C_19
REMARK    6  A    between atoms: C_19  and  C_21
REMARK                            x       y       z     vdW  Elec       q    Type
REMARK                         _______ _______ _______ _____ _____    ______ ____
ROOT
ATOM      1  C   UNL     1       1.580   8.444  20.125  0.00  0.00    +0.000 A 
ATOM      2  N   UNL     1       1.626   8.890  18.849  0.00  0.00    +0.000 NA
ATOM      3  C   UNL     1       1.036  10.063  18.541  0.00  0.00    +0.000 A 
ATOM      4  N   UNL     1       0.315  10.862  19.346  0.00  0.00    +0.000 NA
ATOM      5  C   UNL     1       0.240  10.359  20.589  0.00  0.00    +0.000 A 
ATOM      6  C   UNL     1       0.834   9.195  21.048  0.00  0.00    +0.000 A 
ATOM      7  C   UNL     1       0.428   9.114  22.398  0.00  0.00    +0.000 A 
ATOM      8  N   UNL     1      -0.366  10.120  22.774  0.00  0.00    +0.000 NA
ATOM      9  N   UNL     1      -0.456  10.869  21.653  0.00  0.00    +0.000 N 
ENDROOT
BRANCH   1  10
ATOM     10  N   UNL     1       2.280   7.277  20.394  0.00  0.00    +0.000 N 
ATOM     11  H   UNL     1       2.945   7.420  21.146  0.00  0.00    +0.000 HD
BRANCH  10  12
ATOM     12  C   UNL     1       2.725   6.454  19.294  0.00  0.00    +0.000 C 
BRANCH  12  18
ATOM     13  F   UNL     1       0.932   2.704  21.835  0.00  0.00    +0.000 F 
ATOM     14  C   UNL     1       1.237   3.239  20.645  0.00  0.00    +0.000 A 
ATOM     15  C   UNL     1       1.046   2.498  19.487  0.00  0.00    +0.000 A 
ATOM     16  C   UNL     1       1.372   3.048  18.252  0.00  0.00    +0.000 A 
ATOM     17  C   UNL     1       1.890   4.343  18.186  0.00  0.00    +0.000 A 
ATOM     18  C   UNL     1       2.081   5.097  19.355  0.00  0.00    +0.000 A 
ATOM     19  C   UNL     1       1.748   4.531  20.595  0.00  0.00    +0.000 A 
ENDBRANCH  12  18
ENDBRANCH  10  12
ENDBRANCH   1  10
BRANCH   9  20
ATOM     20  C   UNL     1      -1.366  11.992  21.629  0.00  0.00    +0.000 C 
BRANCH  20  21
ATOM     21  C   UNL     1      -1.747  12.499  23.019  0.00  0.00    +0.000 C 
ATOM     22 CL   UNL     1      -0.933  14.054  23.398  0.00  0.00    +0.000 Cl
BRANCH  21  23
ATOM     23  C   UNL     1      -3.252  12.686  23.133  0.00  0.00    +0.000 A 
ATOM     24  C   UNL     1      -3.899  12.477  24.362  0.00  0.00    +0.000 A 
ATOM     25  C   UNL     1      -5.286  12.604  24.465  0.00  0.00    +0.000 A 
ATOM     26  C   UNL     1      -6.038  12.939  23.341  0.00  0.00    +0.000 A 
ATOM     27 BR   UNL     1      -7.916  13.098  23.475  0.00  0.00    +0.000 Br
ATOM     28  C   UNL     1      -5.414  13.159  22.117  0.00  0.00    +0.000 A 
ATOM     29  C   UNL     1      -4.028  13.038  22.014  0.00  0.00    +0.000 A 
ENDBRANCH  21  23
ENDBRANCH  20  21
ENDBRANCH   9  20
TORSDOF 6
ENDMDL
MODEL 3
REMARK VINA RESULT:      -8.5      4.455      6.566
REMARK  Name = 
REMARK  6 active torsions:
REMARK  status: ('A' for Active; 'I' for Inactive)
REMARK    1  A    between atoms: C_6  and  C_7
REMARK    2  A    between atoms: C_7  and  N_8
REMARK    3  A    between atoms: N_8  and  C_9
REMARK    4  A    between atoms: N_17  and  C_18
REMARK    5  A    between atoms: C_18  and  C_19
REMARK    6  A    between atoms: C_19  and  C_21
REMARK                            x       y       z     vdW  Elec       q    Type
REMARK                         _______ _______ _______ _____ _____    ______ ____
ROOT
ATOM      1  C   UNL     1       7.018   4.813  16.463  0.00  0.00    +0.000 A 
ATOM      2  N   UNL     1       7.758   5.600  17.278  0.00  0.00    +0.000 NA
ATOM      3  C   UNL     1       7.421   5.696  18.581  0.00  0.00    +0.000 A 
ATOM      4  N   UNL     1       6.364   5.148  19.204  0.00  0.00    +0.000 NA
ATOM      5  C   UNL     1       5.620   4.423  18.353  0.00  0.00    +0.000 A 
ATOM      6  C   UNL     1       5.876   4.206  17.010  0.00  0.00    +0.000 A 
ATOM      7  C   UNL     1       4.791   3.410  16.581  0.00  0.00    +0.000 A 
ATOM      8  N   UNL     1       3.909   3.151  17.549  0.00  0.00    +0.000 NA
ATOM      9  N   UNL     1       4.445   3.774  18.620  0.00  0.00    +0.000 N 
ENDROOT
BRANCH   1  10
ATOM     10  N   UNL     1       7.468   4.687  15.158  0.00  0.00    +0.000 N 
ATOM     11  H   UNL     1       8.469   4.847  15.104  0.00  0.00    +0.000 HD
BRANCH  10  12
ATOM     12  C   UNL     1       6.675   5.235  14.083  0.00  0.00    +0.000 C 
BRANCH  12  18
ATOM     13  F   UNL     1       7.766   1.738  10.871  0.00  0.00    +0.000 F 
ATOM     14  C   UNL     1       6.831   2.451  11.513  0.00  0.00    +0.000 A 
ATOM     15  C   UNL     1       5.489   2.251  11.219  0.00  0.00    +0.000 A 
ATOM     16  C   UNL     1       4.518   2.998  11.876  0.00  0.00    +0.000 A 
ATOM     17  C   UNL     1       4.900   3.947  12.827  0.00  0.00    +0.000 A 
ATOM     18  C   UNL     1       6.256   4.150  13.129  0.00  0.00    +0.000 A 
ATOM     19  C   UNL     1       7.227   3.389  12.460  0.00  0.00    +0.000 A 
ENDBRANCH  12  18
ENDBRANCH  10  12
ENDBRANCH   1  10
BRANCH   9  20
ATOM     20  C   UNL     1       3.685   3.838  19.849  0.00  0.00    +0.000 C 
BRANCH  20  21
ATOM     21  C   UNL     1       2.229   4.257  19.646  0.00  0.00    +0.000 C 
ATOM     22 CL   UNL     1       1.209   3.784  21.046  0.00  0.00    +0.000 Cl
BRANCH  21  23
ATOM     23  C   UNL     1       2.123   5.759  19.439  0.00  0.00    +0.000 A 
ATOM     24  C   UNL     1       1.728   6.592  20.498  0.00  0.00    +0.000 A 
ATOM     25  C   UNL     1       1.585   7.969  20.304  0.00  0.00    +0.000 A 
ATOM     26  C   UNL     1       1.835   8.523  19.050  0.00  0.00    +0.000 A 
ATOM     27 BR   UNL     1       1.629  10.382  18.783  0.00  0.00    +0.000 Br
ATOM     28  C   UNL     1       2.237   7.715  17.991  0.00  0.00    +0.000 A 
ATOM     29  C   UNL     1       2.384   6.341  18.185  0.00  0.00    +0.000 A 
ENDBRANCH  21  23
ENDBRANCH  20  21
ENDBRANCH   9  20
TORSDOF 6
ENDMDL
MODEL 4
REMARK VINA RESULT:      -8.4      7.078     10.141
REMARK  Name = 
REMARK  6 active torsions:
REMARK  status: ('A' for Active; 'I' for Inactive)
REMARK    1  A    between atoms: C_6  and  C_7
REMARK    2  A    between atoms: C_7  and  N_8
REMARK    3  A    between atoms: N_8  and  C_9
REMARK    4  A    between atoms: N_17  and  C_18
REMARK    5  A    between atoms: C_18  and  C_19
REMARK    6  A    between atoms: C_19  and  C_21
REMARK                            x       y       z     vdW  Elec       q    Type
REMARK                         _______ _______ _______ _____ _____    ______ ____
ROOT
ATOM      1  C   UNL     1       1.594   8.441  20.227  0.00  0.00    +0.000 A 
ATOM      2  N   UNL     1       1.598   8.844  18.936  0.00  0.00    +0.000 NA
ATOM      3  C   UNL     1       1.020  10.019  18.612  0.00  0.00    +0.000 A 
ATOM      4  N   UNL     1       0.346  10.858  19.418  0.00  0.00    +0.000 NA
ATOM      5  C   UNL     1       0.310  10.397  20.679  0.00  0.00    +0.000 A 
ATOM      6  C   UNL     1       0.899   9.236  21.152  0.00  0.00    +0.000 A 
ATOM      7  C   UNL     1       0.544   9.207  22.519  0.00  0.00    +0.000 A 
ATOM      8  N   UNL     1      -0.215  10.240  22.891  0.00  0.00    +0.000 NA
ATOM      9  N   UNL     1      -0.334  10.954  21.751  0.00  0.00    +0.000 N 
ENDROOT
BRANCH   1  10
ATOM     10  N   UNL     1       2.281   7.269  20.507  0.00  0.00    +0.000 N 
ATOM     11  H   UNL     1       2.887   7.389  21.312  0.00  0.00    +0.000 HD
BRANCH  10  12
ATOM     12  C   UNL     1       2.815   6.488  19.416  0.00  0.00    +0.000 C 
BRANCH  12  18
ATOM     13  F   UNL     1       2.165   2.107  17.386  0.00  0.00    +0.000 F 
ATOM     14  C   UNL     1       1.961   2.930  18.423  0.00  0.00    +0.000 A 
ATOM     15  C   UNL     1       1.192   2.504  19.499  0.00  0.00    +0.000 A 
ATOM     16  C   UNL     1       0.970   3.361  20.572  0.00  0.00    +0.000 A 
ATOM     17  C   UNL     1       1.520   4.645  20.559  0.00  0.00    +0.000 A 
ATOM     18  C   UNL     1       2.300   5.077  19.474  0.00  0.00    +0.000 A 
ATOM     19  C   UNL     1       2.519   4.203  18.398  0.00  0.00    +0.000 A 
ENDBRANCH  12  18
ENDBRANCH  10  12
ENDBRANCH   1  10
BRANCH   9  20
ATOM     20  C   UNL     1      -1.223  12.094  21.724  0.00  0.00    +0.000 C 
BRANCH  20  21
ATOM     21  C   UNL     1      -1.706  12.524  23.110  0.00  0.00    +0.000 C 
ATOM     22 CL   UNL     1      -0.956  14.076  23.613  0.00  0.00    +0.000 Cl
BRANCH  21  23
ATOM     23  C   UNL     1      -3.218  12.673  23.133  0.00  0.00    +0.000 A 
ATOM     24  C   UNL     1      -3.910  12.666  24.356  0.00  0.00    +0.000 A 
ATOM     25  C   UNL     1      -5.304  12.758  24.383  0.00  0.00    +0.000 A 
ATOM     26  C   UNL     1      -6.018  12.856  23.191  0.00  0.00    +0.000 A 
ATOM     27 BR   UNL     1      -7.903  12.967  23.226  0.00  0.00    +0.000 Br
ATOM     28  C   UNL     1      -5.350  12.874  21.970  0.00  0.00    +0.000 A 
ATOM     29  C   UNL     1      -3.957  12.788  21.942  0.00  0.00    +0.000 A 
ENDBRANCH  21  23
ENDBRANCH  20  21
ENDBRANCH   9  20
TORSDOF 6
ENDMDL
MODEL 5
REMARK VINA RESULT:      -8.3      5.238      7.954
REMARK  Name = 
REMARK  6 active torsions:
REMARK  status: ('A' for Active; 'I' for Inactive)
REMARK    1  A    between atoms: C_6  and  C_7
REMARK    2  A    between atoms: C_7  and  N_8
REMARK    3  A    between atoms: N_8  and  C_9
REMARK    4  A    between atoms: N_17  and  C_18
REMARK    5  A    between atoms: C_18  and  C_19
REMARK    6  A    between atoms: C_19  and  C_21
REMARK                            x       y       z     vdW  Elec       q    Type
REMARK                         _______ _______ _______ _____ _____    ______ ____
ROOT
ATOM      1  C   UNL     1       4.672   5.522  18.403  0.00  0.00    +0.000 A 
ATOM      2  N   UNL     1       5.252   5.665  17.189  0.00  0.00    +0.000 NA
ATOM      3  C   UNL     1       4.901   6.710  16.412  0.00  0.00    +0.000 A 
ATOM      4  N   UNL     1       3.961   7.640  16.653  0.00  0.00    +0.000 NA
ATOM      5  C   UNL     1       3.365   7.433  17.838  0.00  0.00    +0.000 A 
ATOM      6  C   UNL     1       3.660   6.432  18.748  0.00  0.00    +0.000 A 
ATOM      7  C   UNL     1       2.741   6.645  19.799  0.00  0.00    +0.000 A 
ATOM      8  N   UNL     1       1.919   7.676  19.583  0.00  0.00    +0.000 NA
ATOM      9  N   UNL     1       2.329   8.143  18.384  0.00  0.00    +0.000 N 
ENDROOT
BRANCH   1  10
ATOM     10  N   UNL     1       5.140   4.479  19.188  0.00  0.00    +0.000 N 
ATOM     11  H   UNL     1       6.135   4.575  19.359  0.00  0.00    +0.000 HD
BRANCH  10  12
ATOM     12  C   UNL     1       4.660   3.140  18.940  0.00  0.00    +0.000 C 
BRANCH  12  18
ATOM     13  F   UNL     1       1.099   2.611  22.222  0.00  0.00    +0.000 F 
ATOM     14  C   UNL     1       1.465   2.725  20.938  0.00  0.00    +0.000 A 
ATOM     15  C   UNL     1       0.505   2.639  19.938  0.00  0.00    +0.000 A 
ATOM     16  C   UNL     1       0.884   2.746  18.605  0.00  0.00    +0.000 A 
ATOM     17  C   UNL     1       2.230   2.938  18.281  0.00  0.00    +0.000 A 
ATOM     18  C   UNL     1       3.202   3.028  19.289  0.00  0.00    +0.000 A 
ATOM     19  C   UNL     1       2.807   2.919  20.632  0.00  0.00    +0.000 A 
ENDBRANCH  12  18
ENDBRANCH  10  12
ENDBRANCH   1  10
BRANCH   9  20
ATOM     20  C   UNL     1       1.568   9.190  17.740  0.00  0.00    +0.000 C 
BRANCH  20  21
ATOM     21  C   UNL     1       1.036  10.244  18.711  0.00  0.00    +0.000 C 
ATOM     22 CL   UNL     1       1.952  11.783  18.576  0.00  0.00    +0.000 Cl
BRANCH  21  23
ATOM     23  C   UNL     1      -0.437  10.519  18.457  0.00  0.00    +0.000 A 
ATOM     24  C   UNL     1      -1.143   9.765  17.506  0.00  0.00    +0.000 A 
ATOM     25  C   UNL     1      -2.486  10.040  17.236  0.00  0.00    +0.000 A 
ATOM     26  C   UNL     1      -3.133  11.072  17.912  0.00  0.00    +0.000 A 
ATOM     27 BR   UNL     1      -4.945  11.455  17.537  0.00  0.00    +0.000 Br
ATOM     28  C   UNL     1      -2.453  11.825  18.865  0.00  0.00    +0.000 A 
ATOM     29  C   UNL     1      -1.113  11.547  19.139  0.00  0.00    +0.000 A 
ENDBRANCH  21  23
ENDBRANCH  20  21
ENDBRANCH   9  20
TORSDOF 6
ENDMDL
MODEL 6
REMARK VINA RESULT:      -8.2      4.404      6.819
REMARK  Name = 
REMARK  6 active torsions:
REMARK  status: ('A' for Active; 'I' for Inactive)
REMARK    1  A    between atoms: C_6  and  C_7
REMARK    2  A    between atoms: C_7  and  N_8
REMARK    3  A    between atoms: N_8  and  C_9
REMARK    4  A    between atoms: N_17  and  C_18
REMARK    5  A    between atoms: C_18  and  C_19
REMARK    6  A    between atoms: C_19  and  C_21
REMARK                            x       y       z     vdW  Elec       q    Type
REMARK                         _______ _______ _______ _____ _____    ______ ____
ROOT
ATOM      1  C   UNL     1       6.929   5.100  15.906  0.00  0.00    +0.000 A 
ATOM      2  N   UNL     1       7.529   6.278  16.193  0.00  0.00    +0.000 NA
ATOM      3  C   UNL     1       7.201   6.921  17.333  0.00  0.00    +0.000 A 
ATOM      4  N   UNL     1       6.269   6.577  18.237  0.00  0.00    +0.000 NA
ATOM      5  C   UNL     1       5.653   5.436  17.890  0.00  0.00    +0.000 A 
ATOM      6  C   UNL     1       5.922   4.656  16.778  0.00  0.00    +0.000 A 
ATOM      7  C   UNL     1       4.990   3.599  16.869  0.00  0.00    +0.000 A 
ATOM      8  N   UNL     1       4.183   3.693  17.929  0.00  0.00    +0.000 NA
ATOM      9  N   UNL     1       4.616   4.819  18.538  0.00  0.00    +0.000 N 
ENDROOT
BRANCH   1  10
ATOM     10  N   UNL     1       7.373   4.447  14.766  0.00  0.00    +0.000 N 
ATOM     11  H   UNL     1       8.318   4.100  14.894  0.00  0.00    +0.000 HD
BRANCH  10  12
ATOM     12  C   UNL     1       7.067   5.003  13.470  0.00  0.00    +0.000 C 
BRANCH  12  18
ATOM     13  F   UNL     1       3.328   2.702  11.358  0.00  0.00    +0.000 F 
ATOM     14  C   UNL     1       4.650   2.798  11.554  0.00  0.00    +0.000 A 
ATOM     15  C   UNL     1       5.500   1.857  10.988  0.00  0.00    +0.000 A 
ATOM     16  C   UNL     1       6.872   1.949  11.200  0.00  0.00    +0.000 A 
ATOM     17  C   UNL     1       7.384   2.987  11.982  0.00  0.00    +0.000 A 
ATOM     18  C   UNL     1       6.527   3.941  12.553  0.00  0.00    +0.000 A 
ATOM     19  C   UNL     1       5.145   3.839  12.331  0.00  0.00    +0.000 A 
ENDBRANCH  12  18
ENDBRANCH  10  12
ENDBRANCH   1  10
BRANCH   9  20
ATOM     20  C   UNL     1       3.877   5.335  19.668  0.00  0.00    +0.000 C 
BRANCH  20  21
ATOM     21  C   UNL     1       2.387   5.531  19.386  0.00  0.00    +0.000 C 
ATOM     22 CL   UNL     1       1.373   4.798  20.673  0.00  0.00    +0.000 Cl
BRANCH  21  23
ATOM     23  C   UNL     1       2.049   7.008  19.268  0.00  0.00    +0.000 A 
ATOM     24  C   UNL     1       2.250   7.684  18.053  0.00  0.00    +0.000 A 
ATOM     25  C   UNL     1       1.982   9.052  17.949  0.00  0.00    +0.000 A 
ATOM     26  C   UNL     1       1.514   9.754  19.057  0.00  0.00    +0.000 A 
ATOM     27 BR   UNL     1       1.165  11.606  18.921  0.00  0.00    +0.000 Br
ATOM     28  C   UNL     1       1.299   9.100  20.266  0.00  0.00    +0.000 A 
ATOM     29  C   UNL     1       1.561   7.733  20.370  0.00  0.00    +0.000 A 
ENDBRANCH  21  23
ENDBRANCH  20  21
ENDBRANCH   9  20
TORSDOF 6
ENDMDL
MODEL 7
REMARK VINA RESULT:      -8.2      4.405      6.842
REMARK  Name = 
REMARK  6 active torsions:
REMARK  status: ('A' for Active; 'I' for Inactive)
REMARK    1  A    between atoms: C_6  and  C_7
REMARK    2  A    between atoms: C_7  and  N_8
REMARK    3  A    between atoms: N_8  and  C_9
REMARK    4  A    between atoms: N_17  and  C_18
REMARK    5  A    between atoms: C_18  and  C_19
REMARK    6  A    between atoms: C_19  and  C_21
REMARK                            x       y       z     vdW  Elec       q    Type
REMARK                         _______ _______ _______ _____ _____    ______ ____
ROOT
ATOM      1  C   UNL     1       6.474   5.587  15.663  0.00  0.00    +0.000 A 
ATOM      2  N   UNL     1       7.330   6.422  16.297  0.00  0.00    +0.000 NA
ATOM      3  C   UNL     1       7.319   6.474  17.644  0.00  0.00    +0.000 A 
ATOM      4  N   UNL     1       6.493   5.834  18.490  0.00  0.00    +0.000 NA
ATOM      5  C   UNL     1       5.620   5.061  17.824  0.00  0.00    +0.000 A 
ATOM      6  C   UNL     1       5.552   4.882  16.452  0.00  0.00    +0.000 A 
ATOM      7  C   UNL     1       4.459   4.006  16.277  0.00  0.00    +0.000 A 
ATOM      8  N   UNL     1       3.865   3.663  17.423  0.00  0.00    +0.000 NA
ATOM      9  N   UNL     1       4.600   4.314  18.350  0.00  0.00    +0.000 N 
ENDROOT
BRANCH   1  10
ATOM     10  N   UNL     1       6.596   5.515  14.283  0.00  0.00    +0.000 N 
ATOM     11  H   UNL     1       5.738   5.810  13.829  0.00  0.00    +0.000 HD
BRANCH  10  12
ATOM     12  C   UNL     1       7.276   4.386  13.694  0.00  0.00    +0.000 C 
BRANCH  12  18
ATOM     13  F   UNL     1       6.422   0.773  10.540  0.00  0.00    +0.000 F 
ATOM     14  C   UNL     1       5.966   1.839  11.209  0.00  0.00    +0.000 A 
ATOM     15  C   UNL     1       4.666   2.281  10.998  0.00  0.00    +0.000 A 
ATOM     16  C   UNL     1       4.194   3.394  11.684  0.00  0.00    +0.000 A 
ATOM     17  C   UNL     1       5.031   4.061  12.582  0.00  0.00    +0.000 A 
ATOM     18  C   UNL     1       6.345   3.615  12.800  0.00  0.00    +0.000 A 
ATOM     19  C   UNL     1       6.810   2.490  12.102  0.00  0.00    +0.000 A 
ENDBRANCH  12  18
ENDBRANCH  10  12
ENDBRANCH   1  10
BRANCH   9  20
ATOM     20  C   UNL     1       4.165   4.300  19.729  0.00  0.00    +0.000 C 
BRANCH  20  21
ATOM     21  C   UNL     1       2.656   4.484  19.895  0.00  0.00    +0.000 C 
ATOM     22 CL   UNL     1       2.103   3.944  21.516  0.00  0.00    +0.000 Cl
BRANCH  21  23
ATOM     23  C   UNL     1       2.263   5.938  19.696  0.00  0.00    +0.000 A 
ATOM     24  C   UNL     1       2.420   6.547  18.439  0.00  0.00    +0.000 A 
ATOM     25  C   UNL     1       2.102   7.896  18.259  0.00  0.00    +0.000 A 
ATOM     26  C   UNL     1       1.627   8.647  19.332  0.00  0.00    +0.000 A 
ATOM     27 BR   UNL     1       1.210  10.474  19.092  0.00  0.00    +0.000 Br
ATOM     28  C   UNL     1       1.456   8.060  20.582  0.00  0.00    +0.000 A 
ATOM     29  C   UNL     1       1.768   6.711  20.761  0.00  0.00    +0.000 A 
ENDBRANCH  21  23
ENDBRANCH  20  21
ENDBRANCH   9  20
TORSDOF 6
ENDMDL
MODEL 8
REMARK VINA RESULT:      -8.2      3.436      8.074
REMARK  Name = 
REMARK  6 active torsions:
REMARK  status: ('A' for Active; 'I' for Inactive)
REMARK    1  A    between atoms: C_6  and  C_7
REMARK    2  A    between atoms: C_7  and  N_8
REMARK    3  A    between atoms: N_8  and  C_9
REMARK    4  A    between atoms: N_17  and  C_18
REMARK    5  A    between atoms: C_18  and  C_19
REMARK    6  A    between atoms: C_19  and  C_21
REMARK                            x       y       z     vdW  Elec       q    Type
REMARK                         _______ _______ _______ _____ _____    ______ ____
ROOT
ATOM      1  C   UNL     1       5.256   3.881  16.831  0.00  0.00    +0.000 A 
ATOM      2  N   UNL     1       5.617   4.068  15.541  0.00  0.00    +0.000 NA
ATOM      3  C   UNL     1       6.650   4.888  15.260  0.00  0.00    +0.000 A 
ATOM      4  N   UNL     1       7.367   5.638  16.114  0.00  0.00    +0.000 NA
ATOM      5  C   UNL     1       6.943   5.473  17.378  0.00  0.00    +0.000 A 
ATOM      6  C   UNL     1       5.930   4.633  17.808  0.00  0.00    +0.000 A 
ATOM      7  C   UNL     1       5.872   4.854  19.201  0.00  0.00    +0.000 A 
ATOM      8  N   UNL     1       6.751   5.762  19.631  0.00  0.00    +0.000 NA
ATOM      9  N   UNL     1       7.397   6.116  18.498  0.00  0.00    +0.000 N 
ENDROOT
BRANCH   1  10
ATOM     10  N   UNL     1       4.246   2.959  17.059  0.00  0.00    +0.000 N 
ATOM     11  H   UNL     1       4.481   2.059  16.654  0.00  0.00    +0.000 HD
BRANCH  10  12
ATOM     12  C   UNL     1       2.869   3.376  16.935  0.00  0.00    +0.000 C 
BRANCH  12  18
ATOM     13  F   UNL     1       1.737   6.033  20.859  0.00  0.00    +0.000 F 
ATOM     14  C   UNL     1       1.724   4.847  20.237  0.00  0.00    +0.000 A 
ATOM     15  C   UNL     1       1.213   3.733  20.890  0.00  0.00    +0.000 A 
ATOM     16  C   UNL     1       1.208   2.498  20.250  0.00  0.00    +0.000 A 
ATOM     17  C   UNL     1       1.719   2.387  18.955  0.00  0.00    +0.000 A 
ATOM     18  C   UNL     1       2.234   3.512  18.291  0.00  0.00    +0.000 A 
ATOM     19  C   UNL     1       2.233   4.753  18.947  0.00  0.00    +0.000 A 
ENDBRANCH  12  18
ENDBRANCH  10  12
ENDBRANCH   1  10
BRANCH   9  20
ATOM     20  C   UNL     1       8.345   7.207  18.541  0.00  0.00    +0.000 C 
BRANCH  20  21
ATOM     21  C   UNL     1       7.949   8.395  17.665  0.00  0.00    +0.000 C 
ATOM     22 CL   UNL     1       6.164   8.559  17.547  0.00  0.00    +0.000 Cl
BRANCH  21  23
ATOM     23  C   UNL     1       8.531   9.689  18.212  0.00  0.00    +0.000 A 
ATOM     24  C   UNL     1       9.213   9.693  19.440  0.00  0.00    +0.000 A 
ATOM     25  C   UNL     1       9.713  10.885  19.970  0.00  0.00    +0.000 A 
ATOM     26  C   UNL     1       9.533  12.082  19.280  0.00  0.00    +0.000 A 
ATOM     27 BR   UNL     1      10.197  13.696  20.003  0.00  0.00    +0.000 Br
ATOM     28  C   UNL     1       8.868  12.096  18.058  0.00  0.00    +0.000 A 
ATOM     29  C   UNL     1       8.374  10.906  17.524  0.00  0.00    +0.000 A 
ENDBRANCH  21  23
ENDBRANCH  20  21
ENDBRANCH   9  20
TORSDOF 6
ENDMDL
MODEL 9
REMARK VINA RESULT:      -8.1      6.766      9.828
REMARK  Name = 
REMARK  6 active torsions:
REMARK  status: ('A' for Active; 'I' for Inactive)
REMARK    1  A    between atoms: C_6  and  C_7
REMARK    2  A    between atoms: C_7  and  N_8
REMARK    3  A    between atoms: N_8  and  C_9
REMARK    4  A    between atoms: N_17  and  C_18
REMARK    5  A    between atoms: C_18  and  C_19
REMARK    6  A    between atoms: C_19  and  C_21
REMARK                            x       y       z     vdW  Elec       q    Type
REMARK                         _______ _______ _______ _____ _____    ______ ____
ROOT
ATOM      1  C   UNL     1       1.604   8.548  20.059  0.00  0.00    +0.000 A 
ATOM      2  N   UNL     1       1.722   8.814  18.737  0.00  0.00    +0.000 NA
ATOM      3  C   UNL     1       1.340  10.021  18.274  0.00  0.00    +0.000 A 
ATOM      4  N   UNL     1       0.767  11.026  18.958  0.00  0.00    +0.000 NA
ATOM      5  C   UNL     1       0.611  10.705  20.253  0.00  0.00    +0.000 A 
ATOM      6  C   UNL     1       0.999   9.525  20.865  0.00  0.00    +0.000 A 
ATOM      7  C   UNL     1       0.589   9.686  22.206  0.00  0.00    +0.000 A 
ATOM      8  N   UNL     1      -0.021  10.851  22.438  0.00  0.00    +0.000 NA
ATOM      9  N   UNL     1       0.014  11.455  21.230  0.00  0.00    +0.000 N 
ENDROOT
BRANCH   1  10
ATOM     10  N   UNL     1       2.097   7.323  20.485  0.00  0.00    +0.000 N 
ATOM     11  H   UNL     1       2.553   7.412  21.386  0.00  0.00    +0.000 HD
BRANCH  10  12
ATOM     12  C   UNL     1       2.735   6.449  19.529  0.00  0.00    +0.000 C 
BRANCH  12  18
ATOM     13  F   UNL     1       0.913   2.584  21.869  0.00  0.00    +0.000 F 
ATOM     14  C   UNL     1       1.210   3.184  20.709  0.00  0.00    +0.000 A 
ATOM     15  C   UNL     1       0.991   2.516  19.512  0.00  0.00    +0.000 A 
ATOM     16  C   UNL     1       1.309   3.133  18.307  0.00  0.00    +0.000 A 
ATOM     17  C   UNL     1       1.849   4.421  18.310  0.00  0.00    +0.000 A 
ATOM     18  C   UNL     1       2.069   5.101  19.518  0.00  0.00    +0.000 A 
ATOM     19  C   UNL     1       1.743   4.468  20.728  0.00  0.00    +0.000 A 
ENDBRANCH  12  18
ENDBRANCH  10  12
ENDBRANCH   1  10
BRANCH   9  20
ATOM     20  C   UNL     1      -0.692  12.703  21.048  0.00  0.00    +0.000 C 
BRANCH  20  21
ATOM     21  C   UNL     1      -2.004  12.783  21.829  0.00  0.00    +0.000 C 
ATOM     22 CL   UNL     1      -2.167  14.355  22.681  0.00  0.00    +0.000 Cl
BRANCH  21  23
ATOM     23  C   UNL     1      -3.196  12.593  20.904  0.00  0.00    +0.000 A 
ATOM     24  C   UNL     1      -4.501  12.779  21.387  0.00  0.00    +0.000 A 
ATOM     25  C   UNL     1      -5.604  12.564  20.556  0.00  0.00    +0.000 A 
ATOM     26  C   UNL     1      -5.410  12.161  19.236  0.00  0.00    +0.000 A 
ATOM     27 BR   UNL     1      -6.900  11.856  18.115  0.00  0.00    +0.000 Br
ATOM     28  C   UNL     1      -4.124  11.981  18.737  0.00  0.00    +0.000 A 
ATOM     29  C   UNL     1      -3.023  12.201  19.564  0.00  0.00    +0.000 A 
ENDBRANCH  21  23
ENDBRANCH  20  21
ENDBRANCH   9  20
TORSDOF 6
ENDMDL
