MODEL 1
REMARK VINA RESULT:      -7.5      0.000      0.000
REMARK  Name = 
REMARK  7 active torsions:
REMARK  status: ('A' for Active; 'I' for Inactive)
REMARK    1  A    between atoms: C_1  and  C_2
REMARK    2  A    between atoms: N_7  and  C_8
REMARK    3  A    between atoms: C_11  and  O_12
REMARK    4  A    between atoms: O_12  and  C_13
REMARK    5  A    between atoms: C_13  and  C_14
REMARK    6  A    between atoms: C_14  and  C_15
REMARK    7  A    between atoms: C_15  and  N_16
REMARK                            x       y       z     vdW  Elec       q    Type
REMARK                         _______ _______ _______ _____ _____    ______ ____
ROOT
ATOM      1  C   UNL     1       5.556   4.982  15.692  0.00  0.00    +0.000 A 
ATOM      2  C   UNL     1       5.698   4.074  16.744  0.00  0.00    +0.000 A 
ATOM      3  C   UNL     1       5.216   4.347  18.023  0.00  0.00    +0.000 A 
ATOM      4  C   UNL     1       4.593   5.560  18.319  0.00  0.00    +0.000 A 
ATOM      5  C   UNL     1       4.495   6.513  17.306  0.00  0.00    +0.000 A 
ATOM      6  C   UNL     1       4.976   6.227  16.008  0.00  0.00    +0.000 A 
ENDROOT
BRANCH   1  13
ATOM      7  C   UNL     1       4.709   2.696  11.368  0.00  0.00    +0.000 C 
ATOM      8  C   UNL     1       5.583   3.515  12.268  0.00  0.00    +0.000 A 
ATOM      9  C   UNL     1       6.863   3.946  11.768  0.00  0.00    +0.000 A 
ATOM     10  C   UNL     1       7.668   4.690  12.531  0.00  0.00    +0.000 A 
ATOM     11  C   UNL     1       7.279   5.070  13.916  0.00  0.00    +0.000 A 
ATOM     12  O   UNL     1       8.127   5.697  14.553  0.00  0.00    +0.000 OA
ATOM     13  N   UNL     1       6.002   4.637  14.358  0.00  0.00    +0.000 N 
ATOM     14  C   UNL     1       5.207   3.862  13.509  0.00  0.00    +0.000 A 
ENDBRANCH   1  13
BRANCH   4  15
ATOM     15  O   UNL     1       4.060   5.880  19.551  0.00  0.00    +0.000 OA
BRANCH  15  16
ATOM     16  C   UNL     1       2.675   6.228  19.470  0.00  0.00    +0.000 C 
BRANCH  16  17
ATOM     17  C   UNL     1       1.776   5.553  20.503  0.00  0.00    +0.000 C 
BRANCH  17  18
ATOM     18  C   UNL     1       2.575   4.348  21.036  0.00  0.00    +0.000 C 
BRANCH  18  19
ATOM     19  N   UNL     1       2.019   3.016  20.788  0.00  0.00    +0.000 NA
ATOM     20  C   UNL     1       2.838   2.182  19.900  0.00  0.00    +0.000 C 
ATOM     21  C   UNL     1       2.299   2.402  18.502  0.00  0.00    +0.000 C 
ATOM     22  C   UNL     1       0.814   2.583  18.724  0.00  0.00    +0.000 C 
ATOM     23  C   UNL     1       0.697   3.148  20.132  0.00  0.00    +0.000 C 
ENDBRANCH  18  19
ENDBRANCH  17  18
ENDBRANCH  16  17
ENDBRANCH  15  16
ENDBRANCH   4  15
TORSDOF 6
ENDMDL
MODEL 2
REMARK VINA RESULT:      -7.4      4.645      8.366
REMARK  Name = 
REMARK  7 active torsions:
REMARK  status: ('A' for Active; 'I' for Inactive)
REMARK    1  A    between atoms: C_1  and  C_2
REMARK    2  A    between atoms: N_7  and  C_8
REMARK    3  A    between atoms: C_11  and  O_12
REMARK    4  A    between atoms: O_12  and  C_13
REMARK    5  A    between atoms: C_13  and  C_14
REMARK    6  A    between atoms: C_14  and  C_15
REMARK    7  A    between atoms: C_15  and  N_16
REMARK                            x       y       z     vdW  Elec       q    Type
REMARK                         _______ _______ _______ _____ _____    ______ ____
ROOT
ATOM      1  C   UNL     1       4.158   4.903  18.386  0.00  0.00    +0.000 A 
ATOM      2  C   UNL     1       3.909   6.009  17.572  0.00  0.00    +0.000 A 
ATOM      3  C   UNL     1       4.940   6.799  17.066  0.00  0.00    +0.000 A 
ATOM      4  C   UNL     1       6.274   6.537  17.379  0.00  0.00    +0.000 A 
ATOM      5  C   UNL     1       6.550   5.478  18.244  0.00  0.00    +0.000 A 
ATOM      6  C   UNL     1       5.503   4.674  18.745  0.00  0.00    +0.000 A 
ENDROOT
BRANCH   1  13
ATOM      7  C   UNL     1       1.632   2.821  22.118  0.00  0.00    +0.000 C 
ATOM      8  C   UNL     1       1.859   3.046  20.654  0.00  0.00    +0.000 A 
ATOM      9  C   UNL     1       0.969   2.407  19.719  0.00  0.00    +0.000 A 
ATOM     10  C   UNL     1       1.125   2.592  18.406  0.00  0.00    +0.000 A 
ATOM     11  C   UNL     1       2.229   3.436  17.875  0.00  0.00    +0.000 A 
ATOM     12  O   UNL     1       2.323   3.480  16.648  0.00  0.00    +0.000 OA
ATOM     13  N   UNL     1       3.070   4.059  18.834  0.00  0.00    +0.000 N 
ATOM     14  C   UNL     1       2.852   3.825  20.195  0.00  0.00    +0.000 A 
ENDBRANCH   1  13
BRANCH   4  15
ATOM     15  O   UNL     1       7.345   7.254  16.884  0.00  0.00    +0.000 OA
BRANCH  15  16
ATOM     16  C   UNL     1       8.075   7.921  17.917  0.00  0.00    +0.000 C 
BRANCH  16  17
ATOM     17  C   UNL     1       8.053   9.446  17.846  0.00  0.00    +0.000 C 
BRANCH  17  18
ATOM     18  C   UNL     1       9.129   9.930  18.837  0.00  0.00    +0.000 C 
BRANCH  18  19
ATOM     19  N   UNL     1       9.487  11.350  18.793  0.00  0.00    +0.000 NA
ATOM     20  C   UNL     1      10.843  11.609  18.295  0.00  0.00    +0.000 C 
ATOM     21  C   UNL     1      11.735  11.671  19.518  0.00  0.00    +0.000 C 
ATOM     22  C   UNL     1      10.846  12.302  20.567  0.00  0.00    +0.000 C 
ATOM     23  C   UNL     1       9.430  11.915  20.162  0.00  0.00    +0.000 C 
ENDBRANCH  18  19
ENDBRANCH  17  18
ENDBRANCH  16  17
ENDBRANCH  15  16
ENDBRANCH   4  15
TORSDOF 6
ENDMDL
MODEL 3
REMARK VINA RESULT:      -7.3      0.729      1.113
REMARK  Name = 
REMARK  7 active torsions:
REMARK  status: ('A' for Active; 'I' for Inactive)
REMARK    1  A    between atoms: C_1  and  C_2
REMARK    2  A    between atoms: N_7  and  C_8
REMARK    3  A    between atoms: C_11  and  O_12
REMARK    4  A    between atoms: O_12  and  C_13
REMARK    5  A    between atoms: C_13  and  C_14
REMARK    6  A    between atoms: C_14  and  C_15
REMARK    7  A    between atoms: C_15  and  N_16
REMARK                            x       y       z     vdW  Elec       q    Type
REMARK                         _______ _______ _______ _____ _____    ______ ____
ROOT
ATOM      1  C   UNL     1       5.732   4.937  15.654  0.00  0.00    +0.000 A 
ATOM      2  C   UNL     1       6.202   4.193  16.738  0.00  0.00    +0.000 A 
ATOM      3  C   UNL     1       5.783   4.447  18.043  0.00  0.00    +0.000 A 
ATOM      4  C   UNL     1       4.894   5.483  18.330  0.00  0.00    +0.000 A 
ATOM      5  C   UNL     1       4.457   6.285  17.276  0.00  0.00    +0.000 A 
ATOM      6  C   UNL     1       4.877   6.017  15.953  0.00  0.00    +0.000 A 
ENDROOT
BRANCH   1  13
ATOM      7  C   UNL     1       4.761   2.620  11.374  0.00  0.00    +0.000 C 
ATOM      8  C   UNL     1       5.652   3.462  12.234  0.00  0.00    +0.000 A 
ATOM      9  C   UNL     1       6.899   3.923  11.681  0.00  0.00    +0.000 A 
ATOM     10  C   UNL     1       7.717   4.688  12.407  0.00  0.00    +0.000 A 
ATOM     11  C   UNL     1       7.377   5.062  13.807  0.00  0.00    +0.000 A 
ATOM     12  O   UNL     1       8.235   5.711  14.407  0.00  0.00    +0.000 OA
ATOM     13  N   UNL     1       6.130   4.600  14.304  0.00  0.00    +0.000 N 
ATOM     14  C   UNL     1       5.319   3.803  13.490  0.00  0.00    +0.000 A 
ENDBRANCH   1  13
BRANCH   4  15
ATOM     15  O   UNL     1       4.409   5.766  19.591  0.00  0.00    +0.000 OA
BRANCH  15  16
ATOM     16  C   UNL     1       3.078   6.286  19.557  0.00  0.00    +0.000 C 
BRANCH  16  17
ATOM     17  C   UNL     1       2.009   5.375  20.156  0.00  0.00    +0.000 C 
BRANCH  17  18
ATOM     18  C   UNL     1       1.644   4.368  19.049  0.00  0.00    +0.000 C 
BRANCH  18  19
ATOM     19  N   UNL     1       1.685   2.946  19.400  0.00  0.00    +0.000 NA
ATOM     20  C   UNL     1       2.599   2.629  20.504  0.00  0.00    +0.000 C 
ATOM     21  C   UNL     1       3.921   2.261  19.863  0.00  0.00    +0.000 C 
ATOM     22  C   UNL     1       3.507   1.561  18.587  0.00  0.00    +0.000 C 
ATOM     23  C   UNL     1       2.155   2.164  18.233  0.00  0.00    +0.000 C 
ENDBRANCH  18  19
ENDBRANCH  17  18
ENDBRANCH  16  17
ENDBRANCH  15  16
ENDBRANCH   4  15
TORSDOF 6
ENDMDL
MODEL 4
REMARK VINA RESULT:      -7.2      0.659      1.352
REMARK  Name = 
REMARK  7 active torsions:
REMARK  status: ('A' for Active; 'I' for Inactive)
REMARK    1  A    between atoms: C_1  and  C_2
REMARK    2  A    between atoms: N_7  and  C_8
REMARK    3  A    between atoms: C_11  and  O_12
REMARK    4  A    between atoms: O_12  and  C_13
REMARK    5  A    between atoms: C_13  and  C_14
REMARK    6  A    between atoms: C_14  and  C_15
REMARK    7  A    between atoms: C_15  and  N_16
REMARK                            x       y       z     vdW  Elec       q    Type
REMARK                         _______ _______ _______ _____ _____    ______ ____
ROOT
ATOM      1  C   UNL     1       5.282   5.001  15.540  0.00  0.00    +0.000 A 
ATOM      2  C   UNL     1       5.191   6.354  15.875  0.00  0.00    +0.000 A 
ATOM      3  C   UNL     1       4.723   6.775  17.118  0.00  0.00    +0.000 A 
ATOM      4  C   UNL     1       4.294   5.860  18.080  0.00  0.00    +0.000 A 
ATOM      5  C   UNL     1       4.312   4.505  17.751  0.00  0.00    +0.000 A 
ATOM      6  C   UNL     1       4.797   4.082  16.492  0.00  0.00    +0.000 A 
ENDROOT
BRANCH   1  13
ATOM      7  C   UNL     1       4.807   2.515  11.271  0.00  0.00    +0.000 C 
ATOM      8  C   UNL     1       5.602   3.375  12.204  0.00  0.00    +0.000 A 
ATOM      9  C   UNL     1       6.923   3.782  11.799  0.00  0.00    +0.000 A 
ATOM     10  C   UNL     1       7.662   4.561  12.593  0.00  0.00    +0.000 A 
ATOM     11  C   UNL     1       7.155   5.006  13.919  0.00  0.00    +0.000 A 
ATOM     12  O   UNL     1       7.946   5.661  14.598  0.00  0.00    +0.000 OA
ATOM     13  N   UNL     1       5.842   4.595  14.268  0.00  0.00    +0.000 N 
ATOM     14  C   UNL     1       5.120   3.780  13.390  0.00  0.00    +0.000 A 
ENDBRANCH   1  13
BRANCH   4  15
ATOM     15  O   UNL     1       3.856   6.204  19.342  0.00  0.00    +0.000 OA
BRANCH  15  16
ATOM     16  C   UNL     1       2.442   6.049  19.488  0.00  0.00    +0.000 C 
BRANCH  16  17
ATOM     17  C   UNL     1       1.996   5.325  20.756  0.00  0.00    +0.000 C 
BRANCH  17  18
ATOM     18  C   UNL     1       0.911   4.325  20.312  0.00  0.00    +0.000 C 
BRANCH  18  19
ATOM     19  N   UNL     1       1.180   2.904  20.543  0.00  0.00    +0.000 NA
ATOM     20  C   UNL     1       2.377   2.645  21.352  0.00  0.00    +0.000 C 
ATOM     21  C   UNL     1       3.514   2.452  20.370  0.00  0.00    +0.000 C 
ATOM     22  C   UNL     1       2.851   1.764  19.197  0.00  0.00    +0.000 C 
ATOM     23  C   UNL     1       1.402   2.227  19.243  0.00  0.00    +0.000 C 
ENDBRANCH  18  19
ENDBRANCH  17  18
ENDBRANCH  16  17
ENDBRANCH  15  16
ENDBRANCH   4  15
TORSDOF 6
ENDMDL
MODEL 5
REMARK VINA RESULT:      -7.2      5.168      8.527
REMARK  Name = 
REMARK  7 active torsions:
REMARK  status: ('A' for Active; 'I' for Inactive)
REMARK    1  A    between atoms: C_1  and  C_2
REMARK    2  A    between atoms: N_7  and  C_8
REMARK    3  A    between atoms: C_11  and  O_12
REMARK    4  A    between atoms: O_12  and  C_13
REMARK    5  A    between atoms: C_13  and  C_14
REMARK    6  A    between atoms: C_14  and  C_15
REMARK    7  A    between atoms: C_15  and  N_16
REMARK                            x       y       z     vdW  Elec       q    Type
REMARK                         _______ _______ _______ _____ _____    ______ ____
ROOT
ATOM      1  C   UNL     1       5.087   5.159  18.346  0.00  0.00    +0.000 A 
ATOM      2  C   UNL     1       4.755   6.194  17.470  0.00  0.00    +0.000 A 
ATOM      3  C   UNL     1       5.678   7.170  17.099  0.00  0.00    +0.000 A 
ATOM      4  C   UNL     1       6.975   7.173  17.612  0.00  0.00    +0.000 A 
ATOM      5  C   UNL     1       7.317   6.189  18.540  0.00  0.00    +0.000 A 
ATOM      6  C   UNL     1       6.381   5.196  18.905  0.00  0.00    +0.000 A 
ENDROOT
BRANCH   1  13
ATOM      7  C   UNL     1       1.783   3.198  21.489  0.00  0.00    +0.000 C 
ATOM      8  C   UNL     1       2.533   3.172  20.192  0.00  0.00    +0.000 A 
ATOM      9  C   UNL     1       2.270   2.096  19.272  0.00  0.00    +0.000 A 
ATOM     10  C   UNL     1       2.904   2.041  18.099  0.00  0.00    +0.000 A 
ATOM     11  C   UNL     1       3.913   3.068  17.723  0.00  0.00    +0.000 A 
ATOM     12  O   UNL     1       4.488   2.881  16.650  0.00  0.00    +0.000 OA
ATOM     13  N   UNL     1       4.127   4.119  18.654  0.00  0.00    +0.000 N 
ATOM     14  C   UNL     1       3.428   4.118  19.864  0.00  0.00    +0.000 A 
ENDBRANCH   1  13
BRANCH   4  15
ATOM     15  O   UNL     1       7.950   8.084  17.260  0.00  0.00    +0.000 OA
BRANCH  15  16
ATOM     16  C   UNL     1       8.480   8.778  18.392  0.00  0.00    +0.000 C 
BRANCH  16  17
ATOM     17  C   UNL     1       8.779  10.258  18.165  0.00  0.00    +0.000 C 
BRANCH  17  18
ATOM     18  C   UNL     1       9.584  10.720  19.395  0.00  0.00    +0.000 C 
BRANCH  18  19
ATOM     19  N   UNL     1      10.942  11.215  19.157  0.00  0.00    +0.000 NA
ATOM     20  C   UNL     1      11.379  12.242  20.109  0.00  0.00    +0.000 C 
ATOM     21  C   UNL     1      11.042  13.575  19.474  0.00  0.00    +0.000 C 
ATOM     22  C   UNL     1      11.265  13.326  17.999  0.00  0.00    +0.000 C 
ATOM     23  C   UNL     1      11.011  11.836  17.813  0.00  0.00    +0.000 C 
ENDBRANCH  18  19
ENDBRANCH  17  18
ENDBRANCH  16  17
ENDBRANCH  15  16
ENDBRANCH   4  15
TORSDOF 6
ENDMDL
MODEL 6
REMARK VINA RESULT:      -7.1      4.780      8.437
REMARK  Name = 
REMARK  7 active torsions:
REMARK  status: ('A' for Active; 'I' for Inactive)
REMARK    1  A    between atoms: C_1  and  C_2
REMARK    2  A    between atoms: N_7  and  C_8
REMARK    3  A    between atoms: C_11  and  O_12
REMARK    4  A    between atoms: O_12  and  C_13
REMARK    5  A    between atoms: C_13  and  C_14
REMARK    6  A    between atoms: C_14  and  C_15
REMARK    7  A    between atoms: C_15  and  N_16
REMARK                            x       y       z     vdW  Elec       q    Type
REMARK                         _______ _______ _______ _____ _____    ______ ____
ROOT
ATOM      1  C   UNL     1       4.203   5.452  18.488  0.00  0.00    +0.000 A 
ATOM      2  C   UNL     1       5.476   5.205  19.005  0.00  0.00    +0.000 A 
ATOM      3  C   UNL     1       6.604   5.878  18.540  0.00  0.00    +0.000 A 
ATOM      4  C   UNL     1       6.516   6.814  17.508  0.00  0.00    +0.000 A 
ATOM      5  C   UNL     1       5.267   7.035  16.928  0.00  0.00    +0.000 A 
ATOM      6  C   UNL     1       4.125   6.358  17.410  0.00  0.00    +0.000 A 
ENDROOT
BRANCH   1  13
ATOM      7  C   UNL     1       1.291   1.440  18.734  0.00  0.00    +0.000 C 
ATOM      8  C   UNL     1       1.630   2.840  19.146  0.00  0.00    +0.000 A 
ATOM      9  C   UNL     1       0.777   3.495  20.104  0.00  0.00    +0.000 A 
ATOM     10  C   UNL     1       1.051   4.737  20.511  0.00  0.00    +0.000 A 
ATOM     11  C   UNL     1       2.220   5.482  19.972  0.00  0.00    +0.000 A 
ATOM     12  O   UNL     1       2.337   6.644  20.363  0.00  0.00    +0.000 OA
ATOM     13  N   UNL     1       3.042   4.790  19.044  0.00  0.00    +0.000 N 
ATOM     14  C   UNL     1       2.700   3.489  18.660  0.00  0.00    +0.000 A 
ENDBRANCH   1  13
BRANCH   4  15
ATOM     15  O   UNL     1       7.583   7.544  17.026  0.00  0.00    +0.000 OA
BRANCH  15  16
ATOM     16  C   UNL     1       8.322   8.182  18.070  0.00  0.00    +0.000 C 
BRANCH  16  17
ATOM     17  C   UNL     1       8.426   9.700  17.957  0.00  0.00    +0.000 C 
BRANCH  17  18
ATOM     18  C   UNL     1       9.247  10.160  19.177  0.00  0.00    +0.000 C 
BRANCH  18  19
ATOM     19  N   UNL     1       9.683  11.558  19.201  0.00  0.00    +0.000 NA
ATOM     20  C   UNL     1      10.592  11.919  18.107  0.00  0.00    +0.000 C 
ATOM     21  C   UNL     1      11.995  11.725  18.645  0.00  0.00    +0.000 C 
ATOM     22  C   UNL     1      11.869  12.120  20.100  0.00  0.00    +0.000 C 
ATOM     23  C   UNL     1      10.419  11.823  20.459  0.00  0.00    +0.000 C 
ENDBRANCH  18  19
ENDBRANCH  17  18
ENDBRANCH  16  17
ENDBRANCH  15  16
ENDBRANCH   4  15
TORSDOF 6
ENDMDL
MODEL 7
REMARK VINA RESULT:      -7.1      0.379      1.028
REMARK  Name = 
REMARK  7 active torsions:
REMARK  status: ('A' for Active; 'I' for Inactive)
REMARK    1  A    between atoms: C_1  and  C_2
REMARK    2  A    between atoms: N_7  and  C_8
REMARK    3  A    between atoms: C_11  and  O_12
REMARK    4  A    between atoms: O_12  and  C_13
REMARK    5  A    between atoms: C_13  and  C_14
REMARK    6  A    between atoms: C_14  and  C_15
REMARK    7  A    between atoms: C_15  and  N_16
REMARK                            x       y       z     vdW  Elec       q    Type
REMARK                         _______ _______ _______ _____ _____    ______ ____
ROOT
ATOM      1  C   UNL     1       5.550   4.725  15.769  0.00  0.00    +0.000 A 
ATOM      2  C   UNL     1       4.539   5.662  15.989  0.00  0.00    +0.000 A 
ATOM      3  C   UNL     1       4.086   5.971  17.270  0.00  0.00    +0.000 A 
ATOM      4  C   UNL     1       4.606   5.331  18.396  0.00  0.00    +0.000 A 
ATOM      5  C   UNL     1       5.571   4.343  18.204  0.00  0.00    +0.000 A 
ATOM      6  C   UNL     1       6.034   4.041  16.903  0.00  0.00    +0.000 A 
ENDROOT
BRANCH   1  13
ATOM      7  C   UNL     1       4.991   2.560  11.337  0.00  0.00    +0.000 C 
ATOM      8  C   UNL     1       5.770   3.415  12.288  0.00  0.00    +0.000 A 
ATOM      9  C   UNL     1       7.014   3.983  11.834  0.00  0.00    +0.000 A 
ATOM     10  C   UNL     1       7.734   4.763  12.643  0.00  0.00    +0.000 A 
ATOM     11  C   UNL     1       7.288   5.046  14.034  0.00  0.00    +0.000 A 
ATOM     12  O   UNL     1       8.063   5.719  14.715  0.00  0.00    +0.000 OA
ATOM     13  N   UNL     1       6.048   4.480  14.432  0.00  0.00    +0.000 N 
ATOM     14  C   UNL     1       5.343   3.672  13.535  0.00  0.00    +0.000 A 
ENDBRANCH   1  13
BRANCH   4  15
ATOM     15  O   UNL     1       4.232   5.615  19.694  0.00  0.00    +0.000 OA
BRANCH  15  16
ATOM     16  C   UNL     1       2.866   6.027  19.789  0.00  0.00    +0.000 C 
BRANCH  16  17
ATOM     17  C   UNL     1       2.009   5.215  20.757  0.00  0.00    +0.000 C 
BRANCH  17  18
ATOM     18  C   UNL     1       2.783   3.907  21.012  0.00  0.00    +0.000 C 
BRANCH  18  19
ATOM     19  N   UNL     1       2.181   2.667  20.516  0.00  0.00    +0.000 NA
ATOM     20  C   UNL     1       2.897   2.065  19.386  0.00  0.00    +0.000 C 
ATOM     21  C   UNL     1       2.235   2.602  18.134  0.00  0.00    +0.000 C 
ATOM     22  C   UNL     1       0.781   2.722  18.532  0.00  0.00    +0.000 C 
ATOM     23  C   UNL     1       0.806   2.944  20.038  0.00  0.00    +0.000 C 
ENDBRANCH  18  19
ENDBRANCH  17  18
ENDBRANCH  16  17
ENDBRANCH  15  16
ENDBRANCH   4  15
TORSDOF 6
ENDMDL
MODEL 8
REMARK VINA RESULT:      -7.0      4.570      7.669
REMARK  Name = 
REMARK  7 active torsions:
REMARK  status: ('A' for Active; 'I' for Inactive)
REMARK    1  A    between atoms: C_1  and  C_2
REMARK    2  A    between atoms: N_7  and  C_8
REMARK    3  A    between atoms: C_11  and  O_12
REMARK    4  A    between atoms: O_12  and  C_13
REMARK    5  A    between atoms: C_13  and  C_14
REMARK    6  A    between atoms: C_14  and  C_15
REMARK    7  A    between atoms: C_15  and  N_16
REMARK                            x       y       z     vdW  Elec       q    Type
REMARK                         _______ _______ _______ _____ _____    ______ ____
ROOT
ATOM      1  C   UNL     1       1.204   9.503  19.041  0.00  0.00    +0.000 A 
ATOM      2  C   UNL     1       1.095   8.936  20.312  0.00  0.00    +0.000 A 
ATOM      3  C   UNL     1       1.654   7.696  20.616  0.00  0.00    +0.000 A 
ATOM      4  C   UNL     1       2.326   6.947  19.649  0.00  0.00    +0.000 A 
ATOM      5  C   UNL     1       2.395   7.458  18.353  0.00  0.00    +0.000 A 
ATOM      6  C   UNL     1       1.835   8.720  18.052  0.00  0.00    +0.000 A 
ENDROOT
BRANCH   1  13
ATOM      7  C   UNL     1       1.952  14.395  18.648  0.00  0.00    +0.000 C 
ATOM      8  C   UNL     1       1.051  13.200  18.600  0.00  0.00    +0.000 A 
ATOM      9  C   UNL     1      -0.340  13.405  18.285  0.00  0.00    +0.000 A 
ATOM     10  C   UNL     1      -1.176  12.366  18.217  0.00  0.00    +0.000 A 
ATOM     11  C   UNL     1      -0.705  10.982  18.488  0.00  0.00    +0.000 A 
ATOM     12  O   UNL     1      -1.574  10.110  18.468  0.00  0.00    +0.000 OA
ATOM     13  N   UNL     1       0.677  10.826  18.778  0.00  0.00    +0.000 N 
ATOM     14  C   UNL     1       1.499  11.955  18.832  0.00  0.00    +0.000 A 
ENDBRANCH   1  13
BRANCH   4  15
ATOM     15  O   UNL     1       2.935   5.732  19.890  0.00  0.00    +0.000 OA
BRANCH  15  16
ATOM     16  C   UNL     1       2.297   5.004  20.942  0.00  0.00    +0.000 C 
BRANCH  16  17
ATOM     17  C   UNL     1       1.177   4.067  20.497  0.00  0.00    +0.000 C 
BRANCH  17  18
ATOM     18  C   UNL     1       1.798   2.657  20.457  0.00  0.00    +0.000 C 
BRANCH  18  19
ATOM     19  N   UNL     1       1.972   2.042  19.139  0.00  0.00    +0.000 NA
ATOM     20  C   UNL     1       3.371   1.770  18.786  0.00  0.00    +0.000 C 
ATOM     21  C   UNL     1       3.854   2.982  18.017  0.00  0.00    +0.000 C 
ATOM     22  C   UNL     1       2.627   3.419  17.248  0.00  0.00    +0.000 C 
ATOM     23  C   UNL     1       1.450   2.956  18.096  0.00  0.00    +0.000 C 
ENDBRANCH  18  19
ENDBRANCH  17  18
ENDBRANCH  16  17
ENDBRANCH  15  16
ENDBRANCH   4  15
TORSDOF 6
ENDMDL
MODEL 9
REMARK VINA RESULT:      -6.9      4.431      7.982
REMARK  Name = 
REMARK  7 active torsions:
REMARK  status: ('A' for Active; 'I' for Inactive)
REMARK    1  A    between atoms: C_1  and  C_2
REMARK    2  A    between atoms: N_7  and  C_8
REMARK    3  A    between atoms: C_11  and  O_12
REMARK    4  A    between atoms: O_12  and  C_13
REMARK    5  A    between atoms: C_13  and  C_14
REMARK    6  A    between atoms: C_14  and  C_15
REMARK    7  A    between atoms: C_15  and  N_16
REMARK                            x       y       z     vdW  Elec       q    Type
REMARK                         _______ _______ _______ _____ _____    ______ ____
ROOT
ATOM      1  C   UNL     1       0.943   9.299  19.407  0.00  0.00    +0.000 A 
ATOM      2  C   UNL     1       1.653   9.095  18.222  0.00  0.00    +0.000 A 
ATOM      3  C   UNL     1       2.504   8.005  18.052  0.00  0.00    +0.000 A 
ATOM      4  C   UNL     1       2.710   7.078  19.075  0.00  0.00    +0.000 A 
ATOM      5  C   UNL     1       2.065   7.292  20.293  0.00  0.00    +0.000 A 
ATOM      6  C   UNL     1       1.195   8.393  20.457  0.00  0.00    +0.000 A 
ENDROOT
BRANCH   1  13
ATOM      7  C   UNL     1      -3.299  11.466  18.012  0.00  0.00    +0.000 C 
ATOM      8  C   UNL     1      -2.045  11.448  18.831  0.00  0.00    +0.000 A 
ATOM      9  C   UNL     1      -1.802  12.545  19.732  0.00  0.00    +0.000 A 
ATOM     10  C   UNL     1      -0.705  12.562  20.493  0.00  0.00    +0.000 A 
ATOM     11  C   UNL     1       0.302  11.469  20.413  0.00  0.00    +0.000 A 
ATOM     12  O   UNL     1       1.308  11.622  21.107  0.00  0.00    +0.000 OA
ATOM     13  N   UNL     1       0.011  10.401  19.525  0.00  0.00    +0.000 N 
ATOM     14  C   UNL     1      -1.157  10.443  18.757  0.00  0.00    +0.000 A 
ENDBRANCH   1  13
BRANCH   4  15
ATOM     15  O   UNL     1       3.507   5.958  18.962  0.00  0.00    +0.000 OA
BRANCH  15  16
ATOM     16  C   UNL     1       3.523   5.434  17.632  0.00  0.00    +0.000 C 
BRANCH  16  17
ATOM     17  C   UNL     1       3.840   3.944  17.525  0.00  0.00    +0.000 C 
BRANCH  17  18
ATOM     18  C   UNL     1       2.478   3.229  17.425  0.00  0.00    +0.000 C 
BRANCH  18  19
ATOM     19  N   UNL     1       2.098   2.359  18.541  0.00  0.00    +0.000 NA
ATOM     20  C   UNL     1       0.780   2.662  19.112  0.00  0.00    +0.000 C 
ATOM     21  C   UNL     1       1.030   3.619  20.260  0.00  0.00    +0.000 C 
ATOM     22  C   UNL     1       2.354   3.152  20.823  0.00  0.00    +0.000 C 
ATOM     23  C   UNL     1       3.076   2.515  19.643  0.00  0.00    +0.000 C 
ENDBRANCH  18  19
ENDBRANCH  17  18
ENDBRANCH  16  17
ENDBRANCH  15  16
ENDBRANCH   4  15
TORSDOF 6
ENDMDL
