MODEL 1
REMARK VINA RESULT:      -7.8      0.000      0.000
REMARK  Name = 
REMARK  11 active torsions:
REMARK  status: ('A' for Active; 'I' for Inactive)
REMARK    1  A    between atoms: C_1  and  C_2
REMARK    2  A    between atoms: C_2  and  C_3
REMARK    3  A    between atoms: C_3  and  C_4
REMARK    4  A    between atoms: C_4  and  C_5
REMARK    5  A    between atoms: C_5  and  N_6
REMARK    6  A    between atoms: C_8  and  C_9
REMARK    7  A    between atoms: N_11  and  C_12
REMARK    8  A    between atoms: C_26  and  C_27
REMARK    9  A    between atoms: C_27  and  C_28
REMARK   10  A    between atoms: C_27  and  C_29
REMARK   11  A    between atoms: C_27  and  C_30
REMARK                            x       y       z     vdW  Elec       q    Type
REMARK                         _______ _______ _______ _____ _____    ______ ____
ROOT
ATOM      1  N   UNL     1       2.236   5.909  20.441  0.00  0.00    +0.000 N 
ATOM      2  C   UNL     1       1.412   6.953  20.865  0.00  0.00    +0.000 A 
ATOM      3  C   UNL     1       1.294   8.154  20.260  0.00  0.00    +0.000 A 
ATOM      4  C   UNL     1       2.150   8.419  19.075  0.00  0.00    +0.000 A 
ATOM      5  O   UNL     1       2.206   9.498  18.495  0.00  0.00    +0.000 OA
ATOM      6  N   UNL     1       2.893   7.307  18.646  0.00  0.00    +0.000 N 
ATOM      7  N   UNL     1       3.714   7.350  17.563  0.00  0.00    +0.000 NA
ATOM      8  C   UNL     1       4.193   6.104  17.451  0.00  0.00    +0.000 A 
ATOM      9  C   UNL     1       3.653   5.249  18.445  0.00  0.00    +0.000 A 
ATOM     10  C   UNL     1       2.908   6.067  19.260  0.00  0.00    +0.000 A 
ENDROOT
BRANCH   3  11
ATOM     11  C   UNL     1       0.294   9.129  20.789  0.00  0.00    +0.000 C 
ATOM     12  O   UNL     1      -0.769   8.726  21.259  0.00  0.00    +0.000 OA
ATOM     13  N   UNL     1       0.624  10.465  20.698  0.00  0.00    +0.000 N 
ATOM     14  H   UNL     1       1.552  10.704  20.344  0.00  0.00    +0.000 HD
BRANCH  13  15
ATOM     15  C   UNL     1      -0.239  11.574  21.151  0.00  0.00    +0.000 C 
ATOM     16  C   UNL     1       0.536  12.914  21.141  0.00  0.00    +0.000 C 
ATOM     17  C   UNL     1      -0.361  14.075  21.597  0.00  0.00    +0.000 C 
ATOM     18  C   UNL     1      -1.552  14.199  20.635  0.00  0.00    +0.000 C 
ATOM     19  C   UNL     1      -2.368  12.896  20.642  0.00  0.00    +0.000 C 
ATOM     20  C   UNL     1      -2.883  12.626  22.065  0.00  0.00    +0.000 C 
ATOM     21  C   UNL     1      -1.697  12.485  23.030  0.00  0.00    +0.000 C 
ATOM     22  C   UNL     1      -0.882  13.790  23.016  0.00  0.00    +0.000 C 
ATOM     23  C   UNL     1      -0.799  11.319  22.576  0.00  0.00    +0.000 C 
ATOM     24  C   UNL     1      -1.464  11.725  20.200  0.00  0.00    +0.000 C 
ENDBRANCH  13  15
ENDBRANCH   3  11
BRANCH   8  25
ATOM     25  C   UNL     1       5.231   5.742  16.399  0.00  0.00    +0.000 C 
ATOM     26  C   UNL     1       6.672   5.898  16.929  0.00  0.00    +0.000 C 
ATOM     27  C   UNL     1       5.036   4.271  15.974  0.00  0.00    +0.000 C 
ATOM     28  C   UNL     1       5.077   6.640  15.157  0.00  0.00    +0.000 C 
ENDBRANCH   8  25
BRANCH   1  29
ATOM     29  C   UNL     1       2.301   4.617  21.155  0.00  0.00    +0.000 C 
BRANCH  29  30
ATOM     30  C   UNL     1       1.166   3.646  20.791  0.00  0.00    +0.000 C 
BRANCH  30  31
ATOM     31  C   UNL     1       1.629   2.359  20.106  0.00  0.00    +0.000 C 
BRANCH  31  33
ATOM     32  C   UNL     1       2.428   2.095  17.719  0.00  0.00    +0.000 C 
ATOM     33  C   UNL     1       1.240   2.372  18.624  0.00  0.00    +0.000 C 
ENDBRANCH  31  33
ENDBRANCH  30  31
ENDBRANCH  29  30
ENDBRANCH   1  29
TORSDOF 7
ENDMDL
MODEL 2
REMARK VINA RESULT:      -7.8      0.061      1.335
REMARK  Name = 
REMARK  11 active torsions:
REMARK  status: ('A' for Active; 'I' for Inactive)
REMARK    1  A    between atoms: C_1  and  C_2
REMARK    2  A    between atoms: C_2  and  C_3
REMARK    3  A    between atoms: C_3  and  C_4
REMARK    4  A    between atoms: C_4  and  C_5
REMARK    5  A    between atoms: C_5  and  N_6
REMARK    6  A    between atoms: C_8  and  C_9
REMARK    7  A    between atoms: N_11  and  C_12
REMARK    8  A    between atoms: C_26  and  C_27
REMARK    9  A    between atoms: C_27  and  C_28
REMARK   10  A    between atoms: C_27  and  C_29
REMARK   11  A    between atoms: C_27  and  C_30
REMARK                            x       y       z     vdW  Elec       q    Type
REMARK                         _______ _______ _______ _____ _____    ______ ____
ROOT
ATOM      1  N   UNL     1       2.208   5.921  20.436  0.00  0.00    +0.000 N 
ATOM      2  C   UNL     1       1.377   6.957  20.866  0.00  0.00    +0.000 A 
ATOM      3  C   UNL     1       1.255   8.163  20.273  0.00  0.00    +0.000 A 
ATOM      4  C   UNL     1       2.115   8.444  19.095  0.00  0.00    +0.000 A 
ATOM      5  O   UNL     1       2.169   9.529  18.525  0.00  0.00    +0.000 OA
ATOM      6  N   UNL     1       2.866   7.340  18.659  0.00  0.00    +0.000 N 
ATOM      7  N   UNL     1       3.692   7.398  17.580  0.00  0.00    +0.000 NA
ATOM      8  C   UNL     1       4.178   6.156  17.457  0.00  0.00    +0.000 A 
ATOM      9  C   UNL     1       3.637   5.288  18.441  0.00  0.00    +0.000 A 
ATOM     10  C   UNL     1       2.885   6.095  19.260  0.00  0.00    +0.000 A 
ENDROOT
BRANCH   3  11
ATOM     11  C   UNL     1       0.249   9.128  20.807  0.00  0.00    +0.000 C 
ATOM     12  O   UNL     1      -0.798   8.713  21.304  0.00  0.00    +0.000 OA
ATOM     13  N   UNL     1       0.552  10.468  20.689  0.00  0.00    +0.000 N 
ATOM     14  H   UNL     1       1.468  10.718  20.313  0.00  0.00    +0.000 HD
BRANCH  13  15
ATOM     15  C   UNL     1      -0.323  11.568  21.143  0.00  0.00    +0.000 C 
ATOM     16  C   UNL     1      -0.835  11.306  22.580  0.00  0.00    +0.000 C 
ATOM     17  C   UNL     1      -1.733  12.455  23.064  0.00  0.00    +0.000 C 
ATOM     18  C   UNL     1      -0.924  13.760  23.070  0.00  0.00    +0.000 C 
ATOM     19  C   UNL     1      -0.426  14.072  21.650  0.00  0.00    +0.000 C 
ATOM     20  C   UNL     1      -1.631  14.220  20.708  0.00  0.00    +0.000 C 
ATOM     21  C   UNL     1      -2.437  12.912  20.685  0.00  0.00    +0.000 C 
ATOM     22  C   UNL     1      -2.930  12.603  22.109  0.00  0.00    +0.000 C 
ATOM     23  C   UNL     1      -1.538  11.761  20.196  0.00  0.00    +0.000 C 
ATOM     24  C   UNL     1       0.465  12.912  21.154  0.00  0.00    +0.000 C 
ENDBRANCH  13  15
ENDBRANCH   3  11
BRANCH   8  25
ATOM     25  C   UNL     1       5.222   5.810  16.407  0.00  0.00    +0.000 C 
ATOM     26  C   UNL     1       6.661   5.980  16.941  0.00  0.00    +0.000 C 
ATOM     27  C   UNL     1       5.046   4.338  15.976  0.00  0.00    +0.000 C 
ATOM     28  C   UNL     1       5.061   6.710  15.167  0.00  0.00    +0.000 C 
ENDBRANCH   8  25
BRANCH   1  29
ATOM     29  C   UNL     1       2.276   4.622  21.138  0.00  0.00    +0.000 C 
BRANCH  29  30
ATOM     30  C   UNL     1       1.144   3.652  20.764  0.00  0.00    +0.000 C 
BRANCH  30  31
ATOM     31  C   UNL     1       1.613   2.356  20.103  0.00  0.00    +0.000 C 
BRANCH  31  33
ATOM     32  C   UNL     1       2.464   2.063  17.737  0.00  0.00    +0.000 C 
ATOM     33  C   UNL     1       1.258   2.356  18.612  0.00  0.00    +0.000 C 
ENDBRANCH  31  33
ENDBRANCH  30  31
ENDBRANCH  29  30
ENDBRANCH   1  29
TORSDOF 7
ENDMDL
MODEL 3
REMARK VINA RESULT:      -7.8      0.097      1.553
REMARK  Name = 
REMARK  11 active torsions:
REMARK  status: ('A' for Active; 'I' for Inactive)
REMARK    1  A    between atoms: C_1  and  C_2
REMARK    2  A    between atoms: C_2  and  C_3
REMARK    3  A    between atoms: C_3  and  C_4
REMARK    4  A    between atoms: C_4  and  C_5
REMARK    5  A    between atoms: C_5  and  N_6
REMARK    6  A    between atoms: C_8  and  C_9
REMARK    7  A    between atoms: N_11  and  C_12
REMARK    8  A    between atoms: C_26  and  C_27
REMARK    9  A    between atoms: C_27  and  C_28
REMARK   10  A    between atoms: C_27  and  C_29
REMARK   11  A    between atoms: C_27  and  C_30
REMARK                            x       y       z     vdW  Elec       q    Type
REMARK                         _______ _______ _______ _____ _____    ______ ____
ROOT
ATOM      1  N   UNL     1       2.304   5.881  20.385  0.00  0.00    +0.000 N 
ATOM      2  C   UNL     1       1.482   6.925  20.814  0.00  0.00    +0.000 A 
ATOM      3  C   UNL     1       1.362   8.128  20.213  0.00  0.00    +0.000 A 
ATOM      4  C   UNL     1       2.214   8.396  19.026  0.00  0.00    +0.000 A 
ATOM      5  O   UNL     1       2.269   9.476  18.448  0.00  0.00    +0.000 OA
ATOM      6  N   UNL     1       2.955   7.284  18.592  0.00  0.00    +0.000 N 
ATOM      7  N   UNL     1       3.773   7.330  17.506  0.00  0.00    +0.000 NA
ATOM      8  C   UNL     1       4.251   6.083  17.388  0.00  0.00    +0.000 A 
ATOM      9  C   UNL     1       3.713   5.226  18.383  0.00  0.00    +0.000 A 
ATOM     10  C   UNL     1       2.972   6.043  19.202  0.00  0.00    +0.000 A 
ENDROOT
BRANCH   3  11
ATOM     11  C   UNL     1       0.366   9.102  20.748  0.00  0.00    +0.000 C 
ATOM     12  O   UNL     1      -0.671   8.696  21.272  0.00  0.00    +0.000 OA
ATOM     13  N   UNL     1       0.666  10.440  20.600  0.00  0.00    +0.000 N 
ATOM     14  H   UNL     1       1.575  10.683  20.202  0.00  0.00    +0.000 HD
BRANCH  13  15
ATOM     15  C   UNL     1      -0.201  11.548  21.049  0.00  0.00    +0.000 C 
ATOM     16  C   UNL     1      -1.458  11.661  20.153  0.00  0.00    +0.000 C 
ATOM     17  C   UNL     1      -2.372  12.802  20.625  0.00  0.00    +0.000 C 
ATOM     18  C   UNL     1      -2.828  12.520  22.064  0.00  0.00    +0.000 C 
ATOM     19  C   UNL     1      -1.606  12.434  22.993  0.00  0.00    +0.000 C 
ATOM     20  C   UNL     1      -0.839  13.765  22.949  0.00  0.00    +0.000 C 
ATOM     21  C   UNL     1      -0.366  14.047  21.515  0.00  0.00    +0.000 C 
ATOM     22  C   UNL     1      -1.592  14.128  20.591  0.00  0.00    +0.000 C 
ATOM     23  C   UNL     1       0.554  12.904  21.043  0.00  0.00    +0.000 C 
ATOM     24  C   UNL     1      -0.678  11.298  22.511  0.00  0.00    +0.000 C 
ENDBRANCH  13  15
ENDBRANCH   3  11
BRANCH   8  25
ATOM     25  C   UNL     1       5.284   5.723  16.332  0.00  0.00    +0.000 C 
ATOM     26  C   UNL     1       5.119   4.273  15.830  0.00  0.00    +0.000 C 
ATOM     27  C   UNL     1       5.127   6.667  15.120  0.00  0.00    +0.000 C 
ATOM     28  C   UNL     1       6.709   5.876  16.896  0.00  0.00    +0.000 C 
ENDBRANCH   8  25
BRANCH   1  29
ATOM     29  C   UNL     1       2.370   4.587  21.095  0.00  0.00    +0.000 C 
BRANCH  29  30
ATOM     30  C   UNL     1       1.164   3.671  20.834  0.00  0.00    +0.000 C 
BRANCH  30  31
ATOM     31  C   UNL     1       1.506   2.363  20.118  0.00  0.00    +0.000 C 
BRANCH  31  33
ATOM     32  C   UNL     1       2.438   2.104  17.779  0.00  0.00    +0.000 C 
ATOM     33  C   UNL     1       1.230   2.488  18.615  0.00  0.00    +0.000 C 
ENDBRANCH  31  33
ENDBRANCH  30  31
ENDBRANCH  29  30
ENDBRANCH   1  29
TORSDOF 7
ENDMDL
MODEL 4
REMARK VINA RESULT:      -7.6      0.783      1.755
REMARK  Name = 
REMARK  11 active torsions:
REMARK  status: ('A' for Active; 'I' for Inactive)
REMARK    1  A    between atoms: C_1  and  C_2
REMARK    2  A    between atoms: C_2  and  C_3
REMARK    3  A    between atoms: C_3  and  C_4
REMARK    4  A    between atoms: C_4  and  C_5
REMARK    5  A    between atoms: C_5  and  N_6
REMARK    6  A    between atoms: C_8  and  C_9
REMARK    7  A    between atoms: N_11  and  C_12
REMARK    8  A    between atoms: C_26  and  C_27
REMARK    9  A    between atoms: C_27  and  C_28
REMARK   10  A    between atoms: C_27  and  C_29
REMARK   11  A    between atoms: C_27  and  C_30
REMARK                            x       y       z     vdW  Elec       q    Type
REMARK                         _______ _______ _______ _____ _____    ______ ____
ROOT
ATOM      1  N   UNL     1       2.244   6.366  19.960  0.00  0.00    +0.000 N 
ATOM      2  C   UNL     1       1.472   7.521  20.103  0.00  0.00    +0.000 A 
ATOM      3  C   UNL     1       1.507   8.594  19.285  0.00  0.00    +0.000 A 
ATOM      4  C   UNL     1       2.485   8.581  18.167  0.00  0.00    +0.000 A 
ATOM      5  O   UNL     1       2.680   9.528  17.413  0.00  0.00    +0.000 OA
ATOM      6  N   UNL     1       3.171   7.363  18.023  0.00  0.00    +0.000 N 
ATOM      7  N   UNL     1       4.087   7.154  17.041  0.00  0.00    +0.000 NA
ATOM      8  C   UNL     1       4.472   5.880  17.202  0.00  0.00    +0.000 A 
ATOM      9  C   UNL     1       3.777   5.260  18.272  0.00  0.00    +0.000 A 
ATOM     10  C   UNL     1       3.030   6.261  18.846  0.00  0.00    +0.000 A 
ENDROOT
BRANCH   3  11
ATOM     11  C   UNL     1       0.546   9.712  19.526  0.00  0.00    +0.000 C 
ATOM     12  O   UNL     1      -0.241  10.047  18.641  0.00  0.00    +0.000 OA
ATOM     13  N   UNL     1       0.614  10.333  20.755  0.00  0.00    +0.000 N 
ATOM     14  H   UNL     1       1.261   9.950  21.447  0.00  0.00    +0.000 HD
BRANCH  13  15
ATOM     15  C   UNL     1      -0.240  11.463  21.171  0.00  0.00    +0.000 C 
ATOM     16  C   UNL     1      -1.471  11.593  20.241  0.00  0.00    +0.000 C 
ATOM     17  C   UNL     1      -2.372  12.758  20.678  0.00  0.00    +0.000 C 
ATOM     18  C   UNL     1      -2.872  12.501  22.107  0.00  0.00    +0.000 C 
ATOM     19  C   UNL     1      -1.677  12.399  23.068  0.00  0.00    +0.000 C 
ATOM     20  C   UNL     1      -0.880  13.713  23.031  0.00  0.00    +0.000 C 
ATOM     21  C   UNL     1      -0.364  13.969  21.607  0.00  0.00    +0.000 C 
ATOM     22  C   UNL     1      -1.564  14.066  20.650  0.00  0.00    +0.000 C 
ATOM     23  C   UNL     1       0.543  12.803  21.170  0.00  0.00    +0.000 C 
ATOM     24  C   UNL     1      -0.761  11.239  22.622  0.00  0.00    +0.000 C 
ENDBRANCH  13  15
ENDBRANCH   3  11
BRANCH   8  25
ATOM     25  C   UNL     1       5.568   5.265  16.345  0.00  0.00    +0.000 C 
ATOM     26  C   UNL     1       5.486   5.733  14.876  0.00  0.00    +0.000 C 
ATOM     27  C   UNL     1       6.947   5.681  16.901  0.00  0.00    +0.000 C 
ATOM     28  C   UNL     1       5.470   3.728  16.364  0.00  0.00    +0.000 C 
ENDBRANCH   8  25
BRANCH   1  29
ATOM     29  C   UNL     1       2.139   5.227  20.896  0.00  0.00    +0.000 C 
BRANCH  29  30
ATOM     30  C   UNL     1       0.998   4.253  20.565  0.00  0.00    +0.000 C 
BRANCH  30  31
ATOM     31  C   UNL     1       1.455   2.830  20.237  0.00  0.00    +0.000 C 
BRANCH  31  33
ATOM     32  C   UNL     1       2.273   2.090  17.959  0.00  0.00    +0.000 C 
ATOM     33  C   UNL     1       1.065   2.461  18.802  0.00  0.00    +0.000 C 
ENDBRANCH  31  33
ENDBRANCH  30  31
ENDBRANCH  29  30
ENDBRANCH   1  29
TORSDOF 7
ENDMDL
MODEL 5
REMARK VINA RESULT:      -7.6      0.794      1.087
REMARK  Name = 
REMARK  11 active torsions:
REMARK  status: ('A' for Active; 'I' for Inactive)
REMARK    1  A    between atoms: C_1  and  C_2
REMARK    2  A    between atoms: C_2  and  C_3
REMARK    3  A    between atoms: C_3  and  C_4
REMARK    4  A    between atoms: C_4  and  C_5
REMARK    5  A    between atoms: C_5  and  N_6
REMARK    6  A    between atoms: C_8  and  C_9
REMARK    7  A    between atoms: N_11  and  C_12
REMARK    8  A    between atoms: C_26  and  C_27
REMARK    9  A    between atoms: C_27  and  C_28
REMARK   10  A    between atoms: C_27  and  C_29
REMARK   11  A    between atoms: C_27  and  C_30
REMARK                            x       y       z     vdW  Elec       q    Type
REMARK                         _______ _______ _______ _____ _____    ______ ____
ROOT
ATOM      1  N   UNL     1       2.230   6.403  19.970  0.00  0.00    +0.000 N 
ATOM      2  C   UNL     1       1.472   7.567  20.113  0.00  0.00    +0.000 A 
ATOM      3  C   UNL     1       1.520   8.641  19.295  0.00  0.00    +0.000 A 
ATOM      4  C   UNL     1       2.499   8.616  18.178  0.00  0.00    +0.000 A 
ATOM      5  O   UNL     1       2.707   9.561  17.425  0.00  0.00    +0.000 OA
ATOM      6  N   UNL     1       3.172   7.391  18.035  0.00  0.00    +0.000 N 
ATOM      7  N   UNL     1       4.087   7.170  17.053  0.00  0.00    +0.000 NA
ATOM      8  C   UNL     1       4.456   5.893  17.214  0.00  0.00    +0.000 A 
ATOM      9  C   UNL     1       3.752   5.280  18.283  0.00  0.00    +0.000 A 
ATOM     10  C   UNL     1       3.016   6.289  18.857  0.00  0.00    +0.000 A 
ENDROOT
BRANCH   3  11
ATOM     11  C   UNL     1       0.572   9.769  19.535  0.00  0.00    +0.000 C 
ATOM     12  O   UNL     1      -0.138  10.181  18.619  0.00  0.00    +0.000 OA
ATOM     13  N   UNL     1       0.565  10.312  20.802  0.00  0.00    +0.000 N 
ATOM     14  H   UNL     1       1.149   9.869  21.514  0.00  0.00    +0.000 HD
BRANCH  13  15
ATOM     15  C   UNL     1      -0.289  11.440  21.225  0.00  0.00    +0.000 C 
ATOM     16  C   UNL     1       0.490  12.776  21.155  0.00  0.00    +0.000 C 
ATOM     17  C   UNL     1      -0.398  13.956  21.579  0.00  0.00    +0.000 C 
ATOM     18  C   UNL     1      -1.601  14.048  20.629  0.00  0.00    +0.000 C 
ATOM     19  C   UNL     1      -2.421  12.749  20.696  0.00  0.00    +0.000 C 
ATOM     20  C   UNL     1      -2.918  12.534  22.135  0.00  0.00    +0.000 C 
ATOM     21  C   UNL     1      -1.719  12.426  23.089  0.00  0.00    +0.000 C 
ATOM     22  C   UNL     1      -0.901  13.726  23.014  0.00  0.00    +0.000 C 
ATOM     23  C   UNL     1      -0.830  11.240  22.666  0.00  0.00    +0.000 C 
ATOM     24  C   UNL     1      -1.527  11.560  20.286  0.00  0.00    +0.000 C 
ENDBRANCH  13  15
ENDBRANCH   3  11
BRANCH   8  25
ATOM     25  C   UNL     1       5.545   5.265  16.358  0.00  0.00    +0.000 C 
ATOM     26  C   UNL     1       5.421   3.727  16.298  0.00  0.00    +0.000 C 
ATOM     27  C   UNL     1       5.438   5.807  14.916  0.00  0.00    +0.000 C 
ATOM     28  C   UNL     1       6.939   5.612  16.915  0.00  0.00    +0.000 C 
ENDBRANCH   8  25
BRANCH   1  29
ATOM     29  C   UNL     1       2.110   5.265  20.905  0.00  0.00    +0.000 C 
BRANCH  29  30
ATOM     30  C   UNL     1       0.987   4.280  20.546  0.00  0.00    +0.000 C 
BRANCH  30  31
ATOM     31  C   UNL     1       1.467   2.866  20.214  0.00  0.00    +0.000 C 
BRANCH  31  33
ATOM     32  C   UNL     1       2.306   2.085  17.957  0.00  0.00    +0.000 C 
ATOM     33  C   UNL     1       1.094   2.499  18.773  0.00  0.00    +0.000 C 
ENDBRANCH  31  33
ENDBRANCH  30  31
ENDBRANCH  29  30
ENDBRANCH   1  29
TORSDOF 7
ENDMDL
MODEL 6
REMARK VINA RESULT:      -7.6      0.824      1.734
REMARK  Name = 
REMARK  11 active torsions:
REMARK  status: ('A' for Active; 'I' for Inactive)
REMARK    1  A    between atoms: C_1  and  C_2
REMARK    2  A    between atoms: C_2  and  C_3
REMARK    3  A    between atoms: C_3  and  C_4
REMARK    4  A    between atoms: C_4  and  C_5
REMARK    5  A    between atoms: C_5  and  N_6
REMARK    6  A    between atoms: C_8  and  C_9
REMARK    7  A    between atoms: N_11  and  C_12
REMARK    8  A    between atoms: C_26  and  C_27
REMARK    9  A    between atoms: C_27  and  C_28
REMARK   10  A    between atoms: C_27  and  C_29
REMARK   11  A    between atoms: C_27  and  C_30
REMARK                            x       y       z     vdW  Elec       q    Type
REMARK                         _______ _______ _______ _____ _____    ______ ____
ROOT
ATOM      1  N   UNL     1       2.209   6.406  19.978  0.00  0.00    +0.000 N 
ATOM      2  C   UNL     1       1.456   7.575  20.109  0.00  0.00    +0.000 A 
ATOM      3  C   UNL     1       1.514   8.643  19.284  0.00  0.00    +0.000 A 
ATOM      4  C   UNL     1       2.500   8.606  18.174  0.00  0.00    +0.000 A 
ATOM      5  O   UNL     1       2.717   9.545  17.415  0.00  0.00    +0.000 OA
ATOM      6  N   UNL     1       3.167   7.376  18.042  0.00  0.00    +0.000 N 
ATOM      7  N   UNL     1       4.086   7.145  17.067  0.00  0.00    +0.000 NA
ATOM      8  C   UNL     1       4.449   5.866  17.239  0.00  0.00    +0.000 A 
ATOM      9  C   UNL     1       3.735   5.265  18.307  0.00  0.00    +0.000 A 
ATOM     10  C   UNL     1       3.001   6.281  18.870  0.00  0.00    +0.000 A 
ENDROOT
BRANCH   3  11
ATOM     11  C   UNL     1       0.571   9.778  19.511  0.00  0.00    +0.000 C 
ATOM     12  O   UNL     1      -0.086  10.229  18.573  0.00  0.00    +0.000 OA
ATOM     13  N   UNL     1       0.505  10.281  20.793  0.00  0.00    +0.000 N 
ATOM     14  H   UNL     1       1.046   9.808  21.519  0.00  0.00    +0.000 HD
BRANCH  13  15
ATOM     15  C   UNL     1      -0.354  11.408  21.208  0.00  0.00    +0.000 C 
ATOM     16  C   UNL     1      -0.858  11.211  22.658  0.00  0.00    +0.000 C 
ATOM     17  C   UNL     1      -1.740  12.388  23.101  0.00  0.00    +0.000 C 
ATOM     18  C   UNL     1      -0.916  13.683  23.048  0.00  0.00    +0.000 C 
ATOM     19  C   UNL     1      -0.425  13.932  21.613  0.00  0.00    +0.000 C 
ATOM     20  C   UNL     1      -1.636  14.055  20.674  0.00  0.00    +0.000 C 
ATOM     21  C   UNL     1      -2.456  12.757  20.710  0.00  0.00    +0.000 C 
ATOM     22  C   UNL     1      -2.942  12.512  22.149  0.00  0.00    +0.000 C 
ATOM     23  C   UNL     1      -1.573  11.577  20.262  0.00  0.00    +0.000 C 
ATOM     24  C   UNL     1       0.449  12.743  21.159  0.00  0.00    +0.000 C 
ENDBRANCH  13  15
ENDBRANCH   3  11
BRANCH   8  25
ATOM     25  C   UNL     1       5.540   5.227  16.393  0.00  0.00    +0.000 C 
ATOM     26  C   UNL     1       5.354   3.700  16.266  0.00  0.00    +0.000 C 
ATOM     27  C   UNL     1       5.504   5.831  14.973  0.00  0.00    +0.000 C 
ATOM     28  C   UNL     1       6.926   5.493  17.010  0.00  0.00    +0.000 C 
ENDBRANCH   8  25
BRANCH   1  29
ATOM     29  C   UNL     1       2.077   5.275  20.920  0.00  0.00    +0.000 C 
BRANCH  29  30
ATOM     30  C   UNL     1       1.019   4.241  20.507  0.00  0.00    +0.000 C 
BRANCH  30  31
ATOM     31  C   UNL     1       1.532   2.801  20.444  0.00  0.00    +0.000 C 
BRANCH  31  33
ATOM     32  C   UNL     1       2.783   1.795  18.487  0.00  0.00    +0.000 C 
ATOM     33  C   UNL     1       1.436   2.261  19.013  0.00  0.00    +0.000 C 
ENDBRANCH  31  33
ENDBRANCH  30  31
ENDBRANCH  29  30
ENDBRANCH   1  29
TORSDOF 7
ENDMDL
MODEL 7
REMARK VINA RESULT:      -7.6      1.886      9.415
REMARK  Name = 
REMARK  11 active torsions:
REMARK  status: ('A' for Active; 'I' for Inactive)
REMARK    1  A    between atoms: C_1  and  C_2
REMARK    2  A    between atoms: C_2  and  C_3
REMARK    3  A    between atoms: C_3  and  C_4
REMARK    4  A    between atoms: C_4  and  C_5
REMARK    5  A    between atoms: C_5  and  N_6
REMARK    6  A    between atoms: C_8  and  C_9
REMARK    7  A    between atoms: N_11  and  C_12
REMARK    8  A    between atoms: C_26  and  C_27
REMARK    9  A    between atoms: C_27  and  C_28
REMARK   10  A    between atoms: C_27  and  C_29
REMARK   11  A    between atoms: C_27  and  C_30
REMARK                            x       y       z     vdW  Elec       q    Type
REMARK                         _______ _______ _______ _____ _____    ______ ____
ROOT
ATOM      1  N   UNL     1       1.507  11.382  18.811  0.00  0.00    +0.000 N 
ATOM      2  C   UNL     1       2.006  10.101  18.565  0.00  0.00    +0.000 A 
ATOM      3  C   UNL     1       1.703   8.992  19.274  0.00  0.00    +0.000 A 
ATOM      4  C   UNL     1       0.809   9.145  20.450  0.00  0.00    +0.000 A 
ATOM      5  O   UNL     1       0.534   8.237  21.227  0.00  0.00    +0.000 OA
ATOM      6  N   UNL     1       0.273  10.435  20.597  0.00  0.00    +0.000 N 
ATOM      7  N   UNL     1      -0.585  10.760  21.600  0.00  0.00    +0.000 NA
ATOM      8  C   UNL     1      -0.905  12.041  21.372  0.00  0.00    +0.000 A 
ATOM      9  C   UNL     1      -0.275  12.531  20.199  0.00  0.00    +0.000 A 
ATOM     10  C   UNL     1       0.555  11.518  19.783  0.00  0.00    +0.000 A 
ENDROOT
BRANCH   3  11
ATOM     11  C   UNL     1       2.251   7.679  18.820  0.00  0.00    +0.000 C 
ATOM     12  O   UNL     1       2.928   7.616  17.795  0.00  0.00    +0.000 OA
ATOM     13  N   UNL     1       1.938   6.578  19.590  0.00  0.00    +0.000 N 
ATOM     14  H   UNL     1       1.416   6.734  20.454  0.00  0.00    +0.000 HD
BRANCH  13  15
ATOM     15  C   UNL     1       2.373   5.198  19.295  0.00  0.00    +0.000 C 
ATOM     16  C   UNL     1       3.909   5.065  19.433  0.00  0.00    +0.000 C 
ATOM     17  C   UNL     1       4.366   3.627  19.142  0.00  0.00    +0.000 C 
ATOM     18  C   UNL     1       3.706   2.675  20.149  0.00  0.00    +0.000 C 
ATOM     19  C   UNL     1       2.177   2.754  20.019  0.00  0.00    +0.000 C 
ATOM     20  C   UNL     1       1.766   2.357  18.593  0.00  0.00    +0.000 C 
ATOM     21  C   UNL     1       2.410   3.315  17.580  0.00  0.00    +0.000 C 
ATOM     22  C   UNL     1       3.940   3.234  17.717  0.00  0.00    +0.000 C 
ATOM     23  C   UNL     1       1.948   4.757  17.869  0.00  0.00    +0.000 C 
ATOM     24  C   UNL     1       1.715   4.201  20.296  0.00  0.00    +0.000 C 
ENDBRANCH  13  15
ENDBRANCH   3  11
BRANCH   8  25
ATOM     25  C   UNL     1      -1.791  12.823  22.329  0.00  0.00    +0.000 C 
ATOM     26  C   UNL     1      -0.991  13.865  23.140  0.00  0.00    +0.000 C 
ATOM     27  C   UNL     1      -2.874  13.575  21.525  0.00  0.00    +0.000 C 
ATOM     28  C   UNL     1      -2.485  11.872  23.323  0.00  0.00    +0.000 C 
ENDBRANCH   8  25
BRANCH   1  29
ATOM     29  C   UNL     1       1.881  12.545  17.980  0.00  0.00    +0.000 C 
BRANCH  29  30
ATOM     30  C   UNL     1       2.873  13.503  18.658  0.00  0.00    +0.000 C 
BRANCH  30  31
ATOM     31  C   UNL     1       2.747  14.962  18.217  0.00  0.00    +0.000 C 
BRANCH  31  33
ATOM     32  C   UNL     1       0.480  15.915  18.815  0.00  0.00    +0.000 C 
ATOM     33  C   UNL     1       1.930  15.761  19.238  0.00  0.00    +0.000 C 
ENDBRANCH  31  33
ENDBRANCH  30  31
ENDBRANCH  29  30
ENDBRANCH   1  29
TORSDOF 7
ENDMDL
MODEL 8
REMARK VINA RESULT:      -7.5      2.197      9.465
REMARK  Name = 
REMARK  11 active torsions:
REMARK  status: ('A' for Active; 'I' for Inactive)
REMARK    1  A    between atoms: C_1  and  C_2
REMARK    2  A    between atoms: C_2  and  C_3
REMARK    3  A    between atoms: C_3  and  C_4
REMARK    4  A    between atoms: C_4  and  C_5
REMARK    5  A    between atoms: C_5  and  N_6
REMARK    6  A    between atoms: C_8  and  C_9
REMARK    7  A    between atoms: N_11  and  C_12
REMARK    8  A    between atoms: C_26  and  C_27
REMARK    9  A    between atoms: C_27  and  C_28
REMARK   10  A    between atoms: C_27  and  C_29
REMARK   11  A    between atoms: C_27  and  C_30
REMARK                            x       y       z     vdW  Elec       q    Type
REMARK                         _______ _______ _______ _____ _____    ______ ____
ROOT
ATOM      1  N   UNL     1       1.450  11.554  18.960  0.00  0.00    +0.000 N 
ATOM      2  C   UNL     1       1.941  10.275  18.690  0.00  0.00    +0.000 A 
ATOM      3  C   UNL     1       1.601   9.147  19.351  0.00  0.00    +0.000 A 
ATOM      4  C   UNL     1       0.669   9.274  20.500  0.00  0.00    +0.000 A 
ATOM      5  O   UNL     1       0.355   8.345  21.237  0.00  0.00    +0.000 OA
ATOM      6  N   UNL     1       0.144  10.566  20.671  0.00  0.00    +0.000 N 
ATOM      7  N   UNL     1      -0.745  10.870  21.654  0.00  0.00    +0.000 NA
ATOM      8  C   UNL     1      -1.041  12.162  21.457  0.00  0.00    +0.000 A 
ATOM      9  C   UNL     1      -0.365  12.681  20.324  0.00  0.00    +0.000 A 
ATOM     10  C   UNL     1       0.467  11.671  19.904  0.00  0.00    +0.000 A 
ENDROOT
BRANCH   3  11
ATOM     11  C   UNL     1       2.148   7.843  18.873  0.00  0.00    +0.000 C 
ATOM     12  O   UNL     1       2.784   7.790  17.821  0.00  0.00    +0.000 OA
ATOM     13  N   UNL     1       1.881   6.737  19.653  0.00  0.00    +0.000 N 
ATOM     14  H   UNL     1       1.393   6.885  20.538  0.00  0.00    +0.000 HD
BRANCH  13  15
ATOM     15  C   UNL     1       2.323   5.364  19.338  0.00  0.00    +0.000 C 
ATOM     16  C   UNL     1       3.857   5.230  19.495  0.00  0.00    +0.000 C 
ATOM     17  C   UNL     1       4.321   3.799  19.184  0.00  0.00    +0.000 C 
ATOM     18  C   UNL     1       3.649   2.827  20.164  0.00  0.00    +0.000 C 
ATOM     19  C   UNL     1       2.122   2.906  20.014  0.00  0.00    +0.000 C 
ATOM     20  C   UNL     1       1.731   2.535  18.575  0.00  0.00    +0.000 C 
ATOM     21  C   UNL     1       2.388   3.513  17.589  0.00  0.00    +0.000 C 
ATOM     22  C   UNL     1       3.915   3.432  17.746  0.00  0.00    +0.000 C 
ATOM     23  C   UNL     1       1.919   4.948  17.898  0.00  0.00    +0.000 C 
ATOM     24  C   UNL     1       1.654   4.347  20.311  0.00  0.00    +0.000 C 
ENDBRANCH  13  15
ENDBRANCH   3  11
BRANCH   8  25
ATOM     25  C   UNL     1      -1.950  12.924  22.409  0.00  0.00    +0.000 C 
ATOM     26  C   UNL     1      -2.727  11.978  23.350  0.00  0.00    +0.000 C 
ATOM     27  C   UNL     1      -1.098  13.870  23.282  0.00  0.00    +0.000 C 
ATOM     28  C   UNL     1      -2.973  13.765  21.622  0.00  0.00    +0.000 C 
ENDBRANCH   8  25
BRANCH   1  29
ATOM     29  C   UNL     1       1.867  12.738  18.181  0.00  0.00    +0.000 C 
BRANCH  29  30
ATOM     30  C   UNL     1       2.835  13.667  18.929  0.00  0.00    +0.000 C 
BRANCH  30  31
ATOM     31  C   UNL     1       3.665  14.579  18.024  0.00  0.00    +0.000 C 
BRANCH  31  33
ATOM     32  C   UNL     1       2.909  16.867  17.250  0.00  0.00    +0.000 C 
ATOM     33  C   UNL     1       3.456  16.048  18.407  0.00  0.00    +0.000 C 
ENDBRANCH  31  33
ENDBRANCH  30  31
ENDBRANCH  29  30
ENDBRANCH   1  29
TORSDOF 7
ENDMDL
MODEL 9
REMARK VINA RESULT:      -7.5      2.203      9.455
REMARK  Name = 
REMARK  11 active torsions:
REMARK  status: ('A' for Active; 'I' for Inactive)
REMARK    1  A    between atoms: C_1  and  C_2
REMARK    2  A    between atoms: C_2  and  C_3
REMARK    3  A    between atoms: C_3  and  C_4
REMARK    4  A    between atoms: C_4  and  C_5
REMARK    5  A    between atoms: C_5  and  N_6
REMARK    6  A    between atoms: C_8  and  C_9
REMARK    7  A    between atoms: N_11  and  C_12
REMARK    8  A    between atoms: C_26  and  C_27
REMARK    9  A    between atoms: C_27  and  C_28
REMARK   10  A    between atoms: C_27  and  C_29
REMARK   11  A    between atoms: C_27  and  C_30
REMARK                            x       y       z     vdW  Elec       q    Type
REMARK                         _______ _______ _______ _____ _____    ______ ____
ROOT
ATOM      1  N   UNL     1       1.365  11.507  18.839  0.00  0.00    +0.000 N 
ATOM      2  C   UNL     1       1.883  10.237  18.580  0.00  0.00    +0.000 A 
ATOM      3  C   UNL     1       1.610   9.119  19.287  0.00  0.00    +0.000 A 
ATOM      4  C   UNL     1       0.732   9.250  20.477  0.00  0.00    +0.000 A 
ATOM      5  O   UNL     1       0.484   8.334  21.254  0.00  0.00    +0.000 OA
ATOM      6  N   UNL     1       0.175  10.530  20.638  0.00  0.00    +0.000 N 
ATOM      7  N   UNL     1      -0.674  10.835  21.656  0.00  0.00    +0.000 NA
ATOM      8  C   UNL     1      -1.019  12.111  21.439  0.00  0.00    +0.000 A 
ATOM      9  C   UNL     1      -0.416  12.618  20.259  0.00  0.00    +0.000 A 
ATOM     10  C   UNL     1       0.425  11.622  19.826  0.00  0.00    +0.000 A 
ENDROOT
BRANCH   3  11
ATOM     11  C   UNL     1       2.174   7.818  18.819  0.00  0.00    +0.000 C 
ATOM     12  O   UNL     1       2.788   7.761  17.754  0.00  0.00    +0.000 OA
ATOM     13  N   UNL     1       1.949   6.720  19.622  0.00  0.00    +0.000 N 
ATOM     14  H   UNL     1       1.477   6.872  20.515  0.00  0.00    +0.000 HD
BRANCH  13  15
ATOM     15  C   UNL     1       2.412   5.351  19.320  0.00  0.00    +0.000 C 
ATOM     16  C   UNL     1       1.772   4.327  20.289  0.00  0.00    +0.000 C 
ATOM     17  C   UNL     1       2.239   2.899  19.970  0.00  0.00    +0.000 C 
ATOM     18  C   UNL     1       1.816   2.539  18.538  0.00  0.00    +0.000 C 
ATOM     19  C   UNL     1       2.460   3.515  17.541  0.00  0.00    +0.000 C 
ATOM     20  C   UNL     1       3.989   3.430  17.661  0.00  0.00    +0.000 C 
ATOM     21  C   UNL     1       4.422   3.804  19.086  0.00  0.00    +0.000 C 
ATOM     22  C   UNL     1       3.771   2.826  20.079  0.00  0.00    +0.000 C 
ATOM     23  C   UNL     1       3.958   5.238  19.405  0.00  0.00    +0.000 C 
ATOM     24  C   UNL     1       2.005   4.953  17.869  0.00  0.00    +0.000 C 
ENDBRANCH  13  15
ENDBRANCH   3  11
BRANCH   8  25
ATOM     25  C   UNL     1      -1.905  12.873  22.413  0.00  0.00    +0.000 C 
ATOM     26  C   UNL     1      -1.101  13.884  23.258  0.00  0.00    +0.000 C 
ATOM     27  C   UNL     1      -2.977  13.656  21.625  0.00  0.00    +0.000 C 
ATOM     28  C   UNL     1      -2.612  11.899  23.375  0.00  0.00    +0.000 C 
ENDBRANCH   8  25
BRANCH   1  29
ATOM     29  C   UNL     1       1.706  12.681  18.009  0.00  0.00    +0.000 C 
BRANCH  29  30
ATOM     30  C   UNL     1       2.828  13.553  18.592  0.00  0.00    +0.000 C 
BRANCH  30  31
ATOM     31  C   UNL     1       2.574  15.058  18.499  0.00  0.00    +0.000 C 
BRANCH  31  33
ATOM     32  C   UNL     1       4.687  16.451  18.483  0.00  0.00    +0.000 C 
ATOM     33  C   UNL     1       3.650  15.730  17.639  0.00  0.00    +0.000 C 
ENDBRANCH  31  33
ENDBRANCH  30  31
ENDBRANCH  29  30
ENDBRANCH   1  29
TORSDOF 7
ENDMDL
