MODEL 1
REMARK VINA RESULT:      -6.5      0.000      0.000
REMARK  Name = 
REMARK  7 active torsions:
REMARK  status: ('A' for Active; 'I' for Inactive)
REMARK    1  A    between atoms: C_1  and  C_2
REMARK    2  A    between atoms: C_2  and  O_3
REMARK    3  A    between atoms: C_2  and  C_4
REMARK    4  A    between atoms: C_4  and  N_5
REMARK    5  A    between atoms: C_9  and  C_11
REMARK    6  A    between atoms: N_15  and  C_16
REMARK    7  A    between atoms: N_15  and  C_17
REMARK                            x       y       z     vdW  Elec       q    Type
REMARK                         _______ _______ _______ _____ _____    ______ ____
ROOT
ATOM      1  N   UNL     1       3.178   3.901  19.234  0.00  0.00    +0.000 NA
ATOM      2  C   UNL     1       4.175   3.058  18.531  0.00  0.00    +0.000 C 
ATOM      3  C   UNL     1       4.776   3.700  17.269  0.00  0.00    +0.000 C 
ATOM      4  N   UNL     1       5.321   5.023  17.577  0.00  0.00    +0.000 N 
ATOM      5  C   UNL     1       6.593   5.348  17.117  0.00  0.00    +0.000 C 
ATOM      6  O   UNL     1       7.213   4.623  16.333  0.00  0.00    +0.000 OA
ATOM      7  C   UNL     1       4.380   5.915  18.272  0.00  0.00    +0.000 C 
ATOM      8  C   UNL     1       3.791   5.222  19.517  0.00  0.00    +0.000 C 
ENDROOT
BRANCH   5   9
ATOM      9  C   UNL     1       7.263   6.594  17.564  0.00  0.00    +0.000 A 
ATOM     10  C   UNL     1       7.998   6.609  18.729  0.00  0.00    +0.000 A 
ATOM     11  C   UNL     1       8.586   7.814  19.124  0.00  0.00    +0.000 A 
ATOM     12  C   UNL     1       8.429   8.971  18.366  0.00  0.00    +0.000 A 
ATOM     13  N   UNL     1       9.011  10.179  18.692  0.00  0.00    +0.000 N 
ATOM     14  C   UNL     1       8.769  11.330  17.828  0.00  0.00    +0.000 C 
ATOM     15  C   UNL     1       9.702  10.460  19.938  0.00  0.00    +0.000 C 
ATOM     16  N   UNL     1       7.683   8.883  17.240  0.00  0.00    +0.000 NA
ATOM     17  N   UNL     1       7.076   7.709  16.844  0.00  0.00    +0.000 NA
ENDBRANCH   5   9
BRANCH   1  18
ATOM     18  C   UNL     1       1.925   4.051  18.474  0.00  0.00    +0.000 C 
BRANCH  18  20
ATOM     19  C   UNL     1       0.766   1.829  18.910  0.00  0.00    +0.000 C 
ATOM     20  C   UNL     1       0.702   3.337  19.092  0.00  0.00    +0.000 C 
BRANCH  20  21
ATOM     21  O   UNL     1       0.618   3.647  20.483  0.00  0.00    +0.000 OA
ATOM     22  H   UNL     1       1.059   4.501  20.631  0.00  0.00    +0.000 HD
ENDBRANCH  20  21
ENDBRANCH  18  20
ENDBRANCH   1  18
TORSDOF 4
ENDMDL
MODEL 2
REMARK VINA RESULT:      -6.1      4.539      6.211
REMARK  Name = 
REMARK  7 active torsions:
REMARK  status: ('A' for Active; 'I' for Inactive)
REMARK    1  A    between atoms: C_1  and  C_2
REMARK    2  A    between atoms: C_2  and  O_3
REMARK    3  A    between atoms: C_2  and  C_4
REMARK    4  A    between atoms: C_4  and  N_5
REMARK    5  A    between atoms: C_9  and  C_11
REMARK    6  A    between atoms: N_15  and  C_16
REMARK    7  A    between atoms: N_15  and  C_17
REMARK                            x       y       z     vdW  Elec       q    Type
REMARK                         _______ _______ _______ _____ _____    ______ ____
ROOT
ATOM      1  N   UNL     1       4.543   4.194  18.814  0.00  0.00    +0.000 NA
ATOM      2  C   UNL     1       5.097   5.259  17.942  0.00  0.00    +0.000 C 
ATOM      3  C   UNL     1       4.038   6.069  17.174  0.00  0.00    +0.000 C 
ATOM      4  N   UNL     1       3.035   6.604  18.096  0.00  0.00    +0.000 N 
ATOM      5  C   UNL     1       2.670   7.943  17.987  0.00  0.00    +0.000 C 
ATOM      6  O   UNL     1       3.046   8.651  17.049  0.00  0.00    +0.000 OA
ATOM      7  C   UNL     1       2.439   5.599  18.989  0.00  0.00    +0.000 C 
ATOM      8  C   UNL     1       3.537   4.801  19.721  0.00  0.00    +0.000 C 
ENDROOT
BRANCH   5   9
ATOM      9  C   UNL     1       1.808   8.577  19.015  0.00  0.00    +0.000 A 
ATOM     10  C   UNL     1       1.022   9.661  18.692  0.00  0.00    +0.000 A 
ATOM     11  C   UNL     1       0.250  10.242  19.701  0.00  0.00    +0.000 A 
ATOM     12  C   UNL     1       0.276   9.744  21.001  0.00  0.00    +0.000 A 
ATOM     13  N   UNL     1      -0.488  10.259  22.028  0.00  0.00    +0.000 N 
ATOM     14  C   UNL     1      -0.371   9.663  23.356  0.00  0.00    +0.000 C 
ATOM     15  C   UNL     1      -1.272  11.478  21.951  0.00  0.00    +0.000 C 
ATOM     16  N   UNL     1       1.081   8.684  21.247  0.00  0.00    +0.000 NA
ATOM     17  N   UNL     1       1.869   8.110  20.270  0.00  0.00    +0.000 NA
ENDBRANCH   5   9
BRANCH   1  18
ATOM     18  C   UNL     1       3.960   3.080  18.047  0.00  0.00    +0.000 C 
BRANCH  18  20
ATOM     19  C   UNL     1       1.903   1.830  18.872  0.00  0.00    +0.000 C 
ATOM     20  C   UNL     1       3.420   1.914  18.906  0.00  0.00    +0.000 C 
BRANCH  20  21
ATOM     21  O   UNL     1       3.978   0.682  18.448  0.00  0.00    +0.000 OA
ATOM     22  H   UNL     1       3.576   0.468  17.589  0.00  0.00    +0.000 HD
ENDBRANCH  20  21
ENDBRANCH  18  20
ENDBRANCH   1  18
TORSDOF 4
ENDMDL
MODEL 3
REMARK VINA RESULT:      -6.1      4.044      6.352
REMARK  Name = 
REMARK  7 active torsions:
REMARK  status: ('A' for Active; 'I' for Inactive)
REMARK    1  A    between atoms: C_1  and  C_2
REMARK    2  A    between atoms: C_2  and  O_3
REMARK    3  A    between atoms: C_2  and  C_4
REMARK    4  A    between atoms: C_4  and  N_5
REMARK    5  A    between atoms: C_9  and  C_11
REMARK    6  A    between atoms: N_15  and  C_16
REMARK    7  A    between atoms: N_15  and  C_17
REMARK                            x       y       z     vdW  Elec       q    Type
REMARK                         _______ _______ _______ _____ _____    ______ ____
ROOT
ATOM      1  N   UNL     1       4.613   4.680  16.688  0.00  0.00    +0.000 NA
ATOM      2  C   UNL     1       3.685   3.819  17.461  0.00  0.00    +0.000 C 
ATOM      3  C   UNL     1       3.607   4.152  18.962  0.00  0.00    +0.000 C 
ATOM      4  N   UNL     1       3.303   5.571  19.156  0.00  0.00    +0.000 N 
ATOM      5  C   UNL     1       2.308   5.927  20.061  0.00  0.00    +0.000 C 
ATOM      6  O   UNL     1       1.781   5.103  20.814  0.00  0.00    +0.000 OA
ATOM      7  C   UNL     1       4.191   6.484  18.419  0.00  0.00    +0.000 C 
ATOM      8  C   UNL     1       4.252   6.099  16.927  0.00  0.00    +0.000 C 
ENDROOT
BRANCH   5   9
ATOM      9  C   UNL     1       1.833   7.329  20.149  0.00  0.00    +0.000 A 
ATOM     10  C   UNL     1       1.342   7.825  21.337  0.00  0.00    +0.000 A 
ATOM     11  C   UNL     1       0.879   9.143  21.362  0.00  0.00    +0.000 A 
ATOM     12  C   UNL     1       0.907   9.935  20.218  0.00  0.00    +0.000 A 
ATOM     13  N   UNL     1       0.492  11.251  20.194  0.00  0.00    +0.000 N 
ATOM     14  C   UNL     1       0.556  11.984  18.933  0.00  0.00    +0.000 C 
ATOM     15  C   UNL     1      -0.188  11.929  21.283  0.00  0.00    +0.000 C 
ATOM     16  N   UNL     1       1.392   9.377  19.085  0.00  0.00    +0.000 NA
ATOM     17  N   UNL     1       1.833   8.071  19.032  0.00  0.00    +0.000 NA
ENDBRANCH   5   9
BRANCH   1  18
ATOM     18  C   UNL     1       6.027   4.431  17.019  0.00  0.00    +0.000 C 
BRANCH  18  20
ATOM     19  C   UNL     1       6.345   4.013  14.530  0.00  0.00    +0.000 C 
ATOM     20  C   UNL     1       6.995   4.495  15.817  0.00  0.00    +0.000 C 
BRANCH  20  21
ATOM     21  O   UNL     1       7.459   5.834  15.646  0.00  0.00    +0.000 OA
ATOM     22  H   UNL     1       8.319   5.802  15.192  0.00  0.00    +0.000 HD
ENDBRANCH  20  21
ENDBRANCH  18  20
ENDBRANCH   1  18
TORSDOF 4
ENDMDL
MODEL 4
REMARK VINA RESULT:      -6.1      1.237      1.338
REMARK  Name = 
REMARK  7 active torsions:
REMARK  status: ('A' for Active; 'I' for Inactive)
REMARK    1  A    between atoms: C_1  and  C_2
REMARK    2  A    between atoms: C_2  and  O_3
REMARK    3  A    between atoms: C_2  and  C_4
REMARK    4  A    between atoms: C_4  and  N_5
REMARK    5  A    between atoms: C_9  and  C_11
REMARK    6  A    between atoms: N_15  and  C_16
REMARK    7  A    between atoms: N_15  and  C_17
REMARK                            x       y       z     vdW  Elec       q    Type
REMARK                         _______ _______ _______ _____ _____    ______ ____
ROOT
ATOM      1  N   UNL     1       3.266   2.560  19.529  0.00  0.00    +0.000 NA
ATOM      2  C   UNL     1       4.050   1.896  18.459  0.00  0.00    +0.000 C 
ATOM      3  C   UNL     1       4.231   2.739  17.185  0.00  0.00    +0.000 C 
ATOM      4  N   UNL     1       4.788   4.052  17.514  0.00  0.00    +0.000 N 
ATOM      5  C   UNL     1       5.858   4.535  16.767  0.00  0.00    +0.000 C 
ATOM      6  O   UNL     1       6.252   3.967  15.744  0.00  0.00    +0.000 OA
ATOM      7  C   UNL     1       4.054   4.770  18.568  0.00  0.00    +0.000 C 
ATOM      8  C   UNL     1       3.880   3.880  19.815  0.00  0.00    +0.000 C 
ENDROOT
BRANCH   5   9
ATOM      9  C   UNL     1       6.577   5.763  17.183  0.00  0.00    +0.000 A 
ATOM     10  C   UNL     1       7.470   5.726  18.230  0.00  0.00    +0.000 A 
ATOM     11  C   UNL     1       8.101   6.916  18.604  0.00  0.00    +0.000 A 
ATOM     12  C   UNL     1       7.832   8.110  17.941  0.00  0.00    +0.000 A 
ATOM     13  N   UNL     1       8.448   9.306  18.247  0.00  0.00    +0.000 N 
ATOM     14  C   UNL     1       8.078  10.499  17.491  0.00  0.00    +0.000 C 
ATOM     15  C   UNL     1       9.307   9.528  19.395  0.00  0.00    +0.000 C 
ATOM     16  N   UNL     1       6.933   8.072  16.929  0.00  0.00    +0.000 NA
ATOM     17  N   UNL     1       6.283   6.913  16.559  0.00  0.00    +0.000 NA
ENDBRANCH   5   9
BRANCH   1  18
ATOM     18  C   UNL     1       1.841   2.704  19.183  0.00  0.00    +0.000 C 
BRANCH  18  20
ATOM     19  C   UNL     1       1.457   2.624  21.696  0.00  0.00    +0.000 C 
ATOM     20  C   UNL     1       0.927   3.115  20.358  0.00  0.00    +0.000 C 
BRANCH  20  21
ATOM     21  O   UNL     1       0.795   4.536  20.389  0.00  0.00    +0.000 OA
ATOM     22  H   UNL     1       1.279   4.903  19.630  0.00  0.00    +0.000 HD
ENDBRANCH  20  21
ENDBRANCH  18  20
ENDBRANCH   1  18
TORSDOF 4
ENDMDL
MODEL 5
REMARK VINA RESULT:      -6.0      4.127      6.399
REMARK  Name = 
REMARK  7 active torsions:
REMARK  status: ('A' for Active; 'I' for Inactive)
REMARK    1  A    between atoms: C_1  and  C_2
REMARK    2  A    between atoms: C_2  and  O_3
REMARK    3  A    between atoms: C_2  and  C_4
REMARK    4  A    between atoms: C_4  and  N_5
REMARK    5  A    between atoms: C_9  and  C_11
REMARK    6  A    between atoms: N_15  and  C_16
REMARK    7  A    between atoms: N_15  and  C_17
REMARK                            x       y       z     vdW  Elec       q    Type
REMARK                         _______ _______ _______ _____ _____    ______ ____
ROOT
ATOM      1  N   UNL     1       4.704   4.643  16.667  0.00  0.00    +0.000 NA
ATOM      2  C   UNL     1       3.791   3.856  17.532  0.00  0.00    +0.000 C 
ATOM      3  C   UNL     1       3.708   4.350  18.987  0.00  0.00    +0.000 C 
ATOM      4  N   UNL     1       3.379   5.776  19.025  0.00  0.00    +0.000 N 
ATOM      5  C   UNL     1       2.378   6.211  19.888  0.00  0.00    +0.000 C 
ATOM      6  O   UNL     1       1.866   5.466  20.728  0.00  0.00    +0.000 OA
ATOM      7  C   UNL     1       4.250   6.618  18.190  0.00  0.00    +0.000 C 
ATOM      8  C   UNL     1       4.317   6.073  16.749  0.00  0.00    +0.000 C 
ENDROOT
BRANCH   5   9
ATOM      9  C   UNL     1       1.877   7.606  19.822  0.00  0.00    +0.000 A 
ATOM     10  C   UNL     1       1.877   8.290  18.627  0.00  0.00    +0.000 A 
ATOM     11  C   UNL     1       1.423   9.612  18.622  0.00  0.00    +0.000 A 
ATOM     12  C   UNL     1       0.988  10.226  19.793  0.00  0.00    +0.000 A 
ATOM     13  N   UNL     1       0.502  11.516  19.840  0.00  0.00    +0.000 N 
ATOM     14  C   UNL     1       0.082  12.061  21.128  0.00  0.00    +0.000 C 
ATOM     15  C   UNL     1       0.543  12.461  18.740  0.00  0.00    +0.000 C 
ATOM     16  N   UNL     1       1.028   9.495  20.932  0.00  0.00    +0.000 NA
ATOM     17  N   UNL     1       1.493   8.197  20.963  0.00  0.00    +0.000 NA
ENDBRANCH   5   9
BRANCH   1  18
ATOM     18  C   UNL     1       6.122   4.457  17.020  0.00  0.00    +0.000 C 
BRANCH  18  20
ATOM     19  C   UNL     1       6.448   4.085  14.525  0.00  0.00    +0.000 C 
ATOM     20  C   UNL     1       7.101   4.521  15.827  0.00  0.00    +0.000 C 
BRANCH  20  21
ATOM     21  O   UNL     1       7.601   5.852  15.688  0.00  0.00    +0.000 OA
ATOM     22  H   UNL     1       7.235   6.230  14.870  0.00  0.00    +0.000 HD
ENDBRANCH  20  21
ENDBRANCH  18  20
ENDBRANCH   1  18
TORSDOF 4
ENDMDL
MODEL 6
REMARK VINA RESULT:      -5.9      1.382      1.692
REMARK  Name = 
REMARK  7 active torsions:
REMARK  status: ('A' for Active; 'I' for Inactive)
REMARK    1  A    between atoms: C_1  and  C_2
REMARK    2  A    between atoms: C_2  and  O_3
REMARK    3  A    between atoms: C_2  and  C_4
REMARK    4  A    between atoms: C_4  and  N_5
REMARK    5  A    between atoms: C_9  and  C_11
REMARK    6  A    between atoms: N_15  and  C_16
REMARK    7  A    between atoms: N_15  and  C_17
REMARK                            x       y       z     vdW  Elec       q    Type
REMARK                         _______ _______ _______ _____ _____    ______ ____
ROOT
ATOM      1  N   UNL     1       3.475   4.107  19.663  0.00  0.00    +0.000 NA
ATOM      2  C   UNL     1       4.656   3.253  19.387  0.00  0.00    +0.000 C 
ATOM      3  C   UNL     1       5.430   3.630  18.111  0.00  0.00    +0.000 C 
ATOM      4  N   UNL     1       5.791   5.048  18.131  0.00  0.00    +0.000 N 
ATOM      5  C   UNL     1       7.095   5.413  17.812  0.00  0.00    +0.000 C 
ATOM      6  O   UNL     1       7.913   4.603  17.365  0.00  0.00    +0.000 OA
ATOM      7  C   UNL     1       4.662   5.953  18.396  0.00  0.00    +0.000 C 
ATOM      8  C   UNL     1       3.908   5.526  19.671  0.00  0.00    +0.000 C 
ENDROOT
BRANCH   5   9
ATOM      9  C   UNL     1       7.558   6.809  18.005  0.00  0.00    +0.000 A 
ATOM     10  C   UNL     1       7.153   7.803  17.142  0.00  0.00    +0.000 A 
ATOM     11  C   UNL     1       7.639   9.097  17.348  0.00  0.00    +0.000 A 
ATOM     12  C   UNL     1       8.514   9.376  18.394  0.00  0.00    +0.000 A 
ATOM     13  N   UNL     1       9.000  10.639  18.662  0.00  0.00    +0.000 N 
ATOM     14  C   UNL     1       9.922  10.813  19.781  0.00  0.00    +0.000 C 
ATOM     15  C   UNL     1       8.822  11.798  17.806  0.00  0.00    +0.000 C 
ATOM     16  N   UNL     1       8.878   8.347  19.195  0.00  0.00    +0.000 NA
ATOM     17  N   UNL     1       8.427   7.058  18.995  0.00  0.00    +0.000 NA
ENDBRANCH   5   9
BRANCH   1  18
ATOM     18  C   UNL     1       2.382   3.892  18.699  0.00  0.00    +0.000 C 
BRANCH  18  20
ATOM     19  C   UNL     1       0.398   2.311  18.895  0.00  0.00    +0.000 C 
ATOM     20  C   UNL     1       1.884   2.433  18.597  0.00  0.00    +0.000 C 
BRANCH  20  21
ATOM     21  O   UNL     1       2.153   1.925  17.290  0.00  0.00    +0.000 OA
ATOM     22  H   UNL     1       1.722   1.057  17.208  0.00  0.00    +0.000 HD
ENDBRANCH  20  21
ENDBRANCH  18  20
ENDBRANCH   1  18
TORSDOF 4
ENDMDL
MODEL 7
REMARK VINA RESULT:      -5.9      5.315      7.747
REMARK  Name = 
REMARK  7 active torsions:
REMARK  status: ('A' for Active; 'I' for Inactive)
REMARK    1  A    between atoms: C_1  and  C_2
REMARK    2  A    between atoms: C_2  and  O_3
REMARK    3  A    between atoms: C_2  and  C_4
REMARK    4  A    between atoms: C_4  and  N_5
REMARK    5  A    between atoms: C_9  and  C_11
REMARK    6  A    between atoms: N_15  and  C_16
REMARK    7  A    between atoms: N_15  and  C_17
REMARK                            x       y       z     vdW  Elec       q    Type
REMARK                         _______ _______ _______ _____ _____    ______ ____
ROOT
ATOM      1  N   UNL     1      -0.609   9.986  20.943  0.00  0.00    +0.000 NA
ATOM      2  C   UNL     1      -0.362  10.361  19.529  0.00  0.00    +0.000 C 
ATOM      3  C   UNL     1       1.095  10.184  19.068  0.00  0.00    +0.000 C 
ATOM      4  N   UNL     1       1.559   8.824  19.346  0.00  0.00    +0.000 N 
ATOM      5  C   UNL     1       2.223   8.123  18.345  0.00  0.00    +0.000 C 
ATOM      6  O   UNL     1       2.569   8.658  17.288  0.00  0.00    +0.000 OA
ATOM      7  C   UNL     1       1.348   8.388  20.736  0.00  0.00    +0.000 C 
ATOM      8  C   UNL     1      -0.119   8.602  21.158  0.00  0.00    +0.000 C 
ENDROOT
BRANCH   5   9
ATOM      9  C   UNL     1       2.538   6.683  18.512  0.00  0.00    +0.000 A 
ATOM     10  C   UNL     1       1.838   5.730  17.805  0.00  0.00    +0.000 A 
ATOM     11  C   UNL     1       2.151   4.385  18.019  0.00  0.00    +0.000 A 
ATOM     12  C   UNL     1       3.141   4.014  18.925  0.00  0.00    +0.000 A 
ATOM     13  N   UNL     1       3.511   2.705  19.151  0.00  0.00    +0.000 N 
ATOM     14  C   UNL     1       4.557   2.432  20.134  0.00  0.00    +0.000 C 
ATOM     15  C   UNL     1       2.818   1.541  18.630  0.00  0.00    +0.000 C 
ATOM     16  N   UNL     1       3.779   5.004  19.591  0.00  0.00    +0.000 NA
ATOM     17  N   UNL     1       3.469   6.337  19.412  0.00  0.00    +0.000 NA
ENDBRANCH   5   9
BRANCH   1  18
ATOM     18  C   UNL     1       0.014  10.922  21.895  0.00  0.00    +0.000 C 
BRANCH  18  20
ATOM     19  C   UNL     1      -1.910  11.983  23.177  0.00  0.00    +0.000 C 
ATOM     20  C   UNL     1      -0.798  12.208  22.165  0.00  0.00    +0.000 C 
BRANCH  20  21
ATOM     21  O   UNL     1       0.075  13.237  22.633  0.00  0.00    +0.000 OA
ATOM     22  H   UNL     1      -0.336  13.652  23.411  0.00  0.00    +0.000 HD
ENDBRANCH  20  21
ENDBRANCH  18  20
ENDBRANCH   1  18
TORSDOF 4
ENDMDL
MODEL 8
REMARK VINA RESULT:      -5.9      3.500      4.509
REMARK  Name = 
REMARK  7 active torsions:
REMARK  status: ('A' for Active; 'I' for Inactive)
REMARK    1  A    between atoms: C_1  and  C_2
REMARK    2  A    between atoms: C_2  and  O_3
REMARK    3  A    between atoms: C_2  and  C_4
REMARK    4  A    between atoms: C_4  and  N_5
REMARK    5  A    between atoms: C_9  and  C_11
REMARK    6  A    between atoms: N_15  and  C_16
REMARK    7  A    between atoms: N_15  and  C_17
REMARK                            x       y       z     vdW  Elec       q    Type
REMARK                         _______ _______ _______ _____ _____    ______ ____
ROOT
ATOM      1  N   UNL     1       1.707   5.044  19.191  0.00  0.00    +0.000 NA
ATOM      2  C   UNL     1       2.873   5.337  20.060  0.00  0.00    +0.000 C 
ATOM      3  C   UNL     1       4.061   4.377  19.877  0.00  0.00    +0.000 C 
ATOM      4  N   UNL     1       4.452   4.308  18.468  0.00  0.00    +0.000 N 
ATOM      5  C   UNL     1       5.799   4.420  18.139  0.00  0.00    +0.000 C 
ATOM      6  O   UNL     1       6.687   4.421  18.997  0.00  0.00    +0.000 OA
ATOM      7  C   UNL     1       3.341   4.015  17.549  0.00  0.00    +0.000 C 
ATOM      8  C   UNL     1       2.169   4.989  17.782  0.00  0.00    +0.000 C 
ENDROOT
BRANCH   5   9
ATOM      9  C   UNL     1       6.223   4.550  16.723  0.00  0.00    +0.000 A 
ATOM     10  C   UNL     1       5.656   3.756  15.751  0.00  0.00    +0.000 A 
ATOM     11  C   UNL     1       6.109   3.895  14.436  0.00  0.00    +0.000 A 
ATOM     12  C   UNL     1       7.110   4.808  14.115  0.00  0.00    +0.000 A 
ATOM     13  N   UNL     1       7.572   5.009  12.831  0.00  0.00    +0.000 N 
ATOM     14  C   UNL     1       8.635   5.986  12.613  0.00  0.00    +0.000 C 
ATOM     15  C   UNL     1       7.224   4.190  11.684  0.00  0.00    +0.000 C 
ATOM     16  N   UNL     1       7.628   5.546  15.125  0.00  0.00    +0.000 NA
ATOM     17  N   UNL     1       7.211   5.408  16.433  0.00  0.00    +0.000 NA
ENDBRANCH   5   9
BRANCH   1  18
ATOM     18  C   UNL     1       1.015   3.800  19.570  0.00  0.00    +0.000 C 
BRANCH  18  20
ATOM     19  C   UNL     1       1.464   2.468  21.691  0.00  0.00    +0.000 C 
ATOM     20  C   UNL     1       1.909   2.747  20.264  0.00  0.00    +0.000 C 
BRANCH  20  21
ATOM     21  O   UNL     1       1.893   1.534  19.512  0.00  0.00    +0.000 OA
ATOM     22  H   UNL     1       2.543   0.925  19.903  0.00  0.00    +0.000 HD
ENDBRANCH  20  21
ENDBRANCH  18  20
ENDBRANCH   1  18
TORSDOF 4
ENDMDL
MODEL 9
REMARK VINA RESULT:      -5.8      4.862      6.347
REMARK  Name = 
REMARK  7 active torsions:
REMARK  status: ('A' for Active; 'I' for Inactive)
REMARK    1  A    between atoms: C_1  and  C_2
REMARK    2  A    between atoms: C_2  and  O_3
REMARK    3  A    between atoms: C_2  and  C_4
REMARK    4  A    between atoms: C_4  and  N_5
REMARK    5  A    between atoms: C_9  and  C_11
REMARK    6  A    between atoms: N_15  and  C_16
REMARK    7  A    between atoms: N_15  and  C_17
REMARK                            x       y       z     vdW  Elec       q    Type
REMARK                         _______ _______ _______ _____ _____    ______ ____
ROOT
ATOM      1  N   UNL     1       4.876   4.869  18.877  0.00  0.00    +0.000 NA
ATOM      2  C   UNL     1       5.204   5.917  17.879  0.00  0.00    +0.000 C 
ATOM      3  C   UNL     1       3.980   6.536  17.181  0.00  0.00    +0.000 C 
ATOM      4  N   UNL     1       3.020   7.026  18.170  0.00  0.00    +0.000 N 
ATOM      5  C   UNL     1       2.485   8.301  18.013  0.00  0.00    +0.000 C 
ATOM      6  O   UNL     1       2.673   8.970  16.993  0.00  0.00    +0.000 OA
ATOM      7  C   UNL     1       2.647   6.034  19.190  0.00  0.00    +0.000 C 
ATOM      8  C   UNL     1       3.903   5.428  19.847  0.00  0.00    +0.000 C 
ENDROOT
BRANCH   5   9
ATOM      9  C   UNL     1       1.663   8.914  19.085  0.00  0.00    +0.000 A 
ATOM     10  C   UNL     1       1.624   8.349  20.341  0.00  0.00    +0.000 A 
ATOM     11  C   UNL     1       0.811   8.945  21.309  0.00  0.00    +0.000 A 
ATOM     12  C   UNL     1       0.056  10.077  21.014  0.00  0.00    +0.000 A 
ATOM     13  N   UNL     1      -0.737  10.724  21.939  0.00  0.00    +0.000 N 
ATOM     14  C   UNL     1      -1.495  11.898  21.514  0.00  0.00    +0.000 C 
ATOM     15  C   UNL     1      -1.039  10.227  23.269  0.00  0.00    +0.000 C 
ATOM     16  N   UNL     1       0.136  10.569  19.756  0.00  0.00    +0.000 NA
ATOM     17  N   UNL     1       0.914   9.983  18.779  0.00  0.00    +0.000 NA
ENDBRANCH   5   9
BRANCH   1  18
ATOM     18  C   UNL     1       4.358   3.638  18.257  0.00  0.00    +0.000 C 
BRANCH  18  20
ATOM     19  C   UNL     1       3.429   1.288  18.557  0.00  0.00    +0.000 C 
ATOM     20  C   UNL     1       4.018   2.505  19.252  0.00  0.00    +0.000 C 
BRANCH  20  21
ATOM     21  O   UNL     1       5.195   2.125  19.966  0.00  0.00    +0.000 OA
ATOM     22  H   UNL     1       5.967   2.461  19.479  0.00  0.00    +0.000 HD
ENDBRANCH  20  21
ENDBRANCH  18  20
ENDBRANCH   1  18
TORSDOF 4
ENDMDL
