MODEL 1
REMARK VINA RESULT:      -8.2      0.000      0.000
REMARK  Name = 
REMARK  10 active torsions:
REMARK  status: ('A' for Active; 'I' for Inactive)
REMARK    1  A    between atoms: C_1  and  C_2
REMARK    2  A    between atoms: C_2  and  C_3
REMARK    3  A    between atoms: C_2  and  N_7
REMARK    4  A    between atoms: N_5  and  O_6
REMARK    5  A    between atoms: C_10  and  C_11
REMARK    6  A    between atoms: C_10  and  C_12
REMARK    7  A    between atoms: C_15  and  O_16
REMARK    8  A    between atoms: O_16  and  C_17
REMARK    9  A    between atoms: C_17  and  C_18
REMARK   10  A    between atoms: C_22  and  N_23
REMARK                            x       y       z     vdW  Elec       q    Type
REMARK                         _______ _______ _______ _____ _____    ______ ____
ROOT
ATOM      1  C   UNL     1       2.548   6.809  18.973  0.00  0.00    +0.000 A 
ATOM      2  C   UNL     1       2.072   6.771  20.290  0.00  0.00    +0.000 A 
ATOM      3  C   UNL     1       1.376   7.851  20.838  0.00  0.00    +0.000 A 
ATOM      4  C   UNL     1       1.173   9.011  20.092  0.00  0.00    +0.000 A 
ATOM      5  C   UNL     1       1.631   9.066  18.779  0.00  0.00    +0.000 A 
ATOM      6  C   UNL     1       2.320   7.984  18.227  0.00  0.00    +0.000 A 
ENDROOT
BRANCH   1  10
ATOM      7  N   UNL     1       5.665   5.809  18.245  0.00  0.00    +0.000 N 
ATOM      8  C   UNL     1       5.370   5.277  19.554  0.00  0.00    +0.000 C 
ATOM      9  C   UNL     1       3.955   4.742  19.424  0.00  0.00    +0.000 C 
ATOM     10  C   UNL     1       3.292   5.630  18.345  0.00  0.00    +0.000 C 
ATOM     11  C   UNL     1       2.357   4.802  17.448  0.00  0.00    +0.000 C 
ATOM     12  C   UNL     1       4.512   6.019  17.499  0.00  0.00    +0.000 C 
ATOM     13  O   UNL     1       4.492   6.445  16.353  0.00  0.00    +0.000 OA
BRANCH   7  15
ATOM     14  C   UNL     1       7.653   7.044  17.466  0.00  0.00    +0.000 C 
ATOM     15  C   UNL     1       6.981   5.679  17.606  0.00  0.00    +0.000 C 
BRANCH  15  16
ATOM     16  C   UNL     1       6.919   4.938  16.265  0.00  0.00    +0.000 C 
ATOM     17  O   UNL     1       6.491   3.794  16.121  0.00  0.00    +0.000 OA
ATOM     18  N   UNL     1       7.287   5.703  15.182  0.00  0.00    +0.000 N 
ATOM     19  H   UNL     1       7.892   6.511  15.275  0.00  0.00    +0.000 HD
BRANCH  18  20
ATOM     20  O   UNL     1       7.287   5.031  13.937  0.00  0.00    +0.000 OA
ATOM     21  H   UNL     1       7.804   5.643  13.367  0.00  0.00    +0.000 HD
ENDBRANCH  18  20
ENDBRANCH  15  16
ENDBRANCH   7  15
ENDBRANCH   1  10
BRANCH   4  22
ATOM     22  O   UNL     1       0.536  10.130  20.548  0.00  0.00    +0.000 OA
BRANCH  22  23
ATOM     23  C   UNL     1       0.466  11.206  19.613  0.00  0.00    +0.000 C 
BRANCH  23  24
ATOM     24  C   UNL     1      -0.987  11.461  19.308  0.00  0.00    +0.000 A 
ATOM     25  C   UNL     1      -1.798  12.174  20.203  0.00  0.00    +0.000 A 
ATOM     26  C   UNL     1      -3.147  12.390  19.917  0.00  0.00    +0.000 A 
ATOM     27  C   UNL     1      -3.703  11.891  18.737  0.00  0.00    +0.000 A 
ATOM     28  C   UNL     1      -2.898  11.170  17.846  0.00  0.00    +0.000 A 
ATOM     29  C   UNL     1      -1.546  10.951  18.128  0.00  0.00    +0.000 A 
BRANCH  28  30
ATOM     30  N   UNL     1      -3.474  10.641  16.607  0.00  0.00    +0.000 N 
ATOM     31  O   UNL     1      -4.522  11.154  16.191  0.00  0.00    +0.000 OA
ATOM     32  O   UNL     1      -2.878   9.713  16.042  0.00  0.00    +0.000 OA
ENDBRANCH  28  30
ENDBRANCH  23  24
ENDBRANCH  22  23
ENDBRANCH   4  22
TORSDOF 8
ENDMDL
MODEL 2
REMARK VINA RESULT:      -8.2      0.944      1.446
REMARK  Name = 
REMARK  10 active torsions:
REMARK  status: ('A' for Active; 'I' for Inactive)
REMARK    1  A    between atoms: C_1  and  C_2
REMARK    2  A    between atoms: C_2  and  C_3
REMARK    3  A    between atoms: C_2  and  N_7
REMARK    4  A    between atoms: N_5  and  O_6
REMARK    5  A    between atoms: C_10  and  C_11
REMARK    6  A    between atoms: C_10  and  C_12
REMARK    7  A    between atoms: C_15  and  O_16
REMARK    8  A    between atoms: O_16  and  C_17
REMARK    9  A    between atoms: C_17  and  C_18
REMARK   10  A    between atoms: C_22  and  N_23
REMARK                            x       y       z     vdW  Elec       q    Type
REMARK                         _______ _______ _______ _____ _____    ______ ____
ROOT
ATOM      1  C   UNL     1       2.661   6.550  18.692  0.00  0.00    +0.000 A 
ATOM      2  C   UNL     1       2.628   7.588  17.752  0.00  0.00    +0.000 A 
ATOM      3  C   UNL     1       2.083   8.834  18.070  0.00  0.00    +0.000 A 
ATOM      4  C   UNL     1       1.524   9.060  19.327  0.00  0.00    +0.000 A 
ATOM      5  C   UNL     1       1.555   8.044  20.279  0.00  0.00    +0.000 A 
ATOM      6  C   UNL     1       2.107   6.800  19.964  0.00  0.00    +0.000 A 
ENDROOT
BRANCH   1  10
ATOM      7  N   UNL     1       5.647   5.117  18.165  0.00  0.00    +0.000 N 
ATOM      8  C   UNL     1       5.375   4.969  19.575  0.00  0.00    +0.000 C 
ATOM      9  C   UNL     1       3.917   4.549  19.628  0.00  0.00    +0.000 C 
ATOM     10  C   UNL     1       3.274   5.186  18.373  0.00  0.00    +0.000 C 
ATOM     11  C   UNL     1       2.232   4.244  17.749  0.00  0.00    +0.000 C 
ATOM     12  C   UNL     1       4.478   5.232  17.422  0.00  0.00    +0.000 C 
ATOM     13  O   UNL     1       4.435   5.348  16.206  0.00  0.00    +0.000 OA
BRANCH   7  15
ATOM     14  C   UNL     1       8.041   4.693  18.577  0.00  0.00    +0.000 C 
ATOM     15  C   UNL     1       6.914   4.707  17.546  0.00  0.00    +0.000 C 
BRANCH  15  16
ATOM     16  C   UNL     1       7.279   5.556  16.321  0.00  0.00    +0.000 C 
ATOM     17  O   UNL     1       7.532   6.758  16.359  0.00  0.00    +0.000 OA
ATOM     18  N   UNL     1       7.413   4.834  15.158  0.00  0.00    +0.000 N 
ATOM     19  H   UNL     1       6.955   3.939  15.023  0.00  0.00    +0.000 HD
BRANCH  18  20
ATOM     20  O   UNL     1       7.701   5.597  14.002  0.00  0.00    +0.000 OA
ATOM     21  H   UNL     1       6.808   5.750  13.622  0.00  0.00    +0.000 HD
ENDBRANCH  18  20
ENDBRANCH  15  16
ENDBRANCH   7  15
ENDBRANCH   1  10
BRANCH   4  22
ATOM     22  O   UNL     1       0.939  10.229  19.722  0.00  0.00    +0.000 OA
BRANCH  22  23
ATOM     23  C   UNL     1       0.597  11.120  18.661  0.00  0.00    +0.000 C 
BRANCH  23  24
ATOM     24  C   UNL     1      -0.852  11.497  18.820  0.00  0.00    +0.000 A 
ATOM     25  C   UNL     1      -1.327  12.046  20.020  0.00  0.00    +0.000 A 
ATOM     26  C   UNL     1      -2.676  12.376  20.162  0.00  0.00    +0.000 A 
ATOM     27  C   UNL     1      -3.567  12.156  19.109  0.00  0.00    +0.000 A 
ATOM     28  C   UNL     1      -3.098  11.599  17.913  0.00  0.00    +0.000 A 
ATOM     29  C   UNL     1      -1.747  11.267  17.765  0.00  0.00    +0.000 A 
BRANCH  28  30
ATOM     30  N   UNL     1      -4.026  11.363  16.804  0.00  0.00    +0.000 N 
ATOM     31  O   UNL     1      -3.545  11.120  15.689  0.00  0.00    +0.000 OA
ATOM     32  O   UNL     1      -5.241  11.415  17.045  0.00  0.00    +0.000 OA
ENDBRANCH  28  30
ENDBRANCH  23  24
ENDBRANCH  22  23
ENDBRANCH   4  22
TORSDOF 8
ENDMDL
MODEL 3
REMARK VINA RESULT:      -8.2      1.525      1.915
REMARK  Name = 
REMARK  10 active torsions:
REMARK  status: ('A' for Active; 'I' for Inactive)
REMARK    1  A    between atoms: C_1  and  C_2
REMARK    2  A    between atoms: C_2  and  C_3
REMARK    3  A    between atoms: C_2  and  N_7
REMARK    4  A    between atoms: N_5  and  O_6
REMARK    5  A    between atoms: C_10  and  C_11
REMARK    6  A    between atoms: C_10  and  C_12
REMARK    7  A    between atoms: C_15  and  O_16
REMARK    8  A    between atoms: O_16  and  C_17
REMARK    9  A    between atoms: C_17  and  C_18
REMARK   10  A    between atoms: C_22  and  N_23
REMARK                            x       y       z     vdW  Elec       q    Type
REMARK                         _______ _______ _______ _____ _____    ______ ____
ROOT
ATOM      1  C   UNL     1       2.548   7.039  18.759  0.00  0.00    +0.000 A 
ATOM      2  C   UNL     1       2.031   7.118  20.058  0.00  0.00    +0.000 A 
ATOM      3  C   UNL     1       1.303   8.233  20.479  0.00  0.00    +0.000 A 
ATOM      4  C   UNL     1       1.107   9.313  19.621  0.00  0.00    +0.000 A 
ATOM      5  C   UNL     1       1.605   9.251  18.323  0.00  0.00    +0.000 A 
ATOM      6  C   UNL     1       2.327   8.133  17.898  0.00  0.00    +0.000 A 
ENDROOT
BRANCH   1  10
ATOM      7  N   UNL     1       5.696   6.054  18.152  0.00  0.00    +0.000 N 
ATOM      8  C   UNL     1       5.410   5.665  19.512  0.00  0.00    +0.000 C 
ATOM      9  C   UNL     1       4.012   5.077  19.442  0.00  0.00    +0.000 C 
ATOM     10  C   UNL     1       3.328   5.818  18.269  0.00  0.00    +0.000 C 
ATOM     11  C   UNL     1       2.421   4.868  17.470  0.00  0.00    +0.000 C 
ATOM     12  C   UNL     1       4.540   6.145  17.386  0.00  0.00    +0.000 C 
ATOM     13  O   UNL     1       4.513   6.438  16.199  0.00  0.00    +0.000 OA
BRANCH   7  15
ATOM     14  C   UNL     1       7.715   7.241  17.379  0.00  0.00    +0.000 C 
ATOM     15  C   UNL     1       7.018   5.891  17.533  0.00  0.00    +0.000 C 
BRANCH  15  16
ATOM     16  C   UNL     1       6.961   5.129  16.203  0.00  0.00    +0.000 C 
ATOM     17  O   UNL     1       7.493   5.508  15.161  0.00  0.00    +0.000 OA
ATOM     18  N   UNL     1       6.345   3.901  16.284  0.00  0.00    +0.000 N 
ATOM     19  H   UNL     1       5.671   3.684  17.010  0.00  0.00    +0.000 HD
BRANCH  18  20
ATOM     20  O   UNL     1       6.234   3.197  15.062  0.00  0.00    +0.000 OA
ATOM     21  H   UNL     1       5.334   3.447  14.755  0.00  0.00    +0.000 HD
ENDBRANCH  18  20
ENDBRANCH  15  16
ENDBRANCH   7  15
ENDBRANCH   1  10
BRANCH   4  22
ATOM     22  O   UNL     1       0.440  10.459  19.949  0.00  0.00    +0.000 OA
BRANCH  22  23
ATOM     23  C   UNL     1       0.106  11.298  18.844  0.00  0.00    +0.000 C 
BRANCH  23  24
ATOM     24  C   UNL     1      -1.353  11.094  18.531  0.00  0.00    +0.000 A 
ATOM     25  C   UNL     1      -1.760  10.157  17.570  0.00  0.00    +0.000 A 
ATOM     26  C   UNL     1      -3.114   9.988  17.276  0.00  0.00    +0.000 A 
ATOM     27  C   UNL     1      -4.077  10.757  17.934  0.00  0.00    +0.000 A 
ATOM     28  C   UNL     1      -3.673  11.701  18.887  0.00  0.00    +0.000 A 
ATOM     29  C   UNL     1      -2.317  11.873  19.185  0.00  0.00    +0.000 A 
BRANCH  28  30
ATOM     30  N   UNL     1      -4.676  12.513  19.580  0.00  0.00    +0.000 N 
ATOM     31  O   UNL     1      -5.521  13.101  18.891  0.00  0.00    +0.000 OA
ATOM     32  O   UNL     1      -4.625  12.564  20.817  0.00  0.00    +0.000 OA
ENDBRANCH  28  30
ENDBRANCH  23  24
ENDBRANCH  22  23
ENDBRANCH   4  22
TORSDOF 8
ENDMDL
MODEL 4
REMARK VINA RESULT:      -8.1      1.768      2.377
REMARK  Name = 
REMARK  10 active torsions:
REMARK  status: ('A' for Active; 'I' for Inactive)
REMARK    1  A    between atoms: C_1  and  C_2
REMARK    2  A    between atoms: C_2  and  C_3
REMARK    3  A    between atoms: C_2  and  N_7
REMARK    4  A    between atoms: N_5  and  O_6
REMARK    5  A    between atoms: C_10  and  C_11
REMARK    6  A    between atoms: C_10  and  C_12
REMARK    7  A    between atoms: C_15  and  O_16
REMARK    8  A    between atoms: O_16  and  C_17
REMARK    9  A    between atoms: C_17  and  C_18
REMARK   10  A    between atoms: C_22  and  N_23
REMARK                            x       y       z     vdW  Elec       q    Type
REMARK                         _______ _______ _______ _____ _____    ______ ____
ROOT
ATOM      1  C   UNL     1       2.225   6.913  19.560  0.00  0.00    +0.000 A 
ATOM      2  C   UNL     1       1.585   7.266  20.755  0.00  0.00    +0.000 A 
ATOM      3  C   UNL     1       0.954   8.504  20.898  0.00  0.00    +0.000 A 
ATOM      4  C   UNL     1       0.979   9.433  19.860  0.00  0.00    +0.000 A 
ATOM      5  C   UNL     1       1.602   9.099  18.661  0.00  0.00    +0.000 A 
ATOM      6  C   UNL     1       2.227   7.858  18.514  0.00  0.00    +0.000 A 
ENDROOT
BRANCH   1  10
ATOM      7  N   UNL     1       4.185   5.279  17.384  0.00  0.00    +0.000 N 
ATOM      8  C   UNL     1       5.075   5.895  18.339  0.00  0.00    +0.000 C 
ATOM      9  C   UNL     1       4.416   5.631  19.681  0.00  0.00    +0.000 C 
ATOM     10  C   UNL     1       2.902   5.554  19.373  0.00  0.00    +0.000 C 
ATOM     11  C   UNL     1       2.219   4.475  20.227  0.00  0.00    +0.000 C 
ATOM     12  C   UNL     1       2.926   5.046  17.924  0.00  0.00    +0.000 C 
ATOM     13  O   UNL     1       2.000   4.517  17.328  0.00  0.00    +0.000 OA
BRANCH   7  15
ATOM     14  C   UNL     1       5.272   3.209  16.600  0.00  0.00    +0.000 C 
ATOM     15  C   UNL     1       4.661   4.551  16.201  0.00  0.00    +0.000 C 
BRANCH  15  16
ATOM     16  C   UNL     1       5.625   5.378  15.341  0.00  0.00    +0.000 C 
ATOM     17  O   UNL     1       5.398   6.520  14.946  0.00  0.00    +0.000 OA
ATOM     18  N   UNL     1       6.843   4.777  15.127  0.00  0.00    +0.000 N 
ATOM     19  H   UNL     1       6.965   3.772  15.181  0.00  0.00    +0.000 HD
BRANCH  18  20
ATOM     20  O   UNL     1       7.735   5.496  14.296  0.00  0.00    +0.000 OA
ATOM     21  H   UNL     1       8.222   4.776  13.836  0.00  0.00    +0.000 HD
ENDBRANCH  18  20
ENDBRANCH  15  16
ENDBRANCH   7  15
ENDBRANCH   1  10
BRANCH   4  22
ATOM     22  O   UNL     1       0.422  10.679  19.914  0.00  0.00    +0.000 OA
BRANCH  22  23
ATOM     23  C   UNL     1       0.140  11.268  18.645  0.00  0.00    +0.000 C 
BRANCH  23  24
ATOM     24  C   UNL     1      -1.318  11.044  18.344  0.00  0.00    +0.000 A 
ATOM     25  C   UNL     1      -1.723  10.086  17.404  0.00  0.00    +0.000 A 
ATOM     26  C   UNL     1      -3.077   9.899  17.121  0.00  0.00    +0.000 A 
ATOM     27  C   UNL     1      -4.042  10.672  17.769  0.00  0.00    +0.000 A 
ATOM     28  C   UNL     1      -3.642  11.637  18.701  0.00  0.00    +0.000 A 
ATOM     29  C   UNL     1      -2.286  11.828  18.989  0.00  0.00    +0.000 A 
BRANCH  28  30
ATOM     30  N   UNL     1      -4.648  12.453  19.385  0.00  0.00    +0.000 N 
ATOM     31  O   UNL     1      -4.286  13.117  20.366  0.00  0.00    +0.000 OA
ATOM     32  O   UNL     1      -5.805  12.438  18.941  0.00  0.00    +0.000 OA
ENDBRANCH  28  30
ENDBRANCH  23  24
ENDBRANCH  22  23
ENDBRANCH   4  22
TORSDOF 8
ENDMDL
MODEL 5
REMARK VINA RESULT:      -8.1      4.036     10.610
REMARK  Name = 
REMARK  10 active torsions:
REMARK  status: ('A' for Active; 'I' for Inactive)
REMARK    1  A    between atoms: C_1  and  C_2
REMARK    2  A    between atoms: C_2  and  C_3
REMARK    3  A    between atoms: C_2  and  N_7
REMARK    4  A    between atoms: N_5  and  O_6
REMARK    5  A    between atoms: C_10  and  C_11
REMARK    6  A    between atoms: C_10  and  C_12
REMARK    7  A    between atoms: C_15  and  O_16
REMARK    8  A    between atoms: O_16  and  C_17
REMARK    9  A    between atoms: C_17  and  C_18
REMARK   10  A    between atoms: C_22  and  N_23
REMARK                            x       y       z     vdW  Elec       q    Type
REMARK                         _______ _______ _______ _____ _____    ______ ____
ROOT
ATOM      1  C   UNL     1      -0.729  11.293  21.833  0.00  0.00    +0.000 A 
ATOM      2  C   UNL     1      -0.516  10.444  22.926  0.00  0.00    +0.000 A 
ATOM      3  C   UNL     1       0.100   9.200  22.765  0.00  0.00    +0.000 A 
ATOM      4  C   UNL     1       0.483   8.761  21.499  0.00  0.00    +0.000 A 
ATOM      5  C   UNL     1       0.287   9.594  20.400  0.00  0.00    +0.000 A 
ATOM      6  C   UNL     1      -0.321  10.841  20.562  0.00  0.00    +0.000 A 
ENDROOT
BRANCH   1  10
ATOM      7  N   UNL     1      -3.760  12.710  22.057  0.00  0.00    +0.000 N 
ATOM      8  C   UNL     1      -3.337  12.455  23.413  0.00  0.00    +0.000 C 
ATOM      9  C   UNL     1      -1.883  12.893  23.435  0.00  0.00    +0.000 C 
ATOM     10  C   UNL     1      -1.379  12.669  21.990  0.00  0.00    +0.000 C 
ATOM     11  C   UNL     1      -0.415  13.787  21.562  0.00  0.00    +0.000 C 
ATOM     12  C   UNL     1      -2.679  12.856  21.196  0.00  0.00    +0.000 C 
ATOM     13  O   UNL     1      -2.769  13.098  20.001  0.00  0.00    +0.000 OA
BRANCH   7  15
ATOM     14  C   UNL     1      -5.373  14.525  22.487  0.00  0.00    +0.000 C 
ATOM     15  C   UNL     1      -5.089  13.236  21.719  0.00  0.00    +0.000 C 
BRANCH  15  16
ATOM     16  C   UNL     1      -6.205  12.202  21.916  0.00  0.00    +0.000 C 
ATOM     17  O   UNL     1      -6.917  12.129  22.915  0.00  0.00    +0.000 OA
ATOM     18  N   UNL     1      -6.433  11.405  20.817  0.00  0.00    +0.000 N 
ATOM     19  H   UNL     1      -5.720  11.239  20.116  0.00  0.00    +0.000 HD
BRANCH  18  20
ATOM     20  O   UNL     1      -7.423  10.409  20.987  0.00  0.00    +0.000 OA
ATOM     21  H   UNL     1      -7.200   9.766  20.278  0.00  0.00    +0.000 HD
ENDBRANCH  18  20
ENDBRANCH  15  16
ENDBRANCH   7  15
ENDBRANCH   1  10
BRANCH   4  22
ATOM     22  O   UNL     1       1.059   7.551  21.234  0.00  0.00    +0.000 OA
BRANCH  22  23
ATOM     23  C   UNL     1       1.944   7.538  20.114  0.00  0.00    +0.000 C 
BRANCH  23  24
ATOM     24  C   UNL     1       2.184   6.103  19.729  0.00  0.00    +0.000 A 
ATOM     25  C   UNL     1       2.328   5.730  18.386  0.00  0.00    +0.000 A 
ATOM     26  C   UNL     1       2.534   4.393  18.040  0.00  0.00    +0.000 A 
ATOM     27  C   UNL     1       2.591   3.412  19.032  0.00  0.00    +0.000 A 
ATOM     28  C   UNL     1       2.437   3.779  20.375  0.00  0.00    +0.000 A 
ATOM     29  C   UNL     1       2.232   5.118  20.727  0.00  0.00    +0.000 A 
BRANCH  28  30
ATOM     30  N   UNL     1       2.495   2.757  21.422  0.00  0.00    +0.000 N 
ATOM     31  O   UNL     1       3.567   2.159  21.590  0.00  0.00    +0.000 OA
ATOM     32  O   UNL     1       1.469   2.549  22.086  0.00  0.00    +0.000 OA
ENDBRANCH  28  30
ENDBRANCH  23  24
ENDBRANCH  22  23
ENDBRANCH   4  22
TORSDOF 8
ENDMDL
MODEL 6
REMARK VINA RESULT:      -8.0      1.640      2.231
REMARK  Name = 
REMARK  10 active torsions:
REMARK  status: ('A' for Active; 'I' for Inactive)
REMARK    1  A    between atoms: C_1  and  C_2
REMARK    2  A    between atoms: C_2  and  C_3
REMARK    3  A    between atoms: C_2  and  N_7
REMARK    4  A    between atoms: N_5  and  O_6
REMARK    5  A    between atoms: C_10  and  C_11
REMARK    6  A    between atoms: C_10  and  C_12
REMARK    7  A    between atoms: C_15  and  O_16
REMARK    8  A    between atoms: O_16  and  C_17
REMARK    9  A    between atoms: C_17  and  C_18
REMARK   10  A    between atoms: C_22  and  N_23
REMARK                            x       y       z     vdW  Elec       q    Type
REMARK                         _______ _______ _______ _____ _____    ______ ____
ROOT
ATOM      1  C   UNL     1       2.648   6.674  18.856  0.00  0.00    +0.000 A 
ATOM      2  C   UNL     1       2.711   7.458  17.698  0.00  0.00    +0.000 A 
ATOM      3  C   UNL     1       2.136   8.730  17.655  0.00  0.00    +0.000 A 
ATOM      4  C   UNL     1       1.451   9.233  18.759  0.00  0.00    +0.000 A 
ATOM      5  C   UNL     1       1.384   8.472  19.924  0.00  0.00    +0.000 A 
ATOM      6  C   UNL     1       1.966   7.203  19.970  0.00  0.00    +0.000 A 
ENDROOT
BRANCH   1  10
ATOM      7  N   UNL     1       5.320   4.997  17.717  0.00  0.00    +0.000 N 
ATOM      8  C   UNL     1       5.708   5.547  18.994  0.00  0.00    +0.000 C 
ATOM      9  C   UNL     1       4.509   5.284  19.888  0.00  0.00    +0.000 C 
ATOM     10  C   UNL     1       3.292   5.288  18.933  0.00  0.00    +0.000 C 
ATOM     11  C   UNL     1       2.264   4.224  19.346  0.00  0.00    +0.000 C 
ATOM     12  C   UNL     1       3.946   4.813  17.628  0.00  0.00    +0.000 C 
ATOM     13  O   UNL     1       3.368   4.343  16.659  0.00  0.00    +0.000 OA
BRANCH   7  15
ATOM     14  C   UNL     1       7.690   4.440  17.325  0.00  0.00    +0.000 C 
ATOM     15  C   UNL     1       6.251   4.274  16.841  0.00  0.00    +0.000 C 
BRANCH  15  16
ATOM     16  C   UNL     1       6.101   4.662  15.365  0.00  0.00    +0.000 C 
ATOM     17  O   UNL     1       5.943   5.813  14.961  0.00  0.00    +0.000 OA
ATOM     18  N   UNL     1       6.269   3.615  14.489  0.00  0.00    +0.000 N 
ATOM     19  H   UNL     1       6.118   2.652  14.765  0.00  0.00    +0.000 HD
BRANCH  18  20
ATOM     20  O   UNL     1       6.088   3.934  13.122  0.00  0.00    +0.000 OA
ATOM     21  H   UNL     1       5.278   4.492  13.141  0.00  0.00    +0.000 HD
ENDBRANCH  18  20
ENDBRANCH  15  16
ENDBRANCH   7  15
ENDBRANCH   1  10
BRANCH   4  22
ATOM     22  O   UNL     1       0.827  10.447  18.805  0.00  0.00    +0.000 OA
BRANCH  22  23
ATOM     23  C   UNL     1      -0.410  10.462  19.517  0.00  0.00    +0.000 C 
BRANCH  23  24
ATOM     24  C   UNL     1      -1.526  10.515  18.508  0.00  0.00    +0.000 A 
ATOM     25  C   UNL     1      -1.427   9.833  17.286  0.00  0.00    +0.000 A 
ATOM     26  C   UNL     1      -2.461   9.903  16.351  0.00  0.00    +0.000 A 
ATOM     27  C   UNL     1      -3.603  10.659  16.623  0.00  0.00    +0.000 A 
ATOM     28  C   UNL     1      -3.701  11.349  17.837  0.00  0.00    +0.000 A 
ATOM     29  C   UNL     1      -2.668  11.282  18.778  0.00  0.00    +0.000 A 
BRANCH  28  30
ATOM     30  N   UNL     1      -4.895  12.146  18.130  0.00  0.00    +0.000 N 
ATOM     31  O   UNL     1      -5.618  12.475  17.179  0.00  0.00    +0.000 OA
ATOM     32  O   UNL     1      -5.118  12.442  19.312  0.00  0.00    +0.000 OA
ENDBRANCH  28  30
ENDBRANCH  23  24
ENDBRANCH  22  23
ENDBRANCH   4  22
TORSDOF 8
ENDMDL
MODEL 7
REMARK VINA RESULT:      -8.0      1.402      1.964
REMARK  Name = 
REMARK  10 active torsions:
REMARK  status: ('A' for Active; 'I' for Inactive)
REMARK    1  A    between atoms: C_1  and  C_2
REMARK    2  A    between atoms: C_2  and  C_3
REMARK    3  A    between atoms: C_2  and  N_7
REMARK    4  A    between atoms: N_5  and  O_6
REMARK    5  A    between atoms: C_10  and  C_11
REMARK    6  A    between atoms: C_10  and  C_12
REMARK    7  A    between atoms: C_15  and  O_16
REMARK    8  A    between atoms: O_16  and  C_17
REMARK    9  A    between atoms: C_17  and  C_18
REMARK   10  A    between atoms: C_22  and  N_23
REMARK                            x       y       z     vdW  Elec       q    Type
REMARK                         _______ _______ _______ _____ _____    ______ ____
ROOT
ATOM      1  C   UNL     1       2.556   7.065  18.635  0.00  0.00    +0.000 A 
ATOM      2  C   UNL     1       2.367   8.127  17.741  0.00  0.00    +0.000 A 
ATOM      3  C   UNL     1       1.681   9.281  18.125  0.00  0.00    +0.000 A 
ATOM      4  C   UNL     1       1.134   9.384  19.402  0.00  0.00    +0.000 A 
ATOM      5  C   UNL     1       1.318   8.344  20.309  0.00  0.00    +0.000 A 
ATOM      6  C   UNL     1       2.011   7.193  19.929  0.00  0.00    +0.000 A 
ENDROOT
BRANCH   1  10
ATOM      7  N   UNL     1       5.703   5.964  18.271  0.00  0.00    +0.000 N 
ATOM      8  C   UNL     1       5.320   5.639  19.624  0.00  0.00    +0.000 C 
ATOM      9  C   UNL     1       3.911   5.091  19.487  0.00  0.00    +0.000 C 
ATOM     10  C   UNL     1       3.326   5.802  18.244  0.00  0.00    +0.000 C 
ATOM     11  C   UNL     1       2.442   4.847  17.427  0.00  0.00    +0.000 C 
ATOM     12  C   UNL     1       4.601   6.057  17.429  0.00  0.00    +0.000 C 
ATOM     13  O   UNL     1       4.658   6.301  16.232  0.00  0.00    +0.000 OA
BRANCH   7  15
ATOM     14  C   UNL     1       7.834   7.048  17.668  0.00  0.00    +0.000 C 
ATOM     15  C   UNL     1       7.055   5.736  17.745  0.00  0.00    +0.000 C 
BRANCH  15  16
ATOM     16  C   UNL     1       7.053   5.000  16.399  0.00  0.00    +0.000 C 
ATOM     17  O   UNL     1       6.603   3.869  16.226  0.00  0.00    +0.000 OA
ATOM     18  N   UNL     1       7.505   5.757  15.344  0.00  0.00    +0.000 N 
ATOM     19  H   UNL     1       8.126   6.548  15.475  0.00  0.00    +0.000 HD
BRANCH  18  20
ATOM     20  O   UNL     1       7.561   5.088  14.098  0.00  0.00    +0.000 OA
ATOM     21  H   UNL     1       8.413   4.602  14.157  0.00  0.00    +0.000 HD
ENDBRANCH  18  20
ENDBRANCH  15  16
ENDBRANCH   7  15
ENDBRANCH   1  10
BRANCH   4  22
ATOM     22  O   UNL     1       0.418  10.454  19.861  0.00  0.00    +0.000 OA
BRANCH  22  23
ATOM     23  C   UNL     1       0.031  11.393  18.858  0.00  0.00    +0.000 C 
BRANCH  23  24
ATOM     24  C   UNL     1      -1.404  11.118  18.495  0.00  0.00    +0.000 A 
ATOM     25  C   UNL     1      -1.734  10.142  17.543  0.00  0.00    +0.000 A 
ATOM     26  C   UNL     1      -3.067   9.908  17.202  0.00  0.00    +0.000 A 
ATOM     27  C   UNL     1      -4.086  10.649  17.804  0.00  0.00    +0.000 A 
ATOM     28  C   UNL     1      -3.760  11.631  18.747  0.00  0.00    +0.000 A 
ATOM     29  C   UNL     1      -2.426  11.870  19.093  0.00  0.00    +0.000 A 
BRANCH  28  30
ATOM     30  N   UNL     1      -4.823  12.415  19.381  0.00  0.00    +0.000 N 
ATOM     31  O   UNL     1      -5.631  12.999  18.644  0.00  0.00    +0.000 OA
ATOM     32  O   UNL     1      -4.858  12.448  20.620  0.00  0.00    +0.000 OA
ENDBRANCH  28  30
ENDBRANCH  23  24
ENDBRANCH  22  23
ENDBRANCH   4  22
TORSDOF 8
ENDMDL
MODEL 8
REMARK VINA RESULT:      -8.0      2.651      3.459
REMARK  Name = 
REMARK  10 active torsions:
REMARK  status: ('A' for Active; 'I' for Inactive)
REMARK    1  A    between atoms: C_1  and  C_2
REMARK    2  A    between atoms: C_2  and  C_3
REMARK    3  A    between atoms: C_2  and  N_7
REMARK    4  A    between atoms: N_5  and  O_6
REMARK    5  A    between atoms: C_10  and  C_11
REMARK    6  A    between atoms: C_10  and  C_12
REMARK    7  A    between atoms: C_15  and  O_16
REMARK    8  A    between atoms: O_16  and  C_17
REMARK    9  A    between atoms: C_17  and  C_18
REMARK   10  A    between atoms: C_22  and  N_23
REMARK                            x       y       z     vdW  Elec       q    Type
REMARK                         _______ _______ _______ _____ _____    ______ ____
ROOT
ATOM      1  C   UNL     1       2.594   6.665  18.727  0.00  0.00    +0.000 A 
ATOM      2  C   UNL     1       2.494   7.708  17.798  0.00  0.00    +0.000 A 
ATOM      3  C   UNL     1       1.943   8.941  18.153  0.00  0.00    +0.000 A 
ATOM      4  C   UNL     1       1.445   9.148  19.438  0.00  0.00    +0.000 A 
ATOM      5  C   UNL     1       1.543   8.126  20.379  0.00  0.00    +0.000 A 
ATOM      6  C   UNL     1       2.101   6.895  20.027  0.00  0.00    +0.000 A 
ENDROOT
BRANCH   1  10
ATOM      7  N   UNL     1       5.595   5.235  18.283  0.00  0.00    +0.000 N 
ATOM      8  C   UNL     1       5.246   5.012  19.666  0.00  0.00    +0.000 C 
ATOM      9  C   UNL     1       3.785   4.604  19.617  0.00  0.00    +0.000 C 
ATOM     10  C   UNL     1       3.215   5.314  18.366  0.00  0.00    +0.000 C 
ATOM     11  C   UNL     1       2.203   4.418  17.636  0.00  0.00    +0.000 C 
ATOM     12  C   UNL     1       4.469   5.401  17.486  0.00  0.00    +0.000 C 
ATOM     13  O   UNL     1       4.494   5.584  16.277  0.00  0.00    +0.000 OA
BRANCH   7  15
ATOM     14  C   UNL     1       7.996   4.940  18.763  0.00  0.00    +0.000 C 
ATOM     15  C   UNL     1       6.892   4.848  17.712  0.00  0.00    +0.000 C 
BRANCH  15  16
ATOM     16  C   UNL     1       7.245   5.643  16.449  0.00  0.00    +0.000 C 
ATOM     17  O   UNL     1       7.507   6.844  16.434  0.00  0.00    +0.000 OA
ATOM     18  N   UNL     1       7.359   4.874  15.314  0.00  0.00    +0.000 N 
ATOM     19  H   UNL     1       6.894   3.978  15.222  0.00  0.00    +0.000 HD
BRANCH  18  20
ATOM     20  O   UNL     1       7.637   5.587  14.124  0.00  0.00    +0.000 OA
ATOM     21  H   UNL     1       7.995   4.885  13.536  0.00  0.00    +0.000 HD
ENDBRANCH  18  20
ENDBRANCH  15  16
ENDBRANCH   7  15
ENDBRANCH   1  10
BRANCH   4  22
ATOM     22  O   UNL     1       0.859  10.303  19.872  0.00  0.00    +0.000 OA
BRANCH  22  23
ATOM     23  C   UNL     1      -0.216  10.123  20.794  0.00  0.00    +0.000 C 
BRANCH  23  24
ATOM     24  C   UNL     1      -0.482  11.448  21.459  0.00  0.00    +0.000 A 
ATOM     25  C   UNL     1       0.385  12.535  21.276  0.00  0.00    +0.000 A 
ATOM     26  C   UNL     1       0.137  13.753  21.912  0.00  0.00    +0.000 A 
ATOM     27  C   UNL     1      -0.977  13.897  22.742  0.00  0.00    +0.000 A 
ATOM     28  C   UNL     1      -1.839  12.810  22.935  0.00  0.00    +0.000 A 
ATOM     29  C   UNL     1      -1.595  11.588  22.300  0.00  0.00    +0.000 A 
BRANCH  28  30
ATOM     30  N   UNL     1      -3.008  12.952  23.806  0.00  0.00    +0.000 N 
ATOM     31  O   UNL     1      -3.695  11.944  24.022  0.00  0.00    +0.000 OA
ATOM     32  O   UNL     1      -3.243  14.072  24.283  0.00  0.00    +0.000 OA
ENDBRANCH  28  30
ENDBRANCH  23  24
ENDBRANCH  22  23
ENDBRANCH   4  22
TORSDOF 8
ENDMDL
MODEL 9
REMARK VINA RESULT:      -8.0      2.351      3.086
REMARK  Name = 
REMARK  10 active torsions:
REMARK  status: ('A' for Active; 'I' for Inactive)
REMARK    1  A    between atoms: C_1  and  C_2
REMARK    2  A    between atoms: C_2  and  C_3
REMARK    3  A    between atoms: C_2  and  N_7
REMARK    4  A    between atoms: N_5  and  O_6
REMARK    5  A    between atoms: C_10  and  C_11
REMARK    6  A    between atoms: C_10  and  C_12
REMARK    7  A    between atoms: C_15  and  O_16
REMARK    8  A    between atoms: O_16  and  C_17
REMARK    9  A    between atoms: C_17  and  C_18
REMARK   10  A    between atoms: C_22  and  N_23
REMARK                            x       y       z     vdW  Elec       q    Type
REMARK                         _______ _______ _______ _____ _____    ______ ____
ROOT
ATOM      1  C   UNL     1       2.589   6.662  19.056  0.00  0.00    +0.000 A 
ATOM      2  C   UNL     1       2.319   7.894  18.447  0.00  0.00    +0.000 A 
ATOM      3  C   UNL     1       1.621   8.896  19.123  0.00  0.00    +0.000 A 
ATOM      4  C   UNL     1       1.143   8.676  20.414  0.00  0.00    +0.000 A 
ATOM      5  C   UNL     1       1.409   7.462  21.041  0.00  0.00    +0.000 A 
ATOM      6  C   UNL     1       2.114   6.461  20.368  0.00  0.00    +0.000 A 
ENDROOT
BRANCH   1  10
ATOM      7  N   UNL     1       5.731   5.864  18.197  0.00  0.00    +0.000 N 
ATOM      8  C   UNL     1       5.498   5.244  19.480  0.00  0.00    +0.000 C 
ATOM      9  C   UNL     1       4.108   4.646  19.353  0.00  0.00    +0.000 C 
ATOM     10  C   UNL     1       3.373   5.559  18.343  0.00  0.00    +0.000 C 
ATOM     11  C   UNL     1       2.457   4.737  17.423  0.00  0.00    +0.000 C 
ATOM     12  C   UNL     1       4.549   6.057  17.492  0.00  0.00    +0.000 C 
ATOM     13  O   UNL     1       4.478   6.544  16.374  0.00  0.00    +0.000 OA
BRANCH   7  15
ATOM     14  C   UNL     1       7.623   7.243  17.422  0.00  0.00    +0.000 C 
ATOM     15  C   UNL     1       7.034   5.837  17.520  0.00  0.00    +0.000 C 
BRANCH  15  16
ATOM     16  C   UNL     1       6.978   5.150  16.150  0.00  0.00    +0.000 C 
ATOM     17  O   UNL     1       7.502   5.591  15.129  0.00  0.00    +0.000 OA
ATOM     18  N   UNL     1       6.374   3.914  16.166  0.00  0.00    +0.000 N 
ATOM     19  H   UNL     1       5.706   3.650  16.881  0.00  0.00    +0.000 HD
BRANCH  18  20
ATOM     20  O   UNL     1       6.264   3.277  14.907  0.00  0.00    +0.000 OA
ATOM     21  H   UNL     1       5.298   3.105  14.841  0.00  0.00    +0.000 HD
ENDBRANCH  18  20
ENDBRANCH  15  16
ENDBRANCH   7  15
ENDBRANCH   1  10
BRANCH   4  22
ATOM     22  O   UNL     1       0.423   9.579  21.144  0.00  0.00    +0.000 OA
BRANCH  22  23
ATOM     23  C   UNL     1       0.513  10.929  20.691  0.00  0.00    +0.000 C 
BRANCH  23  24
ATOM     24  C   UNL     1      -0.847  11.558  20.835  0.00  0.00    +0.000 A 
ATOM     25  C   UNL     1      -1.611  11.892  19.707  0.00  0.00    +0.000 A 
ATOM     26  C   UNL     1      -2.864  12.490  19.853  0.00  0.00    +0.000 A 
ATOM     27  C   UNL     1      -3.366  12.767  21.127  0.00  0.00    +0.000 A 
ATOM     28  C   UNL     1      -2.601  12.444  22.254  0.00  0.00    +0.000 A 
ATOM     29  C   UNL     1      -1.345  11.844  22.114  0.00  0.00    +0.000 A 
BRANCH  28  30
ATOM     30  N   UNL     1      -3.119  12.733  23.594  0.00  0.00    +0.000 N 
ATOM     31  O   UNL     1      -2.801  13.810  24.118  0.00  0.00    +0.000 OA
ATOM     32  O   UNL     1      -3.849  11.886  24.128  0.00  0.00    +0.000 OA
ENDBRANCH  28  30
ENDBRANCH  23  24
ENDBRANCH  22  23
ENDBRANCH   4  22
TORSDOF 8
ENDMDL
