MODEL 1
REMARK VINA RESULT:      -7.5      0.000      0.000
REMARK  Name = 
REMARK  8 active torsions:
REMARK  status: ('A' for Active; 'I' for Inactive)
REMARK    1  A    between atoms: C_1  and  O_2
REMARK    2  A    between atoms: O_2  and  C_3
REMARK    3  A    between atoms: C_4  and  O_5
REMARK    4  A    between atoms: O_5  and  C_6
REMARK    5  A    between atoms: C_6  and  C_7
REMARK    6  A    between atoms: C_6  and  C_8
REMARK    7  A    between atoms: C_12  and  C_13
REMARK    8  A    between atoms: C_26  and  O_27
REMARK                            x       y       z     vdW  Elec       q    Type
REMARK                         _______ _______ _______ _____ _____    ______ ____
ROOT
ATOM      1  C   UNL     1      -1.353  11.233  19.737  0.00  0.00    +0.000 A 
ATOM      2  C   UNL     1      -1.215  11.029  18.328  0.00  0.00    +0.000 A 
ATOM      3  C   UNL     1      -0.337  10.054  17.877  0.00  0.00    +0.000 A 
ATOM      4  C   UNL     1       0.494   9.356  18.741  0.00  0.00    +0.000 A 
ATOM      5  O   UNL     1       1.311   8.415  18.168  0.00  0.00    +0.000 OA
ATOM      6  C   UNL     1       2.098   7.631  18.991  0.00  0.00    +0.000 A 
ATOM      7  C   UNL     1       2.145   7.793  20.323  0.00  0.00    +0.000 A 
ATOM      8  C   UNL     1       1.335   8.838  20.957  0.00  0.00    +0.000 A 
ATOM      9  O   UNL     1       1.385   9.026  22.164  0.00  0.00    +0.000 OA
ATOM     10  C   UNL     1       0.452   9.612  20.090  0.00  0.00    +0.000 A 
ATOM     11  C   UNL     1      -0.467  10.559  20.599  0.00  0.00    +0.000 A 
ENDROOT
BRANCH   6  12
ATOM     12  C   UNL     1       2.844   6.626  18.311  0.00  0.00    +0.000 A 
ATOM     13  C   UNL     1       4.013   6.844  17.605  0.00  0.00    +0.000 A 
ATOM     14  O   UNL     1       4.494   5.685  17.094  0.00  0.00    +0.000 OA
ATOM     15  C   UNL     1       3.633   4.700  17.469  0.00  0.00    +0.000 A 
ATOM     16  C   UNL     1       3.773   3.350  17.151  0.00  0.00    +0.000 A 
ATOM     17  C   UNL     1       2.776   2.492  17.622  0.00  0.00    +0.000 A 
ATOM     18  C   UNL     1       1.701   2.975  18.372  0.00  0.00    +0.000 A 
ATOM     19  C   UNL     1       1.589   4.339  18.679  0.00  0.00    +0.000 A 
ATOM     20  C   UNL     1       2.585   5.224  18.219  0.00  0.00    +0.000 A 
ENDBRANCH   6  12
BRANCH   1  22
ATOM     21  C   UNL     1      -1.933  13.434  20.328  0.00  0.00    +0.000 C 
ATOM     22  O   UNL     1      -2.299  12.052  20.304  0.00  0.00    +0.000 OA
ENDBRANCH   1  22
BRANCH  11  23
ATOM     23  O   UNL     1      -0.524  10.779  21.961  0.00  0.00    +0.000 OA
ATOM     24  H   UNL     1      -0.974  10.019  22.399  0.00  0.00    +0.000 HD
ENDBRANCH  11  23
BRANCH   2  25
ATOM     25  O   UNL     1      -1.976  11.746  17.419  0.00  0.00    +0.000 OA
BRANCH  25  26
ATOM     26  C   UNL     1      -3.141  11.073  16.884  0.00  0.00    +0.000 C 
ATOM     27  C   UNL     1      -4.431  11.799  17.272  0.00  0.00    +0.000 C 
ATOM     28  C   UNL     1      -3.037  11.018  15.369  0.00  0.00    +0.000 C 
ENDBRANCH  25  26
ENDBRANCH   2  25
TORSDOF 5
ENDMDL
MODEL 2
REMARK VINA RESULT:      -7.5      1.241      1.323
REMARK  Name = 
REMARK  8 active torsions:
REMARK  status: ('A' for Active; 'I' for Inactive)
REMARK    1  A    between atoms: C_1  and  O_2
REMARK    2  A    between atoms: O_2  and  C_3
REMARK    3  A    between atoms: C_4  and  O_5
REMARK    4  A    between atoms: O_5  and  C_6
REMARK    5  A    between atoms: C_6  and  C_7
REMARK    6  A    between atoms: C_6  and  C_8
REMARK    7  A    between atoms: C_12  and  C_13
REMARK    8  A    between atoms: C_26  and  O_27
REMARK                            x       y       z     vdW  Elec       q    Type
REMARK                         _______ _______ _______ _____ _____    ______ ____
ROOT
ATOM      1  C   UNL     1      -1.543  11.637  20.007  0.00  0.00    +0.000 A 
ATOM      2  C   UNL     1      -1.338  11.228  18.652  0.00  0.00    +0.000 A 
ATOM      3  C   UNL     1      -0.479  10.168  18.397  0.00  0.00    +0.000 A 
ATOM      4  C   UNL     1       0.273   9.574  19.398  0.00  0.00    +0.000 A 
ATOM      5  O   UNL     1       1.079   8.532  19.014  0.00  0.00    +0.000 OA
ATOM      6  C   UNL     1       1.787   7.848  19.985  0.00  0.00    +0.000 A 
ATOM      7  C   UNL     1       1.770   8.198  21.281  0.00  0.00    +0.000 A 
ATOM      8  C   UNL     1       0.972   9.351  21.711  0.00  0.00    +0.000 A 
ATOM      9  O   UNL     1       0.965   9.710  22.880  0.00  0.00    +0.000 OA
ATOM     10  C   UNL     1       0.171  10.022  20.693  0.00  0.00    +0.000 A 
ATOM     11  C   UNL     1      -0.733  11.064  21.007  0.00  0.00    +0.000 A 
ENDROOT
BRANCH   6  12
ATOM     12  C   UNL     1       2.525   6.730  19.500  0.00  0.00    +0.000 A 
ATOM     13  C   UNL     1       3.369   6.750  18.405  0.00  0.00    +0.000 A 
ATOM     14  O   UNL     1       3.942   5.537  18.213  0.00  0.00    +0.000 OA
ATOM     15  C   UNL     1       3.470   4.717  19.191  0.00  0.00    +0.000 A 
ATOM     16  C   UNL     1       3.822   3.379  19.353  0.00  0.00    +0.000 A 
ATOM     17  C   UNL     1       3.220   2.700  20.416  0.00  0.00    +0.000 A 
ATOM     18  C   UNL     1       2.314   3.342  21.264  0.00  0.00    +0.000 A 
ATOM     19  C   UNL     1       1.982   4.692  21.077  0.00  0.00    +0.000 A 
ATOM     20  C   UNL     1       2.580   5.399  20.014  0.00  0.00    +0.000 A 
ENDBRANCH   6  12
BRANCH   1  22
ATOM     21  C   UNL     1      -2.001  13.908  20.412  0.00  0.00    +0.000 C 
ATOM     22  O   UNL     1      -2.482  12.562  20.395  0.00  0.00    +0.000 OA
ENDBRANCH   1  22
BRANCH  11  23
ATOM     23  O   UNL     1      -0.854  11.480  22.318  0.00  0.00    +0.000 OA
ATOM     24  H   UNL     1      -1.806  11.621  22.533  0.00  0.00    +0.000 HD
ENDBRANCH  11  23
BRANCH   2  25
ATOM     25  O   UNL     1      -2.018  11.831  17.607  0.00  0.00    +0.000 OA
BRANCH  25  26
ATOM     26  C   UNL     1      -3.091  11.064  17.010  0.00  0.00    +0.000 C 
ATOM     27  C   UNL     1      -4.448  11.738  17.233  0.00  0.00    +0.000 C 
ATOM     28  C   UNL     1      -2.843  10.930  15.518  0.00  0.00    +0.000 C 
ENDBRANCH  25  26
ENDBRANCH   2  25
TORSDOF 5
ENDMDL
MODEL 3
REMARK VINA RESULT:      -7.4      2.595      8.250
REMARK  Name = 
REMARK  8 active torsions:
REMARK  status: ('A' for Active; 'I' for Inactive)
REMARK    1  A    between atoms: C_1  and  O_2
REMARK    2  A    between atoms: O_2  and  C_3
REMARK    3  A    between atoms: C_4  and  O_5
REMARK    4  A    between atoms: O_5  and  C_6
REMARK    5  A    between atoms: C_6  and  C_7
REMARK    6  A    between atoms: C_6  and  C_8
REMARK    7  A    between atoms: C_12  and  C_13
REMARK    8  A    between atoms: C_26  and  O_27
REMARK                            x       y       z     vdW  Elec       q    Type
REMARK                         _______ _______ _______ _____ _____    ______ ____
ROOT
ATOM      1  C   UNL     1       5.865   4.855  17.271  0.00  0.00    +0.000 A 
ATOM      2  C   UNL     1       5.618   5.924  16.354  0.00  0.00    +0.000 A 
ATOM      3  C   UNL     1       4.651   6.867  16.671  0.00  0.00    +0.000 A 
ATOM      4  C   UNL     1       3.839   6.740  17.788  0.00  0.00    +0.000 A 
ATOM      5  O   UNL     1       2.926   7.744  17.991  0.00  0.00    +0.000 OA
ATOM      6  C   UNL     1       2.149   7.712  19.134  0.00  0.00    +0.000 A 
ATOM      7  C   UNL     1       2.202   6.708  20.023  0.00  0.00    +0.000 A 
ATOM      8  C   UNL     1       3.118   5.586  19.796  0.00  0.00    +0.000 A 
ATOM      9  O   UNL     1       3.163   4.644  20.575  0.00  0.00    +0.000 OA
ATOM     10  C   UNL     1       3.988   5.663  18.627  0.00  0.00    +0.000 A 
ATOM     11  C   UNL     1       4.998   4.706  18.371  0.00  0.00    +0.000 A 
ENDROOT
BRANCH   6  12
ATOM     12  C   UNL     1       1.296   8.841  19.298  0.00  0.00    +0.000 A 
ATOM     13  C   UNL     1       0.863   9.666  18.276  0.00  0.00    +0.000 A 
ATOM     14  O   UNL     1       0.043  10.636  18.751  0.00  0.00    +0.000 OA
ATOM     15  C   UNL     1      -0.061  10.444  20.093  0.00  0.00    +0.000 A 
ATOM     16  C   UNL     1      -0.823  11.228  20.958  0.00  0.00    +0.000 A 
ATOM     17  C   UNL     1      -0.794  10.874  22.310  0.00  0.00    +0.000 A 
ATOM     18  C   UNL     1      -0.037   9.789  22.757  0.00  0.00    +0.000 A 
ATOM     19  C   UNL     1       0.717   9.016  21.862  0.00  0.00    +0.000 A 
ATOM     20  C   UNL     1       0.701   9.350  20.493  0.00  0.00    +0.000 A 
ENDBRANCH   6  12
BRANCH   1  22
ATOM     21  C   UNL     1       8.099   4.355  17.808  0.00  0.00    +0.000 C 
ATOM     22  O   UNL     1       6.897   3.958  17.144  0.00  0.00    +0.000 OA
ENDBRANCH   1  22
BRANCH  11  23
ATOM     23  O   UNL     1       5.161   3.648  19.244  0.00  0.00    +0.000 OA
ATOM     24  H   UNL     1       4.933   2.805  18.786  0.00  0.00    +0.000 HD
ENDBRANCH  11  23
BRANCH   2  25
ATOM     25  O   UNL     1       6.360   6.061  15.192  0.00  0.00    +0.000 OA
BRANCH  25  26
ATOM     26  C   UNL     1       6.660   4.841  14.473  0.00  0.00    +0.000 C 
ATOM     27  C   UNL     1       5.398   4.229  13.862  0.00  0.00    +0.000 C 
ATOM     28  C   UNL     1       7.654   5.142  13.365  0.00  0.00    +0.000 C 
ENDBRANCH  25  26
ENDBRANCH   2  25
TORSDOF 5
ENDMDL
MODEL 4
REMARK VINA RESULT:      -7.4      2.230      8.249
REMARK  Name = 
REMARK  8 active torsions:
REMARK  status: ('A' for Active; 'I' for Inactive)
REMARK    1  A    between atoms: C_1  and  O_2
REMARK    2  A    between atoms: O_2  and  C_3
REMARK    3  A    between atoms: C_4  and  O_5
REMARK    4  A    between atoms: O_5  and  C_6
REMARK    5  A    between atoms: C_6  and  C_7
REMARK    6  A    between atoms: C_6  and  C_8
REMARK    7  A    between atoms: C_12  and  C_13
REMARK    8  A    between atoms: C_26  and  O_27
REMARK                            x       y       z     vdW  Elec       q    Type
REMARK                         _______ _______ _______ _____ _____    ______ ____
ROOT
ATOM      1  C   UNL     1       3.003   5.872  18.420  0.00  0.00    +0.000 A 
ATOM      2  C   UNL     1       2.598   5.448  19.724  0.00  0.00    +0.000 A 
ATOM      3  C   UNL     1       1.873   6.325  20.518  0.00  0.00    +0.000 A 
ATOM      4  C   UNL     1       1.633   7.636  20.134  0.00  0.00    +0.000 A 
ATOM      5  O   UNL     1       0.899   8.397  21.007  0.00  0.00    +0.000 OA
ATOM      6  C   UNL     1       0.557   9.685  20.638  0.00  0.00    +0.000 A 
ATOM      7  C   UNL     1       0.965  10.246  19.489  0.00  0.00    +0.000 A 
ATOM      8  C   UNL     1       1.809   9.479  18.567  0.00  0.00    +0.000 A 
ATOM      9  O   UNL     1       2.221   9.978  17.529  0.00  0.00    +0.000 OA
ATOM     10  C   UNL     1       2.105   8.097  18.929  0.00  0.00    +0.000 A 
ATOM     11  C   UNL     1       2.801   7.220  18.065  0.00  0.00    +0.000 A 
ENDROOT
BRANCH   6  12
ATOM     12  C   UNL     1      -0.279  10.364  21.571  0.00  0.00    +0.000 A 
ATOM     13  C   UNL     1      -0.335  10.099  22.927  0.00  0.00    +0.000 A 
ATOM     14  O   UNL     1      -1.207  10.931  23.547  0.00  0.00    +0.000 OA
ATOM     15  C   UNL     1      -1.724  11.747  22.590  0.00  0.00    +0.000 A 
ATOM     16  C   UNL     1      -2.658  12.757  22.817  0.00  0.00    +0.000 A 
ATOM     17  C   UNL     1      -3.076  13.483  21.699  0.00  0.00    +0.000 A 
ATOM     18  C   UNL     1      -2.575  13.202  20.425  0.00  0.00    +0.000 A 
ATOM     19  C   UNL     1      -1.632  12.182  20.228  0.00  0.00    +0.000 A 
ATOM     20  C   UNL     1      -1.193  11.438  21.342  0.00  0.00    +0.000 A 
ENDBRANCH   6  12
BRANCH   1  22
ATOM     21  C   UNL     1       4.991   4.869  17.663  0.00  0.00    +0.000 C 
ATOM     22  O   UNL     1       3.583   5.045  17.489  0.00  0.00    +0.000 OA
ENDBRANCH   1  22
BRANCH  11  23
ATOM     23  O   UNL     1       3.238   7.687  16.840  0.00  0.00    +0.000 OA
ATOM     24  H   UNL     1       2.701   7.278  16.121  0.00  0.00    +0.000 HD
ENDBRANCH  11  23
BRANCH   2  25
ATOM     25  O   UNL     1       2.869   4.168  20.181  0.00  0.00    +0.000 OA
BRANCH  25  26
ATOM     26  C   UNL     1       1.729   3.292  20.353  0.00  0.00    +0.000 C 
ATOM     27  C   UNL     1       1.692   2.208  19.273  0.00  0.00    +0.000 C 
ATOM     28  C   UNL     1       1.806   2.630  21.718  0.00  0.00    +0.000 C 
ENDBRANCH  25  26
ENDBRANCH   2  25
TORSDOF 5
ENDMDL
MODEL 5
REMARK VINA RESULT:      -7.3      2.658      3.782
REMARK  Name = 
REMARK  8 active torsions:
REMARK  status: ('A' for Active; 'I' for Inactive)
REMARK    1  A    between atoms: C_1  and  O_2
REMARK    2  A    between atoms: O_2  and  C_3
REMARK    3  A    between atoms: C_4  and  O_5
REMARK    4  A    between atoms: O_5  and  C_6
REMARK    5  A    between atoms: C_6  and  C_7
REMARK    6  A    between atoms: C_6  and  C_8
REMARK    7  A    between atoms: C_12  and  C_13
REMARK    8  A    between atoms: C_26  and  O_27
REMARK                            x       y       z     vdW  Elec       q    Type
REMARK                         _______ _______ _______ _____ _____    ______ ____
ROOT
ATOM      1  C   UNL     1       0.765  11.789  20.524  0.00  0.00    +0.000 A 
ATOM      2  C   UNL     1       0.409  11.034  21.685  0.00  0.00    +0.000 A 
ATOM      3  C   UNL     1       0.660   9.670  21.699  0.00  0.00    +0.000 A 
ATOM      4  C   UNL     1       1.134   8.998  20.582  0.00  0.00    +0.000 A 
ATOM      5  O   UNL     1       1.346   7.651  20.730  0.00  0.00    +0.000 OA
ATOM      6  C   UNL     1       1.898   6.948  19.675  0.00  0.00    +0.000 A 
ATOM      7  C   UNL     1       2.178   7.512  18.490  0.00  0.00    +0.000 A 
ATOM      8  C   UNL     1       1.897   8.936  18.280  0.00  0.00    +0.000 A 
ATOM      9  O   UNL     1       2.113   9.467  17.200  0.00  0.00    +0.000 OA
ATOM     10  C   UNL     1       1.383   9.688  19.421  0.00  0.00    +0.000 A 
ATOM     11  C   UNL     1       1.193  11.089  19.379  0.00  0.00    +0.000 A 
ENDROOT
BRANCH   6  12
ATOM     12  C   UNL     1       2.161   5.576  19.955  0.00  0.00    +0.000 A 
ATOM     13  C   UNL     1       2.213   5.018  21.219  0.00  0.00    +0.000 A 
ATOM     14  O   UNL     1       2.458   3.687  21.152  0.00  0.00    +0.000 OA
ATOM     15  C   UNL     1       2.566   3.371  19.833  0.00  0.00    +0.000 A 
ATOM     16  C   UNL     1       2.809   2.093  19.333  0.00  0.00    +0.000 A 
ATOM     17  C   UNL     1       2.894   1.973  17.943  0.00  0.00    +0.000 A 
ATOM     18  C   UNL     1       2.741   3.084  17.110  0.00  0.00    +0.000 A 
ATOM     19  C   UNL     1       2.493   4.357  17.643  0.00  0.00    +0.000 A 
ATOM     20  C   UNL     1       2.399   4.503  19.042  0.00  0.00    +0.000 A 
ENDBRANCH   6  12
BRANCH   1  22
ATOM     21  C   UNL     1       1.864  13.816  20.987  0.00  0.00    +0.000 C 
ATOM     22  O   UNL     1       0.711  13.160  20.453  0.00  0.00    +0.000 OA
ENDBRANCH   1  22
BRANCH  11  23
ATOM     23  O   UNL     1       1.482  11.775  18.216  0.00  0.00    +0.000 OA
ATOM     24  H   UNL     1       1.638  11.133  17.485  0.00  0.00    +0.000 HD
ENDBRANCH  11  23
BRANCH   2  25
ATOM     25  O   UNL     1      -0.128  11.648  22.806  0.00  0.00    +0.000 OA
BRANCH  25  26
ATOM     26  C   UNL     1      -1.349  12.400  22.604  0.00  0.00    +0.000 C 
ATOM     27  C   UNL     1      -2.543  11.711  23.269  0.00  0.00    +0.000 C 
ATOM     28  C   UNL     1      -1.185  13.790  23.195  0.00  0.00    +0.000 C 
ENDBRANCH  25  26
ENDBRANCH   2  25
TORSDOF 5
ENDMDL
MODEL 6
REMARK VINA RESULT:      -7.3      1.253      1.867
REMARK  Name = 
REMARK  8 active torsions:
REMARK  status: ('A' for Active; 'I' for Inactive)
REMARK    1  A    between atoms: C_1  and  O_2
REMARK    2  A    between atoms: O_2  and  C_3
REMARK    3  A    between atoms: C_4  and  O_5
REMARK    4  A    between atoms: O_5  and  C_6
REMARK    5  A    between atoms: C_6  and  C_7
REMARK    6  A    between atoms: C_6  and  C_8
REMARK    7  A    between atoms: C_12  and  C_13
REMARK    8  A    between atoms: C_26  and  O_27
REMARK                            x       y       z     vdW  Elec       q    Type
REMARK                         _______ _______ _______ _____ _____    ______ ____
ROOT
ATOM      1  C   UNL     1      -1.381  11.639  20.012  0.00  0.00    +0.000 A 
ATOM      2  C   UNL     1      -1.206  11.177  18.670  0.00  0.00    +0.000 A 
ATOM      3  C   UNL     1      -0.392  10.077  18.442  0.00  0.00    +0.000 A 
ATOM      4  C   UNL     1       0.348   9.487  19.456  0.00  0.00    +0.000 A 
ATOM      5  O   UNL     1       1.109   8.403  19.100  0.00  0.00    +0.000 OA
ATOM      6  C   UNL     1       1.800   7.724  20.087  0.00  0.00    +0.000 A 
ATOM      7  C   UNL     1       1.810   8.118  21.370  0.00  0.00    +0.000 A 
ATOM      8  C   UNL     1       1.062   9.315  21.768  0.00  0.00    +0.000 A 
ATOM      9  O   UNL     1       1.081   9.712  22.925  0.00  0.00    +0.000 OA
ATOM     10  C   UNL     1       0.276   9.982  20.736  0.00  0.00    +0.000 A 
ATOM     11  C   UNL     1      -0.583  11.068  21.022  0.00  0.00    +0.000 A 
ENDROOT
BRANCH   6  12
ATOM     12  C   UNL     1       2.489   6.563  19.632  0.00  0.00    +0.000 A 
ATOM     13  C   UNL     1       2.415   5.314  20.221  0.00  0.00    +0.000 A 
ATOM     14  O   UNL     1       3.164   4.413  19.541  0.00  0.00    +0.000 OA
ATOM     15  C   UNL     1       3.733   5.077  18.498  0.00  0.00    +0.000 A 
ATOM     16  C   UNL     1       4.576   4.505  17.548  0.00  0.00    +0.000 A 
ATOM     17  C   UNL     1       5.068   5.358  16.556  0.00  0.00    +0.000 A 
ATOM     18  C   UNL     1       4.723   6.712  16.530  0.00  0.00    +0.000 A 
ATOM     19  C   UNL     1       3.869   7.258  17.499  0.00  0.00    +0.000 A 
ATOM     20  C   UNL     1       3.357   6.417  18.508  0.00  0.00    +0.000 A 
ENDBRANCH   6  12
BRANCH   1  22
ATOM     21  C   UNL     1      -1.755  13.941  20.315  0.00  0.00    +0.000 C 
ATOM     22  O   UNL     1      -2.279  12.612  20.377  0.00  0.00    +0.000 OA
ENDBRANCH   1  22
BRANCH  11  23
ATOM     23  O   UNL     1      -0.674  11.532  22.321  0.00  0.00    +0.000 OA
ATOM     24  H   UNL     1       0.140  11.281  22.817  0.00  0.00    +0.000 HD
ENDBRANCH  11  23
BRANCH   2  25
ATOM     25  O   UNL     1      -1.873  11.771  17.611  0.00  0.00    +0.000 OA
BRANCH  25  26
ATOM     26  C   UNL     1      -2.991  11.034  17.060  0.00  0.00    +0.000 C 
ATOM     27  C   UNL     1      -4.317  11.750  17.328  0.00  0.00    +0.000 C 
ATOM     28  C   UNL     1      -2.802  10.883  15.560  0.00  0.00    +0.000 C 
ENDBRANCH  25  26
ENDBRANCH   2  25
TORSDOF 5
ENDMDL
MODEL 7
REMARK VINA RESULT:      -7.3      2.319      8.159
REMARK  Name = 
REMARK  8 active torsions:
REMARK  status: ('A' for Active; 'I' for Inactive)
REMARK    1  A    between atoms: C_1  and  O_2
REMARK    2  A    between atoms: O_2  and  C_3
REMARK    3  A    between atoms: C_4  and  O_5
REMARK    4  A    between atoms: O_5  and  C_6
REMARK    5  A    between atoms: C_6  and  C_7
REMARK    6  A    between atoms: C_6  and  C_8
REMARK    7  A    between atoms: C_12  and  C_13
REMARK    8  A    between atoms: C_26  and  O_27
REMARK                            x       y       z     vdW  Elec       q    Type
REMARK                         _______ _______ _______ _____ _____    ______ ____
ROOT
ATOM      1  C   UNL     1       3.311   5.187  18.344  0.00  0.00    +0.000 A 
ATOM      2  C   UNL     1       2.961   4.768  19.666  0.00  0.00    +0.000 A 
ATOM      3  C   UNL     1       2.272   5.650  20.486  0.00  0.00    +0.000 A 
ATOM      4  C   UNL     1       2.017   6.960  20.107  0.00  0.00    +0.000 A 
ATOM      5  O   UNL     1       1.322   7.727  21.007  0.00  0.00    +0.000 OA
ATOM      6  C   UNL     1       0.967   9.014  20.647  0.00  0.00    +0.000 A 
ATOM      7  C   UNL     1       1.328   9.569  19.479  0.00  0.00    +0.000 A 
ATOM      8  C   UNL     1       2.131   8.796  18.526  0.00  0.00    +0.000 A 
ATOM      9  O   UNL     1       2.500   9.290  17.469  0.00  0.00    +0.000 OA
ATOM     10  C   UNL     1       2.439   7.415  18.881  0.00  0.00    +0.000 A 
ATOM     11  C   UNL     1       3.097   6.533  17.992  0.00  0.00    +0.000 A 
ENDROOT
BRANCH   6  12
ATOM     12  C   UNL     1       0.173   9.699  21.611  0.00  0.00    +0.000 A 
ATOM     13  C   UNL     1       0.155   9.423  22.966  0.00  0.00    +0.000 A 
ATOM     14  O   UNL     1      -0.683  10.264  23.620  0.00  0.00    +0.000 OA
ATOM     15  C   UNL     1      -1.217  11.096  22.686  0.00  0.00    +0.000 A 
ATOM     16  C   UNL     1      -2.126  12.119  22.951  0.00  0.00    +0.000 A 
ATOM     17  C   UNL     1      -2.567  12.861  21.852  0.00  0.00    +0.000 A 
ATOM     18  C   UNL     1      -2.111  12.583  20.561  0.00  0.00    +0.000 A 
ATOM     19  C   UNL     1      -1.192  11.549  20.326  0.00  0.00    +0.000 A 
ATOM     20  C   UNL     1      -0.730  10.789  21.420  0.00  0.00    +0.000 A 
ENDBRANCH   6  12
BRANCH   1  22
ATOM     21  C   UNL     1       5.275   4.255  17.447  0.00  0.00    +0.000 C 
ATOM     22  O   UNL     1       3.850   4.354  17.393  0.00  0.00    +0.000 OA
ENDBRANCH   1  22
BRANCH  11  23
ATOM     23  O   UNL     1       3.483   6.994  16.748  0.00  0.00    +0.000 OA
ATOM     24  H   UNL     1       3.455   6.252  16.099  0.00  0.00    +0.000 HD
ENDBRANCH  11  23
BRANCH   2  25
ATOM     25  O   UNL     1       3.248   3.490  20.117  0.00  0.00    +0.000 OA
BRANCH  25  26
ATOM     26  C   UNL     1       2.128   2.579  20.224  0.00  0.00    +0.000 C 
ATOM     27  C   UNL     1       1.481   2.653  21.609  0.00  0.00    +0.000 C 
ATOM     28  C   UNL     1       1.091   2.932  19.172  0.00  0.00    +0.000 C 
ENDBRANCH  25  26
ENDBRANCH   2  25
TORSDOF 5
ENDMDL
MODEL 8
REMARK VINA RESULT:      -7.2      2.206      8.027
REMARK  Name = 
REMARK  8 active torsions:
REMARK  status: ('A' for Active; 'I' for Inactive)
REMARK    1  A    between atoms: C_1  and  O_2
REMARK    2  A    between atoms: O_2  and  C_3
REMARK    3  A    between atoms: C_4  and  O_5
REMARK    4  A    between atoms: O_5  and  C_6
REMARK    5  A    between atoms: C_6  and  C_7
REMARK    6  A    between atoms: C_6  and  C_8
REMARK    7  A    between atoms: C_12  and  C_13
REMARK    8  A    between atoms: C_26  and  O_27
REMARK                            x       y       z     vdW  Elec       q    Type
REMARK                         _______ _______ _______ _____ _____    ______ ____
ROOT
ATOM      1  C   UNL     1       3.797   4.121  18.631  0.00  0.00    +0.000 A 
ATOM      2  C   UNL     1       3.118   4.179  19.888  0.00  0.00    +0.000 A 
ATOM      3  C   UNL     1       2.436   5.339  20.227  0.00  0.00    +0.000 A 
ATOM      4  C   UNL     1       2.491   6.480  19.441  0.00  0.00    +0.000 A 
ATOM      5  O   UNL     1       1.767   7.557  19.885  0.00  0.00    +0.000 OA
ATOM      6  C   UNL     1       1.718   8.693  19.098  0.00  0.00    +0.000 A 
ATOM      7  C   UNL     1       2.399   8.812  17.948  0.00  0.00    +0.000 A 
ATOM      8  C   UNL     1       3.237   7.702  17.482  0.00  0.00    +0.000 A 
ATOM      9  O   UNL     1       3.893   7.797  16.454  0.00  0.00    +0.000 OA
ATOM     10  C   UNL     1       3.226   6.480  18.280  0.00  0.00    +0.000 A 
ATOM     11  C   UNL     1       3.893   5.302  17.869  0.00  0.00    +0.000 A 
ENDROOT
BRANCH   6  12
ATOM     12  C   UNL     1       0.871   9.723  19.601  0.00  0.00    +0.000 A 
ATOM     13  C   UNL     1       0.402  10.795  18.866  0.00  0.00    +0.000 A 
ATOM     14  O   UNL     1      -0.400  11.586  19.620  0.00  0.00    +0.000 OA
ATOM     15  C   UNL     1      -0.456  11.025  20.859  0.00  0.00    +0.000 A 
ATOM     16  C   UNL     1      -1.186  11.530  21.934  0.00  0.00    +0.000 A 
ATOM     17  C   UNL     1      -1.108  10.813  23.131  0.00  0.00    +0.000 A 
ATOM     18  C   UNL     1      -0.336   9.653  23.231  0.00  0.00    +0.000 A 
ATOM     19  C   UNL     1       0.386   9.168  22.130  0.00  0.00    +0.000 A 
ATOM     20  C   UNL     1       0.320   9.872  20.910  0.00  0.00    +0.000 A 
ENDBRANCH   6  12
BRANCH   1  22
ATOM     21  C   UNL     1       3.431   2.061  17.557  0.00  0.00    +0.000 C 
ATOM     22  O   UNL     1       4.370   2.982  18.119  0.00  0.00    +0.000 OA
ENDBRANCH   1  22
BRANCH  11  23
ATOM     23  O   UNL     1       4.597   5.305  16.681  0.00  0.00    +0.000 OA
ATOM     24  H   UNL     1       5.561   5.389  16.871  0.00  0.00    +0.000 HD
ENDBRANCH  11  23
BRANCH   2  25
ATOM     25  O   UNL     1       3.085   3.086  20.739  0.00  0.00    +0.000 OA
BRANCH  25  26
ATOM     26  C   UNL     1       1.820   2.390  20.843  0.00  0.00    +0.000 C 
ATOM     27  C   UNL     1       1.194   2.577  22.227  0.00  0.00    +0.000 C 
ATOM     28  C   UNL     1       0.865   2.922  19.789  0.00  0.00    +0.000 C 
ENDBRANCH  25  26
ENDBRANCH   2  25
TORSDOF 5
ENDMDL
MODEL 9
REMARK VINA RESULT:      -7.1      1.878      8.028
REMARK  Name = 
REMARK  8 active torsions:
REMARK  status: ('A' for Active; 'I' for Inactive)
REMARK    1  A    between atoms: C_1  and  O_2
REMARK    2  A    between atoms: O_2  and  C_3
REMARK    3  A    between atoms: C_4  and  O_5
REMARK    4  A    between atoms: O_5  and  C_6
REMARK    5  A    between atoms: C_6  and  C_7
REMARK    6  A    between atoms: C_6  and  C_8
REMARK    7  A    between atoms: C_12  and  C_13
REMARK    8  A    between atoms: C_26  and  O_27
REMARK                            x       y       z     vdW  Elec       q    Type
REMARK                         _______ _______ _______ _____ _____    ______ ____
ROOT
ATOM      1  C   UNL     1       3.749   4.353  18.785  0.00  0.00    +0.000 A 
ATOM      2  C   UNL     1       3.042   4.414  20.026  0.00  0.00    +0.000 A 
ATOM      3  C   UNL     1       2.311   5.555  20.324  0.00  0.00    +0.000 A 
ATOM      4  C   UNL     1       2.342   6.680  19.513  0.00  0.00    +0.000 A 
ATOM      5  O   UNL     1       1.571   7.740  19.918  0.00  0.00    +0.000 OA
ATOM      6  C   UNL     1       1.497   8.855  19.103  0.00  0.00    +0.000 A 
ATOM      7  C   UNL     1       2.197   8.972  17.965  0.00  0.00    +0.000 A 
ATOM      8  C   UNL     1       3.085   7.884  17.542  0.00  0.00    +0.000 A 
ATOM      9  O   UNL     1       3.758   7.980  16.526  0.00  0.00    +0.000 OA
ATOM     10  C   UNL     1       3.101   6.681  18.368  0.00  0.00    +0.000 A 
ATOM     11  C   UNL     1       3.818   5.519  17.998  0.00  0.00    +0.000 A 
ENDROOT
BRANCH   6  12
ATOM     12  C   UNL     1       0.604   9.864  19.565  0.00  0.00    +0.000 A 
ATOM     13  C   UNL     1       0.765  10.598  20.726  0.00  0.00    +0.000 A 
ATOM     14  O   UNL     1      -0.239  11.496  20.875  0.00  0.00    +0.000 OA
ATOM     15  C   UNL     1      -1.063  11.350  19.802  0.00  0.00    +0.000 A 
ATOM     16  C   UNL     1      -2.217  12.096  19.571  0.00  0.00    +0.000 A 
ATOM     17  C   UNL     1      -2.937  11.789  18.413  0.00  0.00    +0.000 A 
ATOM     18  C   UNL     1      -2.510  10.784  17.541  0.00  0.00    +0.000 A 
ATOM     19  C   UNL     1      -1.342  10.052  17.799  0.00  0.00    +0.000 A 
ATOM     20  C   UNL     1      -0.597  10.346  18.959  0.00  0.00    +0.000 A 
ENDBRANCH   6  12
BRANCH   1  22
ATOM     21  C   UNL     1       3.506   2.334  17.604  0.00  0.00    +0.000 C 
ATOM     22  O   UNL     1       4.373   3.224  18.312  0.00  0.00    +0.000 OA
ENDBRANCH   1  22
BRANCH  11  23
ATOM     23  O   UNL     1       4.547   5.521  16.825  0.00  0.00    +0.000 OA
ATOM     24  H   UNL     1       3.999   5.148  16.096  0.00  0.00    +0.000 HD
ENDBRANCH  11  23
BRANCH   2  25
ATOM     25  O   UNL     1       3.031   3.341  20.902  0.00  0.00    +0.000 OA
BRANCH  25  26
ATOM     26  C   UNL     1       1.854   2.497  20.871  0.00  0.00    +0.000 C 
ATOM     27  C   UNL     1       1.175   2.439  22.241  0.00  0.00    +0.000 C 
ATOM     28  C   UNL     1       0.871   3.045  19.852  0.00  0.00    +0.000 C 
ENDBRANCH  25  26
ENDBRANCH   2  25
TORSDOF 5
ENDMDL
