MODEL 1
REMARK VINA RESULT:      -7.9      0.000      0.000
REMARK  Name = 
REMARK  13 active torsions:
REMARK  status: ('A' for Active; 'I' for Inactive)
REMARK    1  A    between atoms: C_1  and  C_2
REMARK    2  A    between atoms: C_2  and  C_3
REMARK    3  A    between atoms: C_3  and  C_4
REMARK    4  A    between atoms: C_5  and  O_6
REMARK    5  A    between atoms: O_6  and  C_7
REMARK    6  A    between atoms: C_7  and  C_8
REMARK    7  A    between atoms: C_8  and  C_9
REMARK    8  A    between atoms: C_9  and  C_10
REMARK    9  A    between atoms: C_10  and  O_11
REMARK   10  A    between atoms: O_11  and  C_12
REMARK   11  A    between atoms: C_15  and  C_16
REMARK   12  A    between atoms: C_16  and  O_18
REMARK   13  A    between atoms: C_24  and  C_25
REMARK                            x       y       z     vdW  Elec       q    Type
REMARK                         _______ _______ _______ _____ _____    ______ ____
ROOT
ATOM      1  C   UNL     1       6.625   5.621  17.372  0.00  0.00    +0.000 A 
ATOM      2  C   UNL     1       5.546   4.971  18.016  0.00  0.00    +0.000 A 
ATOM      3  C   UNL     1       4.758   4.032  17.337  0.00  0.00    +0.000 A 
ATOM      4  C   UNL     1       4.989   3.707  16.003  0.00  0.00    +0.000 A 
ATOM      5  C   UNL     1       6.018   4.368  15.325  0.00  0.00    +0.000 A 
ATOM      6  C   UNL     1       6.545   4.373  14.001  0.00  0.00    +0.000 A 
ATOM      7  N   UNL     1       7.599   5.202  13.920  0.00  0.00    +0.000 NA
ATOM      8  O   UNL     1       7.749   5.763  15.180  0.00  0.00    +0.000 OA
ATOM      9  C   UNL     1       6.799   5.272  16.023  0.00  0.00    +0.000 A 
ENDROOT
BRANCH   6  10
ATOM     10  C   UNL     1       6.071   3.607  12.843  0.00  0.00    +0.000 A 
ATOM     11  C   UNL     1       4.761   3.758  12.358  0.00  0.00    +0.000 A 
ATOM     12  C   UNL     1       4.296   2.984  11.293  0.00  0.00    +0.000 A 
ATOM     13  C   UNL     1       5.143   2.065  10.681  0.00  0.00    +0.000 A 
ATOM     14  C   UNL     1       6.453   1.922  11.133  0.00  0.00    +0.000 A 
ATOM     15  C   UNL     1       6.916   2.687  12.209  0.00  0.00    +0.000 A 
ENDBRANCH   6  10
BRANCH   1  16
ATOM     16  C   UNL     1       7.499   6.634  18.070  0.00  0.00    +0.000 C 
BRANCH  16  18
ATOM     17  C   UNL     1       8.340   9.009  18.156  0.00  0.00    +0.000 C 
ATOM     18  C   UNL     1       7.386   8.037  17.471  0.00  0.00    +0.000 C 
ENDBRANCH  16  18
ENDBRANCH   1  16
BRANCH   2  19
ATOM     19  O   UNL     1       5.343   5.276  19.340  0.00  0.00    +0.000 OA
BRANCH  19  20
ATOM     20  C   UNL     1       4.085   4.889  19.900  0.00  0.00    +0.000 C 
BRANCH  20  21
ATOM     21  C   UNL     1       3.097   6.062  19.971  0.00  0.00    +0.000 C 
BRANCH  21  22
ATOM     22  C   UNL     1       2.456   6.424  18.633  0.00  0.00    +0.000 C 
BRANCH  22  23
ATOM     23  C   UNL     1       2.790   7.848  18.219  0.00  0.00    +0.000 C 
BRANCH  23  24
ATOM     24  O   UNL     1       1.584   8.529  17.893  0.00  0.00    +0.000 OA
BRANCH  24  25
ATOM     25  C   UNL     1       1.111   9.360  18.869  0.00  0.00    +0.000 A 
ATOM     26  C   UNL     1       0.563  10.557  18.410  0.00  0.00    +0.000 A 
ATOM     27  C   UNL     1       0.043  11.488  19.315  0.00  0.00    +0.000 A 
ATOM     28  C   UNL     1       0.060  11.215  20.688  0.00  0.00    +0.000 A 
ATOM     29  C   UNL     1       0.574   9.998  21.147  0.00  0.00    +0.000 A 
ATOM     30  C   UNL     1       1.104   9.078  20.238  0.00  0.00    +0.000 A 
BRANCH  28  31
ATOM     31  C   UNL     1      -0.535  12.221  21.603  0.00  0.00    +0.000 C 
ATOM     32  O   UNL     1       0.134  13.046  22.201  0.00  0.00    +0.000 OA
BRANCH  31  33
ATOM     33  O   UNL     1      -1.875  12.123  21.746  0.00  0.00    +0.000 OA
ATOM     34  H   UNL     1      -2.219  12.336  22.631  0.00  0.00    +0.000 HD
ENDBRANCH  31  33
ENDBRANCH  28  31
ENDBRANCH  24  25
ENDBRANCH  23  24
ENDBRANCH  22  23
ENDBRANCH  21  22
ENDBRANCH  20  21
ENDBRANCH  19  20
ENDBRANCH   2  19
TORSDOF 12
ENDMDL
MODEL 2
REMARK VINA RESULT:      -7.8      0.878      1.435
REMARK  Name = 
REMARK  13 active torsions:
REMARK  status: ('A' for Active; 'I' for Inactive)
REMARK    1  A    between atoms: C_1  and  C_2
REMARK    2  A    between atoms: C_2  and  C_3
REMARK    3  A    between atoms: C_3  and  C_4
REMARK    4  A    between atoms: C_5  and  O_6
REMARK    5  A    between atoms: O_6  and  C_7
REMARK    6  A    between atoms: C_7  and  C_8
REMARK    7  A    between atoms: C_8  and  C_9
REMARK    8  A    between atoms: C_9  and  C_10
REMARK    9  A    between atoms: C_10  and  O_11
REMARK   10  A    between atoms: O_11  and  C_12
REMARK   11  A    between atoms: C_15  and  C_16
REMARK   12  A    between atoms: C_16  and  O_18
REMARK   13  A    between atoms: C_24  and  C_25
REMARK                            x       y       z     vdW  Elec       q    Type
REMARK                         _______ _______ _______ _____ _____    ______ ____
ROOT
ATOM      1  C   UNL     1       6.660   5.531  17.343  0.00  0.00    +0.000 A 
ATOM      2  C   UNL     1       5.607   4.855  18.003  0.00  0.00    +0.000 A 
ATOM      3  C   UNL     1       4.823   3.907  17.332  0.00  0.00    +0.000 A 
ATOM      4  C   UNL     1       5.034   3.595  15.991  0.00  0.00    +0.000 A 
ATOM      5  C   UNL     1       6.037   4.281  15.298  0.00  0.00    +0.000 A 
ATOM      6  C   UNL     1       6.536   4.306  13.964  0.00  0.00    +0.000 A 
ATOM      7  N   UNL     1       7.572   5.155  13.869  0.00  0.00    +0.000 NA
ATOM      8  O   UNL     1       7.737   5.710  15.129  0.00  0.00    +0.000 OA
ATOM      9  C   UNL     1       6.813   5.195  15.987  0.00  0.00    +0.000 A 
ENDROOT
BRANCH   6  10
ATOM     10  C   UNL     1       6.054   3.539  12.810  0.00  0.00    +0.000 A 
ATOM     11  C   UNL     1       6.899   2.651  12.124  0.00  0.00    +0.000 A 
ATOM     12  C   UNL     1       6.453   1.966  10.991  0.00  0.00    +0.000 A 
ATOM     13  C   UNL     1       5.147   2.143  10.543  0.00  0.00    +0.000 A 
ATOM     14  C   UNL     1       4.288   2.999  11.229  0.00  0.00    +0.000 A 
ATOM     15  C   UNL     1       4.738   3.695  12.356  0.00  0.00    +0.000 A 
ENDBRANCH   6  10
BRANCH   1  16
ATOM     16  C   UNL     1       7.528   6.555  18.030  0.00  0.00    +0.000 C 
BRANCH  16  18
ATOM     17  C   UNL     1       8.356   8.936  18.094  0.00  0.00    +0.000 C 
ATOM     18  C   UNL     1       7.417   7.949  17.410  0.00  0.00    +0.000 C 
ENDBRANCH  16  18
ENDBRANCH   1  16
BRANCH   2  19
ATOM     19  O   UNL     1       5.425   5.147  19.333  0.00  0.00    +0.000 OA
BRANCH  19  20
ATOM     20  C   UNL     1       4.472   4.345  20.039  0.00  0.00    +0.000 C 
BRANCH  20  21
ATOM     21  C   UNL     1       3.140   5.078  20.249  0.00  0.00    +0.000 C 
BRANCH  21  22
ATOM     22  C   UNL     1       2.174   4.973  19.071  0.00  0.00    +0.000 C 
BRANCH  22  23
ATOM     23  C   UNL     1       2.140   6.258  18.259  0.00  0.00    +0.000 C 
BRANCH  23  24
ATOM     24  O   UNL     1       2.688   7.313  19.040  0.00  0.00    +0.000 OA
BRANCH  24  25
ATOM     25  C   UNL     1       1.823   8.334  19.315  0.00  0.00    +0.000 A 
ATOM     26  C   UNL     1       1.543   9.177  18.240  0.00  0.00    +0.000 A 
ATOM     27  C   UNL     1       0.667  10.256  18.399  0.00  0.00    +0.000 A 
ATOM     28  C   UNL     1       0.058  10.488  19.638  0.00  0.00    +0.000 A 
ATOM     29  C   UNL     1       0.309   9.621  20.707  0.00  0.00    +0.000 A 
ATOM     30  C   UNL     1       1.195   8.552  20.545  0.00  0.00    +0.000 A 
BRANCH  28  31
ATOM     31  C   UNL     1      -0.888  11.627  19.744  0.00  0.00    +0.000 C 
ATOM     32  O   UNL     1      -2.040  11.566  19.353  0.00  0.00    +0.000 OA
BRANCH  31  33
ATOM     33  O   UNL     1      -0.354  12.749  20.276  0.00  0.00    +0.000 OA
ATOM     34  H   UNL     1      -0.273  12.755  21.246  0.00  0.00    +0.000 HD
ENDBRANCH  31  33
ENDBRANCH  28  31
ENDBRANCH  24  25
ENDBRANCH  23  24
ENDBRANCH  22  23
ENDBRANCH  21  22
ENDBRANCH  20  21
ENDBRANCH  19  20
ENDBRANCH   2  19
TORSDOF 12
ENDMDL
MODEL 3
REMARK VINA RESULT:      -7.7      2.597      5.278
REMARK  Name = 
REMARK  13 active torsions:
REMARK  status: ('A' for Active; 'I' for Inactive)
REMARK    1  A    between atoms: C_1  and  C_2
REMARK    2  A    between atoms: C_2  and  C_3
REMARK    3  A    between atoms: C_3  and  C_4
REMARK    4  A    between atoms: C_5  and  O_6
REMARK    5  A    between atoms: O_6  and  C_7
REMARK    6  A    between atoms: C_7  and  C_8
REMARK    7  A    between atoms: C_8  and  C_9
REMARK    8  A    between atoms: C_9  and  C_10
REMARK    9  A    between atoms: C_10  and  O_11
REMARK   10  A    between atoms: O_11  and  C_12
REMARK   11  A    between atoms: C_15  and  C_16
REMARK   12  A    between atoms: C_16  and  O_18
REMARK   13  A    between atoms: C_24  and  C_25
REMARK                            x       y       z     vdW  Elec       q    Type
REMARK                         _______ _______ _______ _____ _____    ______ ____
ROOT
ATOM      1  C   UNL     1       2.323   5.727  19.797  0.00  0.00    +0.000 A 
ATOM      2  C   UNL     1       2.088   7.081  19.462  0.00  0.00    +0.000 A 
ATOM      3  C   UNL     1       2.674   7.658  18.327  0.00  0.00    +0.000 A 
ATOM      4  C   UNL     1       3.518   6.935  17.489  0.00  0.00    +0.000 A 
ATOM      5  C   UNL     1       3.808   5.607  17.819  0.00  0.00    +0.000 A 
ATOM      6  C   UNL     1       4.622   4.566  17.287  0.00  0.00    +0.000 A 
ATOM      7  N   UNL     1       4.480   3.445  18.013  0.00  0.00    +0.000 NA
ATOM      8  O   UNL     1       3.598   3.755  19.038  0.00  0.00    +0.000 OA
ATOM      9  C   UNL     1       3.199   5.052  18.930  0.00  0.00    +0.000 A 
ENDROOT
BRANCH   6  10
ATOM     10  C   UNL     1       5.502   4.625  16.116  0.00  0.00    +0.000 A 
ATOM     11  C   UNL     1       6.706   5.349  16.146  0.00  0.00    +0.000 A 
ATOM     12  C   UNL     1       7.513   5.451  15.011  0.00  0.00    +0.000 A 
ATOM     13  C   UNL     1       7.138   4.807  13.835  0.00  0.00    +0.000 A 
ATOM     14  C   UNL     1       5.962   4.062  13.795  0.00  0.00    +0.000 A 
ATOM     15  C   UNL     1       5.146   3.972  14.929  0.00  0.00    +0.000 A 
ENDBRANCH   6  10
BRANCH   1  16
ATOM     16  C   UNL     1       1.709   5.069  21.008  0.00  0.00    +0.000 C 
BRANCH  16  18
ATOM     17  C   UNL     1       1.474   2.651  21.684  0.00  0.00    +0.000 C 
ATOM     18  C   UNL     1       1.049   3.725  20.690  0.00  0.00    +0.000 C 
ENDBRANCH  16  18
ENDBRANCH   1  16
BRANCH   2  19
ATOM     19  O   UNL     1       1.231   7.779  20.279  0.00  0.00    +0.000 OA
BRANCH  19  20
ATOM     20  C   UNL     1       1.816   8.787  21.109  0.00  0.00    +0.000 C 
BRANCH  20  21
ATOM     21  C   UNL     1       1.038   8.986  22.416  0.00  0.00    +0.000 C 
BRANCH  21  22
ATOM     22  C   UNL     1      -0.191   9.881  22.285  0.00  0.00    +0.000 C 
BRANCH  22  23
ATOM     23  C   UNL     1       0.020  10.975  21.251  0.00  0.00    +0.000 C 
BRANCH  23  24
ATOM     24  O   UNL     1      -1.229  11.600  20.977  0.00  0.00    +0.000 OA
BRANCH  24  25
ATOM     25  C   UNL     1      -1.695  11.421  19.705  0.00  0.00    +0.000 A 
ATOM     26  C   UNL     1      -0.967  10.518  18.931  0.00  0.00    +0.000 A 
ATOM     27  C   UNL     1      -1.351  10.250  17.613  0.00  0.00    +0.000 A 
ATOM     28  C   UNL     1      -2.476  10.879  17.069  0.00  0.00    +0.000 A 
ATOM     29  C   UNL     1      -3.229  11.756  17.856  0.00  0.00    +0.000 A 
ATOM     30  C   UNL     1      -2.833  12.030  19.168  0.00  0.00    +0.000 A 
BRANCH  28  31
ATOM     31  C   UNL     1      -2.859  10.534  15.677  0.00  0.00    +0.000 C 
ATOM     32  O   UNL     1      -2.489   9.513  15.124  0.00  0.00    +0.000 OA
BRANCH  31  33
ATOM     33  O   UNL     1      -3.622  11.464  15.060  0.00  0.00    +0.000 OA
ATOM     34  H   UNL     1      -3.459  12.385  15.328  0.00  0.00    +0.000 HD
ENDBRANCH  31  33
ENDBRANCH  28  31
ENDBRANCH  24  25
ENDBRANCH  23  24
ENDBRANCH  22  23
ENDBRANCH  21  22
ENDBRANCH  20  21
ENDBRANCH  19  20
ENDBRANCH   2  19
TORSDOF 12
ENDMDL
MODEL 4
REMARK VINA RESULT:      -7.7      2.761      5.163
REMARK  Name = 
REMARK  13 active torsions:
REMARK  status: ('A' for Active; 'I' for Inactive)
REMARK    1  A    between atoms: C_1  and  C_2
REMARK    2  A    between atoms: C_2  and  C_3
REMARK    3  A    between atoms: C_3  and  C_4
REMARK    4  A    between atoms: C_5  and  O_6
REMARK    5  A    between atoms: O_6  and  C_7
REMARK    6  A    between atoms: C_7  and  C_8
REMARK    7  A    between atoms: C_8  and  C_9
REMARK    8  A    between atoms: C_9  and  C_10
REMARK    9  A    between atoms: C_10  and  O_11
REMARK   10  A    between atoms: O_11  and  C_12
REMARK   11  A    between atoms: C_15  and  C_16
REMARK   12  A    between atoms: C_16  and  O_18
REMARK   13  A    between atoms: C_24  and  C_25
REMARK                            x       y       z     vdW  Elec       q    Type
REMARK                         _______ _______ _______ _____ _____    ______ ____
ROOT
ATOM      1  C   UNL     1       1.840   4.676  19.606  0.00  0.00    +0.000 A 
ATOM      2  C   UNL     1       2.099   6.025  19.945  0.00  0.00    +0.000 A 
ATOM      3  C   UNL     1       3.027   6.787  19.223  0.00  0.00    +0.000 A 
ATOM      4  C   UNL     1       3.743   6.255  18.155  0.00  0.00    +0.000 A 
ATOM      5  C   UNL     1       3.545   4.910  17.825  0.00  0.00    +0.000 A 
ATOM      6  C   UNL     1       4.079   3.991  16.876  0.00  0.00    +0.000 A 
ATOM      7  N   UNL     1       3.470   2.799  16.986  0.00  0.00    +0.000 NA
ATOM      8  O   UNL     1       2.558   2.923  18.024  0.00  0.00    +0.000 OA
ATOM      9  C   UNL     1       2.605   4.184  18.535  0.00  0.00    +0.000 A 
ENDROOT
BRANCH   6  10
ATOM     10  C   UNL     1       5.129   4.236  15.882  0.00  0.00    +0.000 A 
ATOM     11  C   UNL     1       4.934   3.923  14.526  0.00  0.00    +0.000 A 
ATOM     12  C   UNL     1       5.957   4.104  13.593  0.00  0.00    +0.000 A 
ATOM     13  C   UNL     1       7.183   4.623  14.000  0.00  0.00    +0.000 A 
ATOM     14  C   UNL     1       7.383   4.964  15.335  0.00  0.00    +0.000 A 
ATOM     15  C   UNL     1       6.363   4.770  16.273  0.00  0.00    +0.000 A 
ENDBRANCH   6  10
BRANCH   1  16
ATOM     16  C   UNL     1       0.846   3.824  20.355  0.00  0.00    +0.000 C 
BRANCH  16  18
ATOM     17  C   UNL     1       2.726   2.563  21.466  0.00  0.00    +0.000 C 
ATOM     18  C   UNL     1       1.397   3.279  21.675  0.00  0.00    +0.000 C 
ENDBRANCH  16  18
ENDBRANCH   1  16
BRANCH   2  19
ATOM     19  O   UNL     1       1.368   6.551  20.982  0.00  0.00    +0.000 OA
BRANCH  19  20
ATOM     20  C   UNL     1       0.753   7.823  20.751  0.00  0.00    +0.000 C 
BRANCH  20  21
ATOM     21  C   UNL     1      -0.169   8.239  21.905  0.00  0.00    +0.000 C 
BRANCH  21  22
ATOM     22  C   UNL     1       0.162   9.599  22.514  0.00  0.00    +0.000 C 
BRANCH  22  23
ATOM     23  C   UNL     1      -0.798  10.676  22.036  0.00  0.00    +0.000 C 
BRANCH  23  24
ATOM     24  O   UNL     1      -0.251  11.303  20.881  0.00  0.00    +0.000 OA
BRANCH  24  25
ATOM     25  C   UNL     1      -1.048  11.260  19.772  0.00  0.00    +0.000 A 
ATOM     26  C   UNL     1      -0.611  10.404  18.763  0.00  0.00    +0.000 A 
ATOM     27  C   UNL     1      -1.346  10.273  17.581  0.00  0.00    +0.000 A 
ATOM     28  C   UNL     1      -2.534  10.994  17.411  0.00  0.00    +0.000 A 
ATOM     29  C   UNL     1      -2.995  11.824  18.438  0.00  0.00    +0.000 A 
ATOM     30  C   UNL     1      -2.248  11.960  19.611  0.00  0.00    +0.000 A 
BRANCH  28  31
ATOM     31  C   UNL     1      -3.294  10.793  16.151  0.00  0.00    +0.000 C 
ATOM     32  O   UNL     1      -2.761  10.478  15.102  0.00  0.00    +0.000 OA
BRANCH  31  33
ATOM     33  O   UNL     1      -4.621  11.026  16.256  0.00  0.00    +0.000 OA
ATOM     34  H   UNL     1      -4.899  11.515  17.050  0.00  0.00    +0.000 HD
ENDBRANCH  31  33
ENDBRANCH  28  31
ENDBRANCH  24  25
ENDBRANCH  23  24
ENDBRANCH  22  23
ENDBRANCH  21  22
ENDBRANCH  20  21
ENDBRANCH  19  20
ENDBRANCH   2  19
TORSDOF 12
ENDMDL
MODEL 5
REMARK VINA RESULT:      -7.6      2.550      5.193
REMARK  Name = 
REMARK  13 active torsions:
REMARK  status: ('A' for Active; 'I' for Inactive)
REMARK    1  A    between atoms: C_1  and  C_2
REMARK    2  A    between atoms: C_2  and  C_3
REMARK    3  A    between atoms: C_3  and  C_4
REMARK    4  A    between atoms: C_5  and  O_6
REMARK    5  A    between atoms: O_6  and  C_7
REMARK    6  A    between atoms: C_7  and  C_8
REMARK    7  A    between atoms: C_8  and  C_9
REMARK    8  A    between atoms: C_9  and  C_10
REMARK    9  A    between atoms: C_10  and  O_11
REMARK   10  A    between atoms: O_11  and  C_12
REMARK   11  A    between atoms: C_15  and  C_16
REMARK   12  A    between atoms: C_16  and  O_18
REMARK   13  A    between atoms: C_24  and  C_25
REMARK                            x       y       z     vdW  Elec       q    Type
REMARK                         _______ _______ _______ _____ _____    ______ ____
ROOT
ATOM      1  C   UNL     1       2.381   5.642  19.759  0.00  0.00    +0.000 A 
ATOM      2  C   UNL     1       2.130   6.991  19.415  0.00  0.00    +0.000 A 
ATOM      3  C   UNL     1       2.707   7.565  18.274  0.00  0.00    +0.000 A 
ATOM      4  C   UNL     1       3.558   6.845  17.439  0.00  0.00    +0.000 A 
ATOM      5  C   UNL     1       3.863   5.523  17.780  0.00  0.00    +0.000 A 
ATOM      6  C   UNL     1       4.687   4.487  17.254  0.00  0.00    +0.000 A 
ATOM      7  N   UNL     1       4.559   3.370  17.989  0.00  0.00    +0.000 NA
ATOM      8  O   UNL     1       3.676   3.678  19.013  0.00  0.00    +0.000 OA
ATOM      9  C   UNL     1       3.262   4.970  18.896  0.00  0.00    +0.000 A 
ENDROOT
BRANCH   6  10
ATOM     10  C   UNL     1       5.565   4.546  16.080  0.00  0.00    +0.000 A 
ATOM     11  C   UNL     1       6.768   5.271  16.108  0.00  0.00    +0.000 A 
ATOM     12  C   UNL     1       7.572   5.373  14.971  0.00  0.00    +0.000 A 
ATOM     13  C   UNL     1       7.195   4.730  13.795  0.00  0.00    +0.000 A 
ATOM     14  C   UNL     1       6.019   3.984  13.759  0.00  0.00    +0.000 A 
ATOM     15  C   UNL     1       5.206   3.893  14.894  0.00  0.00    +0.000 A 
ENDBRANCH   6  10
BRANCH   1  16
ATOM     16  C   UNL     1       1.776   4.986  20.976  0.00  0.00    +0.000 C 
BRANCH  16  18
ATOM     17  C   UNL     1       1.504   2.556  21.591  0.00  0.00    +0.000 C 
ATOM     18  C   UNL     1       1.058   3.674  20.656  0.00  0.00    +0.000 C 
ENDBRANCH  16  18
ENDBRANCH   1  16
BRANCH   2  19
ATOM     19  O   UNL     1       1.267   7.685  20.227  0.00  0.00    +0.000 OA
BRANCH  19  20
ATOM     20  C   UNL     1       1.831   8.753  20.995  0.00  0.00    +0.000 C 
BRANCH  20  21
ATOM     21  C   UNL     1       1.046   9.016  22.287  0.00  0.00    +0.000 C 
BRANCH  21  22
ATOM     22  C   UNL     1      -0.210   9.862  22.098  0.00  0.00    +0.000 C 
BRANCH  22  23
ATOM     23  C   UNL     1       0.109  11.205  21.460  0.00  0.00    +0.000 C 
BRANCH  23  24
ATOM     24  O   UNL     1      -1.097  11.788  20.983  0.00  0.00    +0.000 OA
BRANCH  24  25
ATOM     25  C   UNL     1      -1.459  11.411  19.720  0.00  0.00    +0.000 A 
ATOM     26  C   UNL     1      -2.639  11.984  19.248  0.00  0.00    +0.000 A 
ATOM     27  C   UNL     1      -3.108  11.676  17.967  0.00  0.00    +0.000 A 
ATOM     28  C   UNL     1      -2.388  10.800  17.148  0.00  0.00    +0.000 A 
ATOM     29  C   UNL     1      -1.184  10.255  17.606  0.00  0.00    +0.000 A 
ATOM     30  C   UNL     1      -0.727  10.555  18.892  0.00  0.00    +0.000 A 
BRANCH  28  31
ATOM     31  C   UNL     1      -2.913  10.533  15.785  0.00  0.00    +0.000 C 
ATOM     32  O   UNL     1      -3.439  11.393  15.101  0.00  0.00    +0.000 OA
BRANCH  31  33
ATOM     33  O   UNL     1      -2.791   9.249  15.381  0.00  0.00    +0.000 OA
ATOM     34  H   UNL     1      -1.992   9.046  14.865  0.00  0.00    +0.000 HD
ENDBRANCH  31  33
ENDBRANCH  28  31
ENDBRANCH  24  25
ENDBRANCH  23  24
ENDBRANCH  22  23
ENDBRANCH  21  22
ENDBRANCH  20  21
ENDBRANCH  19  20
ENDBRANCH   2  19
TORSDOF 12
ENDMDL
MODEL 6
REMARK VINA RESULT:      -7.6      1.270      1.637
REMARK  Name = 
REMARK  13 active torsions:
REMARK  status: ('A' for Active; 'I' for Inactive)
REMARK    1  A    between atoms: C_1  and  C_2
REMARK    2  A    between atoms: C_2  and  C_3
REMARK    3  A    between atoms: C_3  and  C_4
REMARK    4  A    between atoms: C_5  and  O_6
REMARK    5  A    between atoms: O_6  and  C_7
REMARK    6  A    between atoms: C_7  and  C_8
REMARK    7  A    between atoms: C_8  and  C_9
REMARK    8  A    between atoms: C_9  and  C_10
REMARK    9  A    between atoms: C_10  and  O_11
REMARK   10  A    between atoms: O_11  and  C_12
REMARK   11  A    between atoms: C_15  and  C_16
REMARK   12  A    between atoms: C_16  and  O_18
REMARK   13  A    between atoms: C_24  and  C_25
REMARK                            x       y       z     vdW  Elec       q    Type
REMARK                         _______ _______ _______ _____ _____    ______ ____
ROOT
ATOM      1  C   UNL     1       6.338   5.447  17.499  0.00  0.00    +0.000 A 
ATOM      2  C   UNL     1       5.219   4.784  18.054  0.00  0.00    +0.000 A 
ATOM      3  C   UNL     1       4.464   3.880  17.296  0.00  0.00    +0.000 A 
ATOM      4  C   UNL     1       4.769   3.602  15.966  0.00  0.00    +0.000 A 
ATOM      5  C   UNL     1       5.842   4.278  15.374  0.00  0.00    +0.000 A 
ATOM      6  C   UNL     1       6.444   4.327  14.083  0.00  0.00    +0.000 A 
ATOM      7  N   UNL     1       7.507   5.148  14.095  0.00  0.00    +0.000 NA
ATOM      8  O   UNL     1       7.588   5.660  15.382  0.00  0.00    +0.000 OA
ATOM      9  C   UNL     1       6.587   5.147  16.149  0.00  0.00    +0.000 A 
ENDROOT
BRANCH   6  10
ATOM     10  C   UNL     1       6.032   3.609  12.873  0.00  0.00    +0.000 A 
ATOM     11  C   UNL     1       4.743   3.767  12.337  0.00  0.00    +0.000 A 
ATOM     12  C   UNL     1       4.335   3.037  11.218  0.00  0.00    +0.000 A 
ATOM     13  C   UNL     1       5.222   2.157  10.604  0.00  0.00    +0.000 A 
ATOM     14  C   UNL     1       6.513   2.010  11.106  0.00  0.00    +0.000 A 
ATOM     15  C   UNL     1       6.917   2.731  12.235  0.00  0.00    +0.000 A 
ENDBRANCH   6  10
BRANCH   1  16
ATOM     16  C   UNL     1       7.178   6.425  18.284  0.00  0.00    +0.000 C 
BRANCH  16  18
ATOM     17  C   UNL     1       8.390   8.636  18.297  0.00  0.00    +0.000 C 
ATOM     18  C   UNL     1       7.405   7.747  17.548  0.00  0.00    +0.000 C 
ENDBRANCH  16  18
ENDBRANCH   1  16
BRANCH   2  19
ATOM     19  O   UNL     1       4.942   5.042  19.375  0.00  0.00    +0.000 OA
BRANCH  19  20
ATOM     20  C   UNL     1       3.957   4.211  19.996  0.00  0.00    +0.000 C 
BRANCH  20  21
ATOM     21  C   UNL     1       2.937   5.024  20.805  0.00  0.00    +0.000 C 
BRANCH  21  22
ATOM     22  C   UNL     1       1.895   5.747  19.955  0.00  0.00    +0.000 C 
BRANCH  22  23
ATOM     23  C   UNL     1       2.381   7.120  19.520  0.00  0.00    +0.000 C 
BRANCH  23  24
ATOM     24  O   UNL     1       1.960   8.084  20.478  0.00  0.00    +0.000 OA
BRANCH  24  25
ATOM     25  C   UNL     1       1.082   9.019  20.006  0.00  0.00    +0.000 A 
ATOM     26  C   UNL     1       1.182   9.286  18.641  0.00  0.00    +0.000 A 
ATOM     27  C   UNL     1       0.334  10.223  18.042  0.00  0.00    +0.000 A 
ATOM     28  C   UNL     1      -0.629  10.889  18.810  0.00  0.00    +0.000 A 
ATOM     29  C   UNL     1      -0.756  10.594  20.171  0.00  0.00    +0.000 A 
ATOM     30  C   UNL     1       0.104   9.666  20.767  0.00  0.00    +0.000 A 
BRANCH  28  31
ATOM     31  C   UNL     1      -1.526  11.848  18.119  0.00  0.00    +0.000 C 
ATOM     32  O   UNL     1      -2.188  11.547  17.141  0.00  0.00    +0.000 OA
BRANCH  31  33
ATOM     33  O   UNL     1      -1.519  13.095  18.641  0.00  0.00    +0.000 OA
ATOM     34  H   UNL     1      -2.192  13.268  19.322  0.00  0.00    +0.000 HD
ENDBRANCH  31  33
ENDBRANCH  28  31
ENDBRANCH  24  25
ENDBRANCH  23  24
ENDBRANCH  22  23
ENDBRANCH  21  22
ENDBRANCH  20  21
ENDBRANCH  19  20
ENDBRANCH   2  19
TORSDOF 12
ENDMDL
MODEL 7
REMARK VINA RESULT:      -7.6      3.719     10.889
REMARK  Name = 
REMARK  13 active torsions:
REMARK  status: ('A' for Active; 'I' for Inactive)
REMARK    1  A    between atoms: C_1  and  C_2
REMARK    2  A    between atoms: C_2  and  C_3
REMARK    3  A    between atoms: C_3  and  C_4
REMARK    4  A    between atoms: C_5  and  O_6
REMARK    5  A    between atoms: O_6  and  C_7
REMARK    6  A    between atoms: C_7  and  C_8
REMARK    7  A    between atoms: C_8  and  C_9
REMARK    8  A    between atoms: C_9  and  C_10
REMARK    9  A    between atoms: C_10  and  O_11
REMARK   10  A    between atoms: O_11  and  C_12
REMARK   11  A    between atoms: C_15  and  C_16
REMARK   12  A    between atoms: C_16  and  O_18
REMARK   13  A    between atoms: C_24  and  C_25
REMARK                            x       y       z     vdW  Elec       q    Type
REMARK                         _______ _______ _______ _____ _____    ______ ____
ROOT
ATOM      1  C   UNL     1       0.996   9.924  20.131  0.00  0.00    +0.000 A 
ATOM      2  C   UNL     1       1.011   8.829  21.025  0.00  0.00    +0.000 A 
ATOM      3  C   UNL     1       0.275   8.859  22.218  0.00  0.00    +0.000 A 
ATOM      4  C   UNL     1      -0.488   9.965  22.583  0.00  0.00    +0.000 A 
ATOM      5  C   UNL     1      -0.484  11.083  21.742  0.00  0.00    +0.000 A 
ATOM      6  C   UNL     1      -1.062  12.385  21.755  0.00  0.00    +0.000 A 
ATOM      7  N   UNL     1      -0.745  13.048  20.631  0.00  0.00    +0.000 NA
ATOM      8  O   UNL     1       0.063  12.196  19.893  0.00  0.00    +0.000 OA
ATOM      9  C   UNL     1       0.229  11.020  20.559  0.00  0.00    +0.000 A 
ENDROOT
BRANCH   6  10
ATOM     10  C   UNL     1      -1.902  12.984  22.798  0.00  0.00    +0.000 A 
ATOM     11  C   UNL     1      -1.435  14.051  23.583  0.00  0.00    +0.000 A 
ATOM     12  C   UNL     1      -2.215  14.580  24.614  0.00  0.00    +0.000 A 
ATOM     13  C   UNL     1      -3.485  14.064  24.856  0.00  0.00    +0.000 A 
ATOM     14  C   UNL     1      -3.974  13.025  24.069  0.00  0.00    +0.000 A 
ATOM     15  C   UNL     1      -3.187  12.485  23.045  0.00  0.00    +0.000 A 
ENDBRANCH   6  10
BRANCH   1  16
ATOM     16  C   UNL     1       1.771   9.929  18.836  0.00  0.00    +0.000 C 
BRANCH  16  18
ATOM     17  C   UNL     1       2.558   7.967  17.461  0.00  0.00    +0.000 C 
ATOM     18  C   UNL     1       1.357   8.804  17.885  0.00  0.00    +0.000 C 
ENDBRANCH  16  18
ENDBRANCH   1  16
BRANCH   2  19
ATOM     19  O   UNL     1       1.743   7.730  20.644  0.00  0.00    +0.000 OA
BRANCH  19  20
ATOM     20  C   UNL     1       1.147   6.451  20.881  0.00  0.00    +0.000 C 
BRANCH  20  21
ATOM     21  C   UNL     1       2.133   5.299  20.643  0.00  0.00    +0.000 C 
BRANCH  21  22
ATOM     22  C   UNL     1       1.887   4.518  19.356  0.00  0.00    +0.000 C 
BRANCH  22  23
ATOM     23  C   UNL     1       2.843   3.344  19.220  0.00  0.00    +0.000 C 
BRANCH  23  24
ATOM     24  O   UNL     1       3.479   3.410  17.949  0.00  0.00    +0.000 OA
BRANCH  24  25
ATOM     25  C   UNL     1       4.452   4.364  17.842  0.00  0.00    +0.000 A 
ATOM     26  C   UNL     1       5.289   4.481  18.951  0.00  0.00    +0.000 A 
ATOM     27  C   UNL     1       6.324   5.421  18.957  0.00  0.00    +0.000 A 
ATOM     28  C   UNL     1       6.532   6.242  17.842  0.00  0.00    +0.000 A 
ATOM     29  C   UNL     1       5.717   6.100  16.715  0.00  0.00    +0.000 A 
ATOM     30  C   UNL     1       4.676   5.168  16.720  0.00  0.00    +0.000 A 
BRANCH  28  31
ATOM     31  C   UNL     1       7.666   7.199  17.887  0.00  0.00    +0.000 C 
ATOM     32  O   UNL     1       7.863   8.030  17.018  0.00  0.00    +0.000 OA
BRANCH  31  33
ATOM     33  O   UNL     1       8.481   7.049  18.955  0.00  0.00    +0.000 OA
ATOM     34  H   UNL     1       8.245   6.330  19.565  0.00  0.00    +0.000 HD
ENDBRANCH  31  33
ENDBRANCH  28  31
ENDBRANCH  24  25
ENDBRANCH  23  24
ENDBRANCH  22  23
ENDBRANCH  21  22
ENDBRANCH  20  21
ENDBRANCH  19  20
ENDBRANCH   2  19
TORSDOF 12
ENDMDL
MODEL 8
REMARK VINA RESULT:      -7.6      2.355      4.818
REMARK  Name = 
REMARK  13 active torsions:
REMARK  status: ('A' for Active; 'I' for Inactive)
REMARK    1  A    between atoms: C_1  and  C_2
REMARK    2  A    between atoms: C_2  and  C_3
REMARK    3  A    between atoms: C_3  and  C_4
REMARK    4  A    between atoms: C_5  and  O_6
REMARK    5  A    between atoms: O_6  and  C_7
REMARK    6  A    between atoms: C_7  and  C_8
REMARK    7  A    between atoms: C_8  and  C_9
REMARK    8  A    between atoms: C_9  and  C_10
REMARK    9  A    between atoms: C_10  and  O_11
REMARK   10  A    between atoms: O_11  and  C_12
REMARK   11  A    between atoms: C_15  and  C_16
REMARK   12  A    between atoms: C_16  and  O_18
REMARK   13  A    between atoms: C_24  and  C_25
REMARK                            x       y       z     vdW  Elec       q    Type
REMARK                         _______ _______ _______ _____ _____    ______ ____
ROOT
ATOM      1  C   UNL     1       2.714   5.895  19.364  0.00  0.00    +0.000 A 
ATOM      2  C   UNL     1       2.650   7.277  19.067  0.00  0.00    +0.000 A 
ATOM      3  C   UNL     1       3.254   7.797  17.914  0.00  0.00    +0.000 A 
ATOM      4  C   UNL     1       3.951   6.988  17.020  0.00  0.00    +0.000 A 
ATOM      5  C   UNL     1       4.072   5.625  17.311  0.00  0.00    +0.000 A 
ATOM      6  C   UNL     1       4.709   4.496  16.719  0.00  0.00    +0.000 A 
ATOM      7  N   UNL     1       4.450   3.387  17.431  0.00  0.00    +0.000 NA
ATOM      8  O   UNL     1       3.669   3.788  18.505  0.00  0.00    +0.000 OA
ATOM      9  C   UNL     1       3.446   5.130  18.441  0.00  0.00    +0.000 A 
ENDROOT
BRANCH   6  10
ATOM     10  C   UNL     1       5.532   4.464  15.506  0.00  0.00    +0.000 A 
ATOM     11  C   UNL     1       6.752   5.158  15.437  0.00  0.00    +0.000 A 
ATOM     12  C   UNL     1       7.504   5.172  14.260  0.00  0.00    +0.000 A 
ATOM     13  C   UNL     1       7.058   4.472  13.143  0.00  0.00    +0.000 A 
ATOM     14  C   UNL     1       5.865   3.757  13.204  0.00  0.00    +0.000 A 
ATOM     15  C   UNL     1       5.103   3.753  14.378  0.00  0.00    +0.000 A 
ENDBRANCH   6  10
BRANCH   1  16
ATOM     16  C   UNL     1       2.074   5.296  20.592  0.00  0.00    +0.000 C 
BRANCH  16  18
ATOM     17  C   UNL     1       1.248   2.946  20.982  0.00  0.00    +0.000 C 
ATOM     18  C   UNL     1       0.993   4.265  20.263  0.00  0.00    +0.000 C 
ENDBRANCH  16  18
ENDBRANCH   1  16
BRANCH   2  19
ATOM     19  O   UNL     1       1.937   8.064  19.938  0.00  0.00    +0.000 OA
BRANCH  19  20
ATOM     20  C   UNL     1       1.209   9.155  19.366  0.00  0.00    +0.000 C 
BRANCH  20  21
ATOM     21  C   UNL     1       0.117   9.681  20.307  0.00  0.00    +0.000 C 
BRANCH  21  22
ATOM     22  C   UNL     1      -0.180   8.769  21.495  0.00  0.00    +0.000 C 
BRANCH  22  23
ATOM     23  C   UNL     1      -0.054   9.511  22.816  0.00  0.00    +0.000 C 
BRANCH  23  24
ATOM     24  O   UNL     1       0.255  10.875  22.552  0.00  0.00    +0.000 OA
BRANCH  24  25
ATOM     25  C   UNL     1      -0.807  11.732  22.636  0.00  0.00    +0.000 A 
ATOM     26  C   UNL     1      -0.659  12.926  21.932  0.00  0.00    +0.000 A 
ATOM     27  C   UNL     1      -1.682  13.880  21.940  0.00  0.00    +0.000 A 
ATOM     28  C   UNL     1      -2.865  13.634  22.647  0.00  0.00    +0.000 A 
ATOM     29  C   UNL     1      -3.030  12.420  23.321  0.00  0.00    +0.000 A 
ATOM     30  C   UNL     1      -1.999  11.477  23.321  0.00  0.00    +0.000 A 
BRANCH  28  31
ATOM     31  C   UNL     1      -3.931  14.666  22.595  0.00  0.00    +0.000 C 
ATOM     32  O   UNL     1      -3.767  15.805  22.994  0.00  0.00    +0.000 OA
BRANCH  31  33
ATOM     33  O   UNL     1      -5.111  14.225  22.104  0.00  0.00    +0.000 OA
ATOM     34  H   UNL     1      -5.278  14.430  21.168  0.00  0.00    +0.000 HD
ENDBRANCH  31  33
ENDBRANCH  28  31
ENDBRANCH  24  25
ENDBRANCH  23  24
ENDBRANCH  22  23
ENDBRANCH  21  22
ENDBRANCH  20  21
ENDBRANCH  19  20
ENDBRANCH   2  19
TORSDOF 12
ENDMDL
MODEL 9
REMARK VINA RESULT:      -7.4      3.400     11.938
REMARK  Name = 
REMARK  13 active torsions:
REMARK  status: ('A' for Active; 'I' for Inactive)
REMARK    1  A    between atoms: C_1  and  C_2
REMARK    2  A    between atoms: C_2  and  C_3
REMARK    3  A    between atoms: C_3  and  C_4
REMARK    4  A    between atoms: C_5  and  O_6
REMARK    5  A    between atoms: O_6  and  C_7
REMARK    6  A    between atoms: C_7  and  C_8
REMARK    7  A    between atoms: C_8  and  C_9
REMARK    8  A    between atoms: C_9  and  C_10
REMARK    9  A    between atoms: C_10  and  O_11
REMARK   10  A    between atoms: O_11  and  C_12
REMARK   11  A    between atoms: C_15  and  C_16
REMARK   12  A    between atoms: C_16  and  O_18
REMARK   13  A    between atoms: C_24  and  C_25
REMARK                            x       y       z     vdW  Elec       q    Type
REMARK                         _______ _______ _______ _____ _____    ______ ____
ROOT
ATOM      1  C   UNL     1      -0.635  10.564  19.358  0.00  0.00    +0.000 A 
ATOM      2  C   UNL     1       0.346   9.941  20.164  0.00  0.00    +0.000 A 
ATOM      3  C   UNL     1       0.499  10.287  21.513  0.00  0.00    +0.000 A 
ATOM      4  C   UNL     1      -0.291  11.261  22.117  0.00  0.00    +0.000 A 
ATOM      5  C   UNL     1      -1.238  11.930  21.334  0.00  0.00    +0.000 A 
ATOM      6  C   UNL     1      -2.181  12.979  21.528  0.00  0.00    +0.000 A 
ATOM      7  N   UNL     1      -2.880  13.194  20.401  0.00  0.00    +0.000 NA
ATOM      8  O   UNL     1      -2.379  12.308  19.459  0.00  0.00    +0.000 OA
ATOM      9  C   UNL     1      -1.388  11.554  20.011  0.00  0.00    +0.000 A 
ENDROOT
BRANCH   6  10
ATOM     10  C   UNL     1      -2.425  13.752  22.750  0.00  0.00    +0.000 A 
ATOM     11  C   UNL     1      -1.360  14.238  23.528  0.00  0.00    +0.000 A 
ATOM     12  C   UNL     1      -1.596  14.923  24.722  0.00  0.00    +0.000 A 
ATOM     13  C   UNL     1      -2.903  15.155  25.142  0.00  0.00    +0.000 A 
ATOM     14  C   UNL     1      -3.970  14.704  24.368  0.00  0.00    +0.000 A 
ATOM     15  C   UNL     1      -3.734  14.005  23.179  0.00  0.00    +0.000 A 
ENDBRANCH   6  10
BRANCH   1  16
ATOM     16  C   UNL     1      -0.835  10.218  17.903  0.00  0.00    +0.000 C 
BRANCH  16  18
ATOM     17  C   UNL     1      -2.748  10.389  16.270  0.00  0.00    +0.000 C 
ATOM     18  C   UNL     1      -2.265   9.780  17.581  0.00  0.00    +0.000 C 
ENDBRANCH  16  18
ENDBRANCH   1  16
BRANCH   2  19
ATOM     19  O   UNL     1       1.102   8.960  19.569  0.00  0.00    +0.000 OA
BRANCH  19  20
ATOM     20  C   UNL     1       1.544   7.893  20.413  0.00  0.00    +0.000 C 
BRANCH  20  21
ATOM     21  C   UNL     1       2.485   6.926  19.681  0.00  0.00    +0.000 C 
BRANCH  21  22
ATOM     22  C   UNL     1       2.285   5.458  20.047  0.00  0.00    +0.000 C 
BRANCH  22  23
ATOM     23  C   UNL     1       3.482   4.612  19.644  0.00  0.00    +0.000 C 
BRANCH  23  24
ATOM     24  O   UNL     1       4.603   5.465  19.440  0.00  0.00    +0.000 OA
BRANCH  24  25
ATOM     25  C   UNL     1       5.222   5.322  18.230  0.00  0.00    +0.000 A 
ATOM     26  C   UNL     1       4.545   4.520  17.312  0.00  0.00    +0.000 A 
ATOM     27  C   UNL     1       5.079   4.303  16.038  0.00  0.00    +0.000 A 
ATOM     28  C   UNL     1       6.290   4.901  15.673  0.00  0.00    +0.000 A 
ATOM     29  C   UNL     1       6.950   5.737  16.579  0.00  0.00    +0.000 A 
ATOM     30  C   UNL     1       6.419   5.940  17.856  0.00  0.00    +0.000 A 
BRANCH  28  31
ATOM     31  C   UNL     1       6.795   4.665  14.297  0.00  0.00    +0.000 C 
ATOM     32  O   UNL     1       6.348   3.795  13.571  0.00  0.00    +0.000 OA
BRANCH  31  33
ATOM     33  O   UNL     1       7.817   5.471  13.932  0.00  0.00    +0.000 OA
ATOM     34  H   UNL     1       7.663   6.008  13.136  0.00  0.00    +0.000 HD
ENDBRANCH  31  33
ENDBRANCH  28  31
ENDBRANCH  24  25
ENDBRANCH  23  24
ENDBRANCH  22  23
ENDBRANCH  21  22
ENDBRANCH  20  21
ENDBRANCH  19  20
ENDBRANCH   2  19
TORSDOF 12
ENDMDL
