MODEL 1
REMARK VINA RESULT:      -8.9      0.000      0.000
REMARK  Name = 
REMARK  4 active torsions:
REMARK  status: ('A' for Active; 'I' for Inactive)
REMARK    1  A    between atoms: C_2  and  C_3
REMARK    2  A    between atoms: C_8  and  N_9
REMARK    3  A    between atoms: C_14  and  N_15
REMARK    4  A    between atoms: N_15  and  C_16
REMARK                            x       y       z     vdW  Elec       q    Type
REMARK                         _______ _______ _______ _____ _____    ______ ____
ROOT
ATOM      1  N   UNL     1       1.789   6.263  20.902  0.00  0.00    +0.000 N 
ATOM      2  C   UNL     1       2.424   5.027  20.793  0.00  0.00    +0.000 A 
ATOM      3  N   UNL     1       1.836   3.996  21.411  0.00  0.00    +0.000 NA
ATOM      4  C   UNL     1       2.394   2.790  21.215  0.00  0.00    +0.000 A 
ATOM      5  C   UNL     1       3.501   2.581  20.428  0.00  0.00    +0.000 A 
ATOM      6  C   UNL     1       4.078   3.706  19.881  0.00  0.00    +0.000 A 
ATOM      7  N   UNL     1       3.546   4.924  20.067  0.00  0.00    +0.000 NA
ATOM      8  H   UNL     1       0.919   6.138  21.403  0.00  0.00    +0.000 HD
ENDROOT
BRANCH   1  14
ATOM      9  C   UNL     1       1.264   8.622  20.237  0.00  0.00    +0.000 A 
ATOM     10  C   UNL     1       1.320   9.609  19.238  0.00  0.00    +0.000 A 
ATOM     11  C   UNL     1       1.941   9.355  18.016  0.00  0.00    +0.000 A 
ATOM     12  C   UNL     1       2.520   8.114  17.785  0.00  0.00    +0.000 A 
ATOM     13  C   UNL     1       2.459   7.123  18.767  0.00  0.00    +0.000 A 
ATOM     14  C   UNL     1       1.811   7.343  19.997  0.00  0.00    +0.000 A 
BRANCH   9  16
ATOM     15  N   UNL     1       0.201   9.361  22.491  0.00  0.00    +0.000 NA
ATOM     16  C   UNL     1       0.713   9.024  21.503  0.00  0.00    +0.000 C 
ENDBRANCH   9  16
ENDBRANCH   1  14
BRANCH   6  17
ATOM     17  N   UNL     1       5.243   3.554  19.088  0.00  0.00    +0.000 N 
ATOM     18  H   UNL     1       5.412   2.556  18.964  0.00  0.00    +0.000 HD
BRANCH  17  19
ATOM     19  C   UNL     1       5.470   4.240  17.866  0.00  0.00    +0.000 A 
ATOM     20  C   UNL     1       4.743   4.019  16.677  0.00  0.00    +0.000 A 
ATOM     21 CL   UNL     1       3.366   2.964  16.603  0.00  0.00    +0.000 Cl
ATOM     22  C   UNL     1       5.039   4.731  15.493  0.00  0.00    +0.000 A 
ATOM     23  C   UNL     1       6.034   5.706  15.478  0.00  0.00    +0.000 A 
ATOM     24  C   UNL     1       6.694   5.959  16.656  0.00  0.00    +0.000 A 
ATOM     25  C   UNL     1       6.422   5.257  17.812  0.00  0.00    +0.000 A 
ATOM     26  O   UNL     1       7.187   5.691  18.859  0.00  0.00    +0.000 OA
ATOM     27  C   UNL     1       7.912   6.777  18.240  0.00  0.00    +0.000 C 
ATOM     28  O   UNL     1       7.654   6.906  16.828  0.00  0.00    +0.000 OA
ENDBRANCH  17  19
ENDBRANCH   6  17
TORSDOF 4
ENDMDL
MODEL 2
REMARK VINA RESULT:      -8.7      1.644      2.188
REMARK  Name = 
REMARK  4 active torsions:
REMARK  status: ('A' for Active; 'I' for Inactive)
REMARK    1  A    between atoms: C_2  and  C_3
REMARK    2  A    between atoms: C_8  and  N_9
REMARK    3  A    between atoms: C_14  and  N_15
REMARK    4  A    between atoms: N_15  and  C_16
REMARK                            x       y       z     vdW  Elec       q    Type
REMARK                         _______ _______ _______ _____ _____    ______ ____
ROOT
ATOM      1  N   UNL     1       2.017   6.021  20.698  0.00  0.00    +0.000 N 
ATOM      2  C   UNL     1       2.726   4.827  20.576  0.00  0.00    +0.000 A 
ATOM      3  N   UNL     1       2.173   3.744  21.135  0.00  0.00    +0.000 NA
ATOM      4  C   UNL     1       2.806   2.578  20.922  0.00  0.00    +0.000 A 
ATOM      5  C   UNL     1       3.955   2.459  20.177  0.00  0.00    +0.000 A 
ATOM      6  C   UNL     1       4.488   3.632  19.692  0.00  0.00    +0.000 A 
ATOM      7  N   UNL     1       3.880   4.812  19.895  0.00  0.00    +0.000 NA
ATOM      8  H   UNL     1       1.136   5.829  21.158  0.00  0.00    +0.000 HD
ENDROOT
BRANCH   1  14
ATOM      9  C   UNL     1       1.504   8.410  20.143  0.00  0.00    +0.000 A 
ATOM     10  C   UNL     1       1.528   9.431  19.177  0.00  0.00    +0.000 A 
ATOM     11  C   UNL     1       2.081   9.209  17.917  0.00  0.00    +0.000 A 
ATOM     12  C   UNL     1       2.624   7.968  17.614  0.00  0.00    +0.000 A 
ATOM     13  C   UNL     1       2.594   6.944  18.563  0.00  0.00    +0.000 A 
ATOM     14  C   UNL     1       2.013   7.132  19.831  0.00  0.00    +0.000 A 
BRANCH   9  16
ATOM     15  N   UNL     1       0.643   9.147  22.482  0.00  0.00    +0.000 NA
ATOM     16  C   UNL     1       1.026   8.777  21.449  0.00  0.00    +0.000 C 
ENDBRANCH   9  16
ENDBRANCH   1  14
BRANCH   6  17
ATOM     17  N   UNL     1       5.690   3.574  18.943  0.00  0.00    +0.000 N 
ATOM     18  H   UNL     1       5.642   2.757  18.334  0.00  0.00    +0.000 HD
BRANCH  17  19
ATOM     19  C   UNL     1       6.245   4.673  18.238  0.00  0.00    +0.000 A 
ATOM     20  C   UNL     1       7.147   5.607  18.791  0.00  0.00    +0.000 A 
ATOM     21 CL   UNL     1       7.807   5.439  20.388  0.00  0.00    +0.000 Cl
ATOM     22  C   UNL     1       7.645   6.688  18.028  0.00  0.00    +0.000 A 
ATOM     23  C   UNL     1       7.290   6.837  16.689  0.00  0.00    +0.000 A 
ATOM     24  C   UNL     1       6.462   5.888  16.141  0.00  0.00    +0.000 A 
ATOM     25  C   UNL     1       5.959   4.840  16.884  0.00  0.00    +0.000 A 
ATOM     26  O   UNL     1       5.173   4.015  16.127  0.00  0.00    +0.000 OA
ATOM     27  C   UNL     1       5.299   4.632  14.826  0.00  0.00    +0.000 C 
ATOM     28  O   UNL     1       6.057   5.857  14.844  0.00  0.00    +0.000 OA
ENDBRANCH  17  19
ENDBRANCH   6  17
TORSDOF 4
ENDMDL
MODEL 3
REMARK VINA RESULT:      -7.8      3.406      6.829
REMARK  Name = 
REMARK  4 active torsions:
REMARK  status: ('A' for Active; 'I' for Inactive)
REMARK    1  A    between atoms: C_2  and  C_3
REMARK    2  A    between atoms: C_8  and  N_9
REMARK    3  A    between atoms: C_14  and  N_15
REMARK    4  A    between atoms: N_15  and  C_16
REMARK                            x       y       z     vdW  Elec       q    Type
REMARK                         _______ _______ _______ _____ _____    ______ ____
ROOT
ATOM      1  N   UNL     1       4.280   4.848  18.207  0.00  0.00    +0.000 N 
ATOM      2  C   UNL     1       3.171   5.137  19.000  0.00  0.00    +0.000 A 
ATOM      3  N   UNL     1       2.286   4.148  19.175  0.00  0.00    +0.000 NA
ATOM      4  C   UNL     1       1.276   4.398  20.025  0.00  0.00    +0.000 A 
ATOM      5  C   UNL     1       1.125   5.585  20.700  0.00  0.00    +0.000 A 
ATOM      6  C   UNL     1       2.045   6.569  20.412  0.00  0.00    +0.000 A 
ATOM      7  N   UNL     1       3.060   6.348  19.562  0.00  0.00    +0.000 NA
ATOM      8  H   UNL     1       4.245   3.871  17.945  0.00  0.00    +0.000 HD
ENDROOT
BRANCH   1  14
ATOM      9  C   UNL     1       6.169   6.193  17.259  0.00  0.00    +0.000 A 
ATOM     10  C   UNL     1       7.482   6.669  17.424  0.00  0.00    +0.000 A 
ATOM     11  C   UNL     1       8.196   6.403  18.592  0.00  0.00    +0.000 A 
ATOM     12  C   UNL     1       7.602   5.668  19.609  0.00  0.00    +0.000 A 
ATOM     13  C   UNL     1       6.303   5.181  19.448  0.00  0.00    +0.000 A 
ATOM     14  C   UNL     1       5.572   5.408  18.267  0.00  0.00    +0.000 A 
BRANCH   9  16
ATOM     15  N   UNL     1       4.964   6.929  15.078  0.00  0.00    +0.000 NA
ATOM     16  C   UNL     1       5.477   6.626  16.075  0.00  0.00    +0.000 C 
ENDBRANCH   9  16
ENDBRANCH   1  14
BRANCH   6  17
ATOM     17  N   UNL     1       1.919   7.826  21.055  0.00  0.00    +0.000 N 
ATOM     18  H   UNL     1       2.857   8.166  21.268  0.00  0.00    +0.000 HD
BRANCH  17  19
ATOM     19  C   UNL     1       1.115   8.891  20.573  0.00  0.00    +0.000 A 
ATOM     20  C   UNL     1       1.043   9.292  19.221  0.00  0.00    +0.000 A 
ATOM     21 CL   UNL     1       1.836   8.424  17.944  0.00  0.00    +0.000 Cl
ATOM     22  C   UNL     1       0.229  10.376  18.820  0.00  0.00    +0.000 A 
ATOM     23  C   UNL     1      -0.561  11.055  19.745  0.00  0.00    +0.000 A 
ATOM     24  C   UNL     1      -0.533  10.618  21.047  0.00  0.00    +0.000 A 
ATOM     25  C   UNL     1       0.271   9.571  21.450  0.00  0.00    +0.000 A 
ATOM     26  O   UNL     1       0.121   9.303  22.783  0.00  0.00    +0.000 OA
ATOM     27  C   UNL     1      -0.906  10.254  23.142  0.00  0.00    +0.000 C 
ATOM     28  O   UNL     1      -1.274  11.134  22.062  0.00  0.00    +0.000 OA
ENDBRANCH  17  19
ENDBRANCH   6  17
TORSDOF 4
ENDMDL
MODEL 4
REMARK VINA RESULT:      -7.6      3.012      6.429
REMARK  Name = 
REMARK  4 active torsions:
REMARK  status: ('A' for Active; 'I' for Inactive)
REMARK    1  A    between atoms: C_2  and  C_3
REMARK    2  A    between atoms: C_8  and  N_9
REMARK    3  A    between atoms: C_14  and  N_15
REMARK    4  A    between atoms: N_15  and  C_16
REMARK                            x       y       z     vdW  Elec       q    Type
REMARK                         _______ _______ _______ _____ _____    ______ ____
ROOT
ATOM      1  N   UNL     1       3.316   3.829  17.085  0.00  0.00    +0.000 N 
ATOM      2  C   UNL     1       2.602   4.289  18.191  0.00  0.00    +0.000 A 
ATOM      3  N   UNL     1       1.747   3.425  18.752  0.00  0.00    +0.000 NA
ATOM      4  C   UNL     1       1.142   3.837  19.879  0.00  0.00    +0.000 A 
ATOM      5  C   UNL     1       1.363   5.064  20.458  0.00  0.00    +0.000 A 
ATOM      6  C   UNL     1       2.209   5.912  19.779  0.00  0.00    +0.000 A 
ATOM      7  N   UNL     1       2.822   5.529  18.648  0.00  0.00    +0.000 NA
ATOM      8  H   UNL     1       3.093   2.853  16.938  0.00  0.00    +0.000 HD
ENDROOT
BRANCH   1  14
ATOM      9  C   UNL     1       5.703   4.492  17.465  0.00  0.00    +0.000 A 
ATOM     10  C   UNL     1       6.917   4.917  16.898  0.00  0.00    +0.000 A 
ATOM     11  C   UNL     1       7.053   5.047  15.516  0.00  0.00    +0.000 A 
ATOM     12  C   UNL     1       5.978   4.747  14.689  0.00  0.00    +0.000 A 
ATOM     13  C   UNL     1       4.765   4.337  15.245  0.00  0.00    +0.000 A 
ATOM     14  C   UNL     1       4.592   4.227  16.637  0.00  0.00    +0.000 A 
BRANCH   9  16
ATOM     15  N   UNL     1       5.634   4.120  20.036  0.00  0.00    +0.000 NA
ATOM     16  C   UNL     1       5.704   4.271  18.886  0.00  0.00    +0.000 C 
ENDBRANCH   9  16
ENDBRANCH   1  14
BRANCH   6  17
ATOM     17  N   UNL     1       2.449   7.203  20.313  0.00  0.00    +0.000 N 
ATOM     18  H   UNL     1       3.444   7.405  20.214  0.00  0.00    +0.000 HD
BRANCH  17  19
ATOM     19  C   UNL     1       1.687   8.355  19.988  0.00  0.00    +0.000 A 
ATOM     20  C   UNL     1       1.669   8.972  18.719  0.00  0.00    +0.000 A 
ATOM     21 CL   UNL     1       2.486   8.303  17.341  0.00  0.00    +0.000 Cl
ATOM     22  C   UNL     1       0.895  10.129  18.476  0.00  0.00    +0.000 A 
ATOM     23  C   UNL     1       0.089  10.670  19.476  0.00  0.00    +0.000 A 
ATOM     24  C   UNL     1       0.063  10.025  20.689  0.00  0.00    +0.000 A 
ATOM     25  C   UNL     1       0.829   8.905  20.939  0.00  0.00    +0.000 A 
ATOM     26  O   UNL     1       0.627   8.427  22.205  0.00  0.00    +0.000 OA
ATOM     27  C   UNL     1      -0.390   9.335  22.684  0.00  0.00    +0.000 C 
ATOM     28  O   UNL     1      -0.701  10.390  21.753  0.00  0.00    +0.000 OA
ENDBRANCH  17  19
ENDBRANCH   6  17
TORSDOF 4
ENDMDL
MODEL 5
REMARK VINA RESULT:      -7.6      3.284      6.941
REMARK  Name = 
REMARK  4 active torsions:
REMARK  status: ('A' for Active; 'I' for Inactive)
REMARK    1  A    between atoms: C_2  and  C_3
REMARK    2  A    between atoms: C_8  and  N_9
REMARK    3  A    between atoms: C_14  and  N_15
REMARK    4  A    between atoms: N_15  and  C_16
REMARK                            x       y       z     vdW  Elec       q    Type
REMARK                         _______ _______ _______ _____ _____    ______ ____
ROOT
ATOM      1  N   UNL     1       3.928   4.212  18.109  0.00  0.00    +0.000 N 
ATOM      2  C   UNL     1       2.892   4.685  18.913  0.00  0.00    +0.000 A 
ATOM      3  N   UNL     1       1.892   3.831  19.163  0.00  0.00    +0.000 NA
ATOM      4  C   UNL     1       0.951   4.255  20.024  0.00  0.00    +0.000 A 
ATOM      5  C   UNL     1       0.977   5.485  20.637  0.00  0.00    +0.000 A 
ATOM      6  C   UNL     1       2.008   6.323  20.273  0.00  0.00    +0.000 A 
ATOM      7  N   UNL     1       2.958   5.927  19.411  0.00  0.00    +0.000 NA
ATOM      8  H   UNL     1       3.758   3.236  17.901  0.00  0.00    +0.000 HD
ENDROOT
BRANCH   1  14
ATOM      9  C   UNL     1       6.147   4.540  16.993  0.00  0.00    +0.000 A 
ATOM     10  C   UNL     1       7.493   4.925  17.127  0.00  0.00    +0.000 A 
ATOM     11  C   UNL     1       7.983   5.400  18.342  0.00  0.00    +0.000 A 
ATOM     12  C   UNL     1       7.129   5.503  19.433  0.00  0.00    +0.000 A 
ATOM     13  C   UNL     1       5.795   5.111  19.313  0.00  0.00    +0.000 A 
ATOM     14  C   UNL     1       5.283   4.599  18.107  0.00  0.00    +0.000 A 
BRANCH   9  16
ATOM     15  N   UNL     1       5.300   3.938  14.611  0.00  0.00    +0.000 NA
ATOM     16  C   UNL     1       5.713   4.183  15.669  0.00  0.00    +0.000 C 
ENDBRANCH   9  16
ENDBRANCH   1  14
BRANCH   6  17
ATOM     17  N   UNL     1       2.068   7.616  20.849  0.00  0.00    +0.000 N 
ATOM     18  H   UNL     1       3.048   7.898  20.889  0.00  0.00    +0.000 HD
BRANCH  17  19
ATOM     19  C   UNL     1       1.266   8.711  20.437  0.00  0.00    +0.000 A 
ATOM     20  C   UNL     1       1.165   9.174  19.107  0.00  0.00    +0.000 A 
ATOM     21 CL   UNL     1       1.915   8.357  17.772  0.00  0.00    +0.000 Cl
ATOM     22  C   UNL     1       0.355  10.284  18.776  0.00  0.00    +0.000 A 
ATOM     23  C   UNL     1      -0.404  10.928  19.750  0.00  0.00    +0.000 A 
ATOM     24  C   UNL     1      -0.349  10.431  21.030  0.00  0.00    +0.000 A 
ATOM     25  C   UNL     1       0.452   9.359  21.365  0.00  0.00    +0.000 A 
ATOM     26  O   UNL     1       0.332   9.031  22.687  0.00  0.00    +0.000 OA
ATOM     27  C   UNL     1      -0.675   9.976  23.115  0.00  0.00    +0.000 C 
ATOM     28  O   UNL     1      -1.059  10.909  22.086  0.00  0.00    +0.000 OA
ENDBRANCH  17  19
ENDBRANCH   6  17
TORSDOF 4
ENDMDL
MODEL 6
REMARK VINA RESULT:      -7.5      7.243     10.302
REMARK  Name = 
REMARK  4 active torsions:
REMARK  status: ('A' for Active; 'I' for Inactive)
REMARK    1  A    between atoms: C_2  and  C_3
REMARK    2  A    between atoms: C_8  and  N_9
REMARK    3  A    between atoms: C_14  and  N_15
REMARK    4  A    between atoms: N_15  and  C_16
REMARK                            x       y       z     vdW  Elec       q    Type
REMARK                         _______ _______ _______ _____ _____    ______ ____
ROOT
ATOM      1  N   UNL     1      -6.009  11.235  17.712  0.00  0.00    +0.000 N 
ATOM      2  C   UNL     1      -4.661  11.189  17.360  0.00  0.00    +0.000 A 
ATOM      3  N   UNL     1      -4.385  10.817  16.104  0.00  0.00    +0.000 NA
ATOM      4  C   UNL     1      -3.093  10.877  15.738  0.00  0.00    +0.000 A 
ATOM      5  C   UNL     1      -2.083  11.293  16.572  0.00  0.00    +0.000 A 
ATOM      6  C   UNL     1      -2.449  11.597  17.865  0.00  0.00    +0.000 A 
ATOM      7  N   UNL     1      -3.732  11.539  18.259  0.00  0.00    +0.000 NA
ATOM      8  H   UNL     1      -6.566  11.030  16.893  0.00  0.00    +0.000 HD
ENDROOT
BRANCH   1  14
ATOM      9  C   UNL     1      -7.020  13.395  18.482  0.00  0.00    +0.000 A 
ATOM     10  C   UNL     1      -7.610  14.116  19.536  0.00  0.00    +0.000 A 
ATOM     11  C   UNL     1      -7.854  13.510  20.767  0.00  0.00    +0.000 A 
ATOM     12  C   UNL     1      -7.519  12.175  20.954  0.00  0.00    +0.000 A 
ATOM     13  C   UNL     1      -6.922  11.455  19.918  0.00  0.00    +0.000 A 
ATOM     14  C   UNL     1      -6.636  12.051  18.675  0.00  0.00    +0.000 A 
BRANCH   9  16
ATOM     15  N   UNL     1      -6.833  14.686  16.234  0.00  0.00    +0.000 NA
ATOM     16  C   UNL     1      -6.926  14.073  17.218  0.00  0.00    +0.000 C 
ENDBRANCH   9  16
ENDBRANCH   1  14
BRANCH   6  17
ATOM     17  N   UNL     1      -1.444  12.001  18.779  0.00  0.00    +0.000 N 
ATOM     18  H   UNL     1      -1.720  12.902  19.171  0.00  0.00    +0.000 HD
BRANCH  17  19
ATOM     19  C   UNL     1      -0.912  11.171  19.799  0.00  0.00    +0.000 A 
ATOM     20  C   UNL     1      -0.058  10.070  19.571  0.00  0.00    +0.000 A 
ATOM     21 CL   UNL     1       0.567   9.680  17.999  0.00  0.00    +0.000 Cl
ATOM     22  C   UNL     1       0.420   9.278  20.639  0.00  0.00    +0.000 A 
ATOM     23  C   UNL     1       0.094   9.589  21.958  0.00  0.00    +0.000 A 
ATOM     24  C   UNL     1      -0.686  10.700  22.175  0.00  0.00    +0.000 A 
ATOM     25  C   UNL     1      -1.170  11.468  21.136  0.00  0.00    +0.000 A 
ATOM     26  O   UNL     1      -1.906  12.527  21.591  0.00  0.00    +0.000 OA
ATOM     27  C   UNL     1      -1.770  12.364  23.020  0.00  0.00    +0.000 C 
ATOM     28  O   UNL     1      -1.056  11.170  23.395  0.00  0.00    +0.000 OA
ENDBRANCH  17  19
ENDBRANCH   6  17
TORSDOF 4
ENDMDL
MODEL 7
REMARK VINA RESULT:      -7.5      2.520      5.720
REMARK  Name = 
REMARK  4 active torsions:
REMARK  status: ('A' for Active; 'I' for Inactive)
REMARK    1  A    between atoms: C_2  and  C_3
REMARK    2  A    between atoms: C_8  and  N_9
REMARK    3  A    between atoms: C_14  and  N_15
REMARK    4  A    between atoms: N_15  and  C_16
REMARK                            x       y       z     vdW  Elec       q    Type
REMARK                         _______ _______ _______ _____ _____    ______ ____
ROOT
ATOM      1  N   UNL     1       5.996   3.990  18.573  0.00  0.00    +0.000 N 
ATOM      2  C   UNL     1       4.852   3.774  19.339  0.00  0.00    +0.000 A 
ATOM      3  N   UNL     1       4.698   2.546  19.850  0.00  0.00    +0.000 NA
ATOM      4  C   UNL     1       3.650   2.374  20.673  0.00  0.00    +0.000 A 
ATOM      5  C   UNL     1       2.767   3.374  21.003  0.00  0.00    +0.000 A 
ATOM      6  C   UNL     1       2.965   4.588  20.383  0.00  0.00    +0.000 A 
ATOM      7  N   UNL     1       3.999   4.786  19.551  0.00  0.00    +0.000 NA
ATOM      8  H   UNL     1       6.564   3.153  18.595  0.00  0.00    +0.000 HD
ENDROOT
BRANCH   1  14
ATOM      9  C   UNL     1       6.657   5.987  17.210  0.00  0.00    +0.000 A 
ATOM     10  C   UNL     1       7.439   7.152  17.121  0.00  0.00    +0.000 A 
ATOM     11  C   UNL     1       8.243   7.556  18.186  0.00  0.00    +0.000 A 
ATOM     12  C   UNL     1       8.264   6.804  19.354  0.00  0.00    +0.000 A 
ATOM     13  C   UNL     1       7.500   5.640  19.447  0.00  0.00    +0.000 A 
ATOM     14  C   UNL     1       6.705   5.192  18.375  0.00  0.00    +0.000 A 
BRANCH   9  16
ATOM     15  N   UNL     1       5.095   5.567  15.176  0.00  0.00    +0.000 NA
ATOM     16  C   UNL     1       5.771   5.726  16.108  0.00  0.00    +0.000 C 
ENDBRANCH   9  16
ENDBRANCH   1  14
BRANCH   6  17
ATOM     17  N   UNL     1       2.065   5.647  20.661  0.00  0.00    +0.000 N 
ATOM     18  H   UNL     1       2.172   5.902  21.643  0.00  0.00    +0.000 HD
BRANCH  17  19
ATOM     19  C   UNL     1       1.940   6.816  19.867  0.00  0.00    +0.000 A 
ATOM     20  C   UNL     1       2.074   6.848  18.461  0.00  0.00    +0.000 A 
ATOM     21 CL   UNL     1       2.273   5.411  17.507  0.00  0.00    +0.000 Cl
ATOM     22  C   UNL     1       1.951   8.057  17.740  0.00  0.00    +0.000 A 
ATOM     23  C   UNL     1       1.650   9.249  18.394  0.00  0.00    +0.000 A 
ATOM     24  C   UNL     1       1.458   9.198  19.754  0.00  0.00    +0.000 A 
ATOM     25  C   UNL     1       1.593   8.025  20.467  0.00  0.00    +0.000 A 
ATOM     26  O   UNL     1       1.340   8.211  21.798  0.00  0.00    +0.000 OA
ATOM     27  C   UNL     1       0.974   9.609  21.816  0.00  0.00    +0.000 C 
ATOM     28  O   UNL     1       1.114  10.255  20.536  0.00  0.00    +0.000 OA
ENDBRANCH  17  19
ENDBRANCH   6  17
TORSDOF 4
ENDMDL
MODEL 8
REMARK VINA RESULT:      -7.4      1.897      2.973
REMARK  Name = 
REMARK  4 active torsions:
REMARK  status: ('A' for Active; 'I' for Inactive)
REMARK    1  A    between atoms: C_2  and  C_3
REMARK    2  A    between atoms: C_8  and  N_9
REMARK    3  A    between atoms: C_14  and  N_15
REMARK    4  A    between atoms: N_15  and  C_16
REMARK                            x       y       z     vdW  Elec       q    Type
REMARK                         _______ _______ _______ _____ _____    ______ ____
ROOT
ATOM      1  N   UNL     1       2.032   5.839  20.800  0.00  0.00    +0.000 N 
ATOM      2  C   UNL     1       2.794   4.676  20.697  0.00  0.00    +0.000 A 
ATOM      3  N   UNL     1       2.324   3.596  21.332  0.00  0.00    +0.000 NA
ATOM      4  C   UNL     1       3.005   2.453  21.142  0.00  0.00    +0.000 A 
ATOM      5  C   UNL     1       4.121   2.354  20.347  0.00  0.00    +0.000 A 
ATOM      6  C   UNL     1       4.571   3.528  19.783  0.00  0.00    +0.000 A 
ATOM      7  N   UNL     1       3.914   4.685  19.962  0.00  0.00    +0.000 NA
ATOM      8  H   UNL     1       1.185   5.627  21.311  0.00  0.00    +0.000 HD
ENDROOT
BRANCH   1  14
ATOM      9  C   UNL     1       2.007   6.786  18.480  0.00  0.00    +0.000 A 
ATOM     10  C   UNL     1       1.925   7.933  17.671  0.00  0.00    +0.000 A 
ATOM     11  C   UNL     1       1.733   9.193  18.237  0.00  0.00    +0.000 A 
ATOM     12  C   UNL     1       1.612   9.316  19.615  0.00  0.00    +0.000 A 
ATOM     13  C   UNL     1       1.705   8.184  20.426  0.00  0.00    +0.000 A 
ATOM     14  C   UNL     1       1.930   6.905  19.884  0.00  0.00    +0.000 A 
BRANCH   9  16
ATOM     15  N   UNL     1       2.079   4.483  17.278  0.00  0.00    +0.000 NA
ATOM     16  C   UNL     1       2.081   5.524  17.793  0.00  0.00    +0.000 C 
ENDBRANCH   9  16
ENDBRANCH   1  14
BRANCH   6  17
ATOM     17  N   UNL     1       5.737   3.492  18.979  0.00  0.00    +0.000 N 
ATOM     18  H   UNL     1       5.666   2.687  18.355  0.00  0.00    +0.000 HD
BRANCH  17  19
ATOM     19  C   UNL     1       6.253   4.608  18.271  0.00  0.00    +0.000 A 
ATOM     20  C   UNL     1       7.135   5.566  18.819  0.00  0.00    +0.000 A 
ATOM     21 CL   UNL     1       7.814   5.411  20.409  0.00  0.00    +0.000 Cl
ATOM     22  C   UNL     1       7.594   6.662  18.054  0.00  0.00    +0.000 A 
ATOM     23  C   UNL     1       7.222   6.805  16.719  0.00  0.00    +0.000 A 
ATOM     24  C   UNL     1       6.415   5.835  16.176  0.00  0.00    +0.000 A 
ATOM     25  C   UNL     1       5.949   4.770  16.921  0.00  0.00    +0.000 A 
ATOM     26  O   UNL     1       5.180   3.926  16.169  0.00  0.00    +0.000 OA
ATOM     27  C   UNL     1       5.275   4.550  14.869  0.00  0.00    +0.000 C 
ATOM     28  O   UNL     1       5.999   5.796  14.883  0.00  0.00    +0.000 OA
ENDBRANCH  17  19
ENDBRANCH   6  17
TORSDOF 4
ENDMDL
MODEL 9
REMARK VINA RESULT:      -7.4      2.923      6.131
REMARK  Name = 
REMARK  4 active torsions:
REMARK  status: ('A' for Active; 'I' for Inactive)
REMARK    1  A    between atoms: C_2  and  C_3
REMARK    2  A    between atoms: C_8  and  N_9
REMARK    3  A    between atoms: C_14  and  N_15
REMARK    4  A    between atoms: N_15  and  C_16
REMARK                            x       y       z     vdW  Elec       q    Type
REMARK                         _______ _______ _______ _____ _____    ______ ____
ROOT
ATOM      1  N   UNL     1       4.454   4.578  18.147  0.00  0.00    +0.000 N 
ATOM      2  C   UNL     1       3.316   4.687  18.944  0.00  0.00    +0.000 A 
ATOM      3  N   UNL     1       2.560   3.588  19.059  0.00  0.00    +0.000 NA
ATOM      4  C   UNL     1       1.524   3.666  19.913  0.00  0.00    +0.000 A 
ATOM      5  C   UNL     1       1.226   4.788  20.648  0.00  0.00    +0.000 A 
ATOM      6  C   UNL     1       2.018   5.892  20.420  0.00  0.00    +0.000 A 
ATOM      7  N   UNL     1       3.055   5.843  19.568  0.00  0.00    +0.000 NA
ATOM      8  H   UNL     1       4.540   3.620  17.834  0.00  0.00    +0.000 HD
ENDROOT
BRANCH   1  14
ATOM      9  C   UNL     1       6.169   6.188  17.284  0.00  0.00    +0.000 A 
ATOM     10  C   UNL     1       7.413   6.813  17.486  0.00  0.00    +0.000 A 
ATOM     11  C   UNL     1       8.147   6.582  18.648  0.00  0.00    +0.000 A 
ATOM     12  C   UNL     1       7.641   5.733  19.624  0.00  0.00    +0.000 A 
ATOM     13  C   UNL     1       6.413   5.099  19.426  0.00  0.00    +0.000 A 
ATOM     14  C   UNL     1       5.667   5.289  18.248  0.00  0.00    +0.000 A 
BRANCH   9  16
ATOM     15  N   UNL     1       4.893   6.969  15.159  0.00  0.00    +0.000 NA
ATOM     16  C   UNL     1       5.437   6.587  16.113  0.00  0.00    +0.000 C 
ENDBRANCH   9  16
ENDBRANCH   1  14
BRANCH   6  17
ATOM     17  N   UNL     1       1.737   7.088  21.127  0.00  0.00    +0.000 N 
ATOM     18  H   UNL     1       2.575   7.351  21.647  0.00  0.00    +0.000 HD
BRANCH  17  19
ATOM     19  C   UNL     1       1.148   8.239  20.543  0.00  0.00    +0.000 A 
ATOM     20  C   UNL     1       0.161   9.035  21.164  0.00  0.00    +0.000 A 
ATOM     21 CL   UNL     1      -0.359   8.776  22.800  0.00  0.00    +0.000 Cl
ATOM     22  C   UNL     1      -0.392  10.160  20.511  0.00  0.00    +0.000 A 
ATOM     23  C   UNL     1       0.056  10.543  19.249  0.00  0.00    +0.000 A 
ATOM     24  C   UNL     1       1.062   9.800  18.679  0.00  0.00    +0.000 A 
ATOM     25  C   UNL     1       1.595   8.690  19.303  0.00  0.00    +0.000 A 
ATOM     26  O   UNL     1       2.591   8.122  18.558  0.00  0.00    +0.000 OA
ATOM     27  C   UNL     1       2.658   9.037  17.441  0.00  0.00    +0.000 C 
ATOM     28  O   UNL     1       1.645  10.061  17.480  0.00  0.00    +0.000 OA
ENDBRANCH  17  19
ENDBRANCH   6  17
TORSDOF 4
ENDMDL
