MODEL 1
REMARK VINA RESULT:      -8.9      0.000      0.000
REMARK  Name = 
REMARK  7 active torsions:
REMARK  status: ('A' for Active; 'I' for Inactive)
REMARK    1  A    between atoms: C_1  and  C_2
REMARK    2  A    between atoms: C_2  and  C_3
REMARK    3  A    between atoms: C_2  and  C_16
REMARK    4  A    between atoms: C_6  and  C_7
REMARK    5  A    between atoms: C_22  and  C_23
REMARK    6  A    between atoms: C_26  and  O_27
REMARK    7  A    between atoms: O_27  and  C_28
REMARK                            x       y       z     vdW  Elec       q    Type
REMARK                         _______ _______ _______ _____ _____    ______ ____
ROOT
ATOM      1  C   UNL     1       5.758   5.176  18.023  0.00  0.00    +0.000 A 
ATOM      2  N   UNL     1       6.212   4.002  18.430  0.00  0.00    +0.000 NA
ATOM      3  N   UNL     1       5.323   3.494  19.351  0.00  0.00    +0.000 NA
ATOM      4  C   UNL     1       4.353   4.363  19.466  0.00  0.00    +0.000 A 
ATOM      5  N   UNL     1       4.572   5.459  18.670  0.00  0.00    +0.000 N 
ATOM      6  N   UNL     1       3.866   6.619  18.589  0.00  0.00    +0.000 NA
ATOM      7  C   UNL     1       2.662   6.619  19.088  0.00  0.00    +0.000 C 
ATOM      8  C   UNL     1       1.901   5.377  19.532  0.00  0.00    +0.000 C 
ATOM      9  S   UNL     1       2.966   4.270  20.484  0.00  0.00    +0.000 S 
ENDROOT
BRANCH   7  10
ATOM     10  C   UNL     1       1.959   7.940  19.154  0.00  0.00    +0.000 A 
ATOM     11  C   UNL     1       1.383   8.427  20.327  0.00  0.00    +0.000 A 
ATOM     12  C   UNL     1       0.729   9.663  20.317  0.00  0.00    +0.000 A 
ATOM     13  C   UNL     1       0.644  10.425  19.146  0.00  0.00    +0.000 A 
ATOM     14  C   UNL     1       1.187   9.921  17.968  0.00  0.00    +0.000 A 
ATOM     15  C   UNL     1       1.860   8.696  17.976  0.00  0.00    +0.000 A 
BRANCH  13  16
ATOM     16  O   UNL     1      -0.047  11.587  19.275  0.00  0.00    +0.000 OA
BRANCH  16  17
ATOM     17  C   UNL     1      -1.404  11.655  18.863  0.00  0.00    +0.000 C 
ATOM     18  F   UNL     1      -2.234  12.232  19.756  0.00  0.00    +0.000 F 
ATOM     19  F   UNL     1      -1.480  12.331  17.696  0.00  0.00    +0.000 F 
ATOM     20  F   UNL     1      -1.845  10.394  18.648  0.00  0.00    +0.000 F 
ENDBRANCH  16  17
ENDBRANCH  13  16
ENDBRANCH   7  10
BRANCH   1  22
ATOM     21  C   UNL     1       5.335   6.491  15.953  0.00  0.00    +0.000 C 
ATOM     22  C   UNL     1       6.390   6.060  16.985  0.00  0.00    +0.000 C 
BRANCH  22  23
ATOM     23  C   UNL     1       7.195   7.213  17.578  0.00  0.00    +0.000 A 
ATOM     24  C   UNL     1       8.114   6.977  18.611  0.00  0.00    +0.000 A 
ATOM     25  C   UNL     1       8.861   8.028  19.163  0.00  0.00    +0.000 A 
ATOM     26  C   UNL     1       8.722   9.355  18.713  0.00  0.00    +0.000 A 
ATOM     27  C   UNL     1       7.810   9.566  17.672  0.00  0.00    +0.000 A 
ATOM     28  F   UNL     1       7.594  10.794  17.176  0.00  0.00    +0.000 F 
ATOM     29  C   UNL     1       7.072   8.526  17.109  0.00  0.00    +0.000 A 
BRANCH  26  30
ATOM     30  C   UNL     1       9.493  10.463  19.320  0.00  0.00    +0.000 A 
ATOM     31  C   UNL     1      10.493  11.149  18.604  0.00  0.00    +0.000 A 
ATOM     32  C   UNL     1      11.209  12.207  19.174  0.00  0.00    +0.000 A 
ATOM     33  C   UNL     1      10.953  12.594  20.481  0.00  0.00    +0.000 A 
ATOM     34  C   UNL     1       9.974  11.931  21.219  0.00  0.00    +0.000 A 
ATOM     35  C   UNL     1       9.251  10.886  20.639  0.00  0.00    +0.000 A 
ENDBRANCH  26  30
ENDBRANCH  22  23
ENDBRANCH   1  22
TORSDOF 6
ENDMDL
MODEL 2
REMARK VINA RESULT:      -8.8      0.091      1.153
REMARK  Name = 
REMARK  7 active torsions:
REMARK  status: ('A' for Active; 'I' for Inactive)
REMARK    1  A    between atoms: C_1  and  C_2
REMARK    2  A    between atoms: C_2  and  C_3
REMARK    3  A    between atoms: C_2  and  C_16
REMARK    4  A    between atoms: C_6  and  C_7
REMARK    5  A    between atoms: C_22  and  C_23
REMARK    6  A    between atoms: C_26  and  O_27
REMARK    7  A    between atoms: O_27  and  C_28
REMARK                            x       y       z     vdW  Elec       q    Type
REMARK                         _______ _______ _______ _____ _____    ______ ____
ROOT
ATOM      1  C   UNL     1       5.784   5.234  18.061  0.00  0.00    +0.000 A 
ATOM      2  N   UNL     1       6.254   4.077  18.496  0.00  0.00    +0.000 NA
ATOM      3  N   UNL     1       5.364   3.569  19.417  0.00  0.00    +0.000 NA
ATOM      4  C   UNL     1       4.378   4.424  19.506  0.00  0.00    +0.000 A 
ATOM      5  N   UNL     1       4.586   5.508  18.691  0.00  0.00    +0.000 N 
ATOM      6  N   UNL     1       3.860   6.653  18.581  0.00  0.00    +0.000 NA
ATOM      7  C   UNL     1       2.651   6.641  19.068  0.00  0.00    +0.000 C 
ATOM      8  C   UNL     1       1.908   5.394  19.528  0.00  0.00    +0.000 C 
ATOM      9  S   UNL     1       2.982   4.324  20.511  0.00  0.00    +0.000 S 
ENDROOT
BRANCH   7  10
ATOM     10  C   UNL     1       1.924   7.951  19.102  0.00  0.00    +0.000 A 
ATOM     11  C   UNL     1       1.779   8.758  17.974  0.00  0.00    +0.000 A 
ATOM     12  C   UNL     1       1.100   9.976  18.077  0.00  0.00    +0.000 A 
ATOM     13  C   UNL     1       0.560  10.400  19.297  0.00  0.00    +0.000 A 
ATOM     14  C   UNL     1       0.738   9.611  20.429  0.00  0.00    +0.000 A 
ATOM     15  C   UNL     1       1.398   8.383  20.327  0.00  0.00    +0.000 A 
BRANCH  13  16
ATOM     16  O   UNL     1      -0.043  11.617  19.257  0.00  0.00    +0.000 OA
BRANCH  16  17
ATOM     17  C   UNL     1      -1.413  11.717  18.893  0.00  0.00    +0.000 C 
ATOM     18  F   UNL     1      -2.212  12.225  19.853  0.00  0.00    +0.000 F 
ATOM     19  F   UNL     1      -1.522  12.481  17.784  0.00  0.00    +0.000 F 
ATOM     20  F   UNL     1      -1.865  10.477  18.596  0.00  0.00    +0.000 F 
ENDBRANCH  16  17
ENDBRANCH  13  16
ENDBRANCH   7  10
BRANCH   1  22
ATOM     21  C   UNL     1       5.351   6.530  15.981  0.00  0.00    +0.000 C 
ATOM     22  C   UNL     1       6.410   6.110  17.014  0.00  0.00    +0.000 C 
BRANCH  22  23
ATOM     23  C   UNL     1       7.215   7.270  17.593  0.00  0.00    +0.000 A 
ATOM     24  C   UNL     1       8.169   7.038  18.596  0.00  0.00    +0.000 A 
ATOM     25  C   UNL     1       8.917   8.095  19.135  0.00  0.00    +0.000 A 
ATOM     26  C   UNL     1       8.744   9.424  18.703  0.00  0.00    +0.000 A 
ATOM     27  C   UNL     1       7.797   9.631  17.692  0.00  0.00    +0.000 A 
ATOM     28  F   UNL     1       7.548  10.860  17.216  0.00  0.00    +0.000 F 
ATOM     29  C   UNL     1       7.058   8.585  17.142  0.00  0.00    +0.000 A 
BRANCH  26  30
ATOM     30  C   UNL     1       9.516  10.538  19.297  0.00  0.00    +0.000 A 
ATOM     31  C   UNL     1       9.269  10.997  20.605  0.00  0.00    +0.000 A 
ATOM     32  C   UNL     1      10.011  12.038  21.170  0.00  0.00    +0.000 A 
ATOM     33  C   UNL     1      11.010  12.659  20.434  0.00  0.00    +0.000 A 
ATOM     34  C   UNL     1      11.275  12.233  19.134  0.00  0.00    +0.000 A 
ATOM     35  C   UNL     1      10.542  11.181  18.580  0.00  0.00    +0.000 A 
ENDBRANCH  26  30
ENDBRANCH  22  23
ENDBRANCH   1  22
TORSDOF 6
ENDMDL
MODEL 3
REMARK VINA RESULT:      -8.6      1.113      1.471
REMARK  Name = 
REMARK  7 active torsions:
REMARK  status: ('A' for Active; 'I' for Inactive)
REMARK    1  A    between atoms: C_1  and  C_2
REMARK    2  A    between atoms: C_2  and  C_3
REMARK    3  A    between atoms: C_2  and  C_16
REMARK    4  A    between atoms: C_6  and  C_7
REMARK    5  A    between atoms: C_22  and  C_23
REMARK    6  A    between atoms: C_26  and  O_27
REMARK    7  A    between atoms: O_27  and  C_28
REMARK                            x       y       z     vdW  Elec       q    Type
REMARK                         _______ _______ _______ _____ _____    ______ ____
ROOT
ATOM      1  C   UNL     1       5.681   5.146  18.023  0.00  0.00    +0.000 A 
ATOM      2  N   UNL     1       6.127   3.959  18.399  0.00  0.00    +0.000 NA
ATOM      3  N   UNL     1       5.258   3.450  19.339  0.00  0.00    +0.000 NA
ATOM      4  C   UNL     1       4.306   4.333  19.496  0.00  0.00    +0.000 A 
ATOM      5  N   UNL     1       4.520   5.438  18.709  0.00  0.00    +0.000 N 
ATOM      6  N   UNL     1       3.830   6.610  18.667  0.00  0.00    +0.000 NA
ATOM      7  C   UNL     1       2.642   6.621  19.202  0.00  0.00    +0.000 C 
ATOM      8  C   UNL     1       1.874   5.384  19.650  0.00  0.00    +0.000 C 
ATOM      9  S   UNL     1       2.948   4.246  20.553  0.00  0.00    +0.000 S 
ENDROOT
BRANCH   7  10
ATOM     10  C   UNL     1       1.963   7.952  19.309  0.00  0.00    +0.000 A 
ATOM     11  C   UNL     1       1.374   8.402  20.491  0.00  0.00    +0.000 A 
ATOM     12  C   UNL     1       0.744   9.650  20.518  0.00  0.00    +0.000 A 
ATOM     13  C   UNL     1       0.695  10.460  19.378  0.00  0.00    +0.000 A 
ATOM     14  C   UNL     1       1.251   9.994  18.191  0.00  0.00    +0.000 A 
ATOM     15  C   UNL     1       1.900   8.756  18.162  0.00  0.00    +0.000 A 
BRANCH  13  16
ATOM     16  O   UNL     1       0.024  11.629  19.542  0.00  0.00    +0.000 OA
BRANCH  16  17
ATOM     17  C   UNL     1       0.672  12.741  20.144  0.00  0.00    +0.000 C 
ATOM     18  F   UNL     1       0.430  12.885  21.463  0.00  0.00    +0.000 F 
ATOM     19  F   UNL     1       2.006  12.632  19.955  0.00  0.00    +0.000 F 
ATOM     20  F   UNL     1       0.249  13.866  19.524  0.00  0.00    +0.000 F 
ENDBRANCH  16  17
ENDBRANCH  13  16
ENDBRANCH   7  10
BRANCH   1  22
ATOM     21  C   UNL     1       5.222   6.485  15.976  0.00  0.00    +0.000 C 
ATOM     22  C   UNL     1       6.296   6.036  16.981  0.00  0.00    +0.000 C 
BRANCH  22  23
ATOM     23  C   UNL     1       7.122   7.177  17.567  0.00  0.00    +0.000 A 
ATOM     24  C   UNL     1       8.055   6.926  18.584  0.00  0.00    +0.000 A 
ATOM     25  C   UNL     1       8.822   7.966  19.130  0.00  0.00    +0.000 A 
ATOM     26  C   UNL     1       8.690   9.296  18.689  0.00  0.00    +0.000 A 
ATOM     27  C   UNL     1       7.764   9.523  17.663  0.00  0.00    +0.000 A 
ATOM     28  F   UNL     1       7.554  10.756  17.177  0.00  0.00    +0.000 F 
ATOM     29  C   UNL     1       7.006   8.494  17.107  0.00  0.00    +0.000 A 
BRANCH  26  30
ATOM     30  C   UNL     1       9.483  10.393  19.290  0.00  0.00    +0.000 A 
ATOM     31  C   UNL     1       9.252  10.840  20.605  0.00  0.00    +0.000 A 
ATOM     32  C   UNL     1      10.013  11.864  21.176  0.00  0.00    +0.000 A 
ATOM     33  C   UNL     1      11.014  12.480  20.439  0.00  0.00    +0.000 A 
ATOM     34  C   UNL     1      11.263  12.066  19.131  0.00  0.00    +0.000 A 
ATOM     35  C   UNL     1      10.510  11.030  18.572  0.00  0.00    +0.000 A 
ENDBRANCH  26  30
ENDBRANCH  22  23
ENDBRANCH   1  22
TORSDOF 6
ENDMDL
MODEL 4
REMARK VINA RESULT:      -8.6      1.029      1.175
REMARK  Name = 
REMARK  7 active torsions:
REMARK  status: ('A' for Active; 'I' for Inactive)
REMARK    1  A    between atoms: C_1  and  C_2
REMARK    2  A    between atoms: C_2  and  C_3
REMARK    3  A    between atoms: C_2  and  C_16
REMARK    4  A    between atoms: C_6  and  C_7
REMARK    5  A    between atoms: C_22  and  C_23
REMARK    6  A    between atoms: C_26  and  O_27
REMARK    7  A    between atoms: O_27  and  C_28
REMARK                            x       y       z     vdW  Elec       q    Type
REMARK                         _______ _______ _______ _____ _____    ______ ____
ROOT
ATOM      1  C   UNL     1       5.706   5.190  18.025  0.00  0.00    +0.000 A 
ATOM      2  N   UNL     1       6.162   4.012  18.416  0.00  0.00    +0.000 NA
ATOM      3  N   UNL     1       5.287   3.498  19.348  0.00  0.00    +0.000 NA
ATOM      4  C   UNL     1       4.322   4.370  19.486  0.00  0.00    +0.000 A 
ATOM      5  N   UNL     1       4.531   5.471  18.694  0.00  0.00    +0.000 N 
ATOM      6  N   UNL     1       3.827   6.634  18.635  0.00  0.00    +0.000 NA
ATOM      7  C   UNL     1       2.632   6.633  19.154  0.00  0.00    +0.000 C 
ATOM      8  C   UNL     1       1.875   5.389  19.602  0.00  0.00    +0.000 C 
ATOM      9  S   UNL     1       2.952   4.271  20.527  0.00  0.00    +0.000 S 
ENDROOT
BRANCH   7  10
ATOM     10  C   UNL     1       1.934   7.956  19.243  0.00  0.00    +0.000 A 
ATOM     11  C   UNL     1       1.383   8.436  20.431  0.00  0.00    +0.000 A 
ATOM     12  C   UNL     1       0.733   9.674  20.440  0.00  0.00    +0.000 A 
ATOM     13  C   UNL     1       0.626  10.443  19.276  0.00  0.00    +0.000 A 
ATOM     14  C   UNL     1       1.144   9.946  18.085  0.00  0.00    +0.000 A 
ATOM     15  C   UNL     1       1.813   8.719  18.072  0.00  0.00    +0.000 A 
BRANCH  13  16
ATOM     16  O   UNL     1      -0.059  11.607  19.427  0.00  0.00    +0.000 OA
BRANCH  16  17
ATOM     17  C   UNL     1       0.644  12.818  19.665  0.00  0.00    +0.000 C 
ATOM     18  F   UNL     1       1.986  12.687  19.715  0.00  0.00    +0.000 F 
ATOM     19  F   UNL     1       0.329  13.711  18.702  0.00  0.00    +0.000 F 
ATOM     20  F   UNL     1       0.237  13.317  20.854  0.00  0.00    +0.000 F 
ENDBRANCH  16  17
ENDBRANCH  13  16
ENDBRANCH   7  10
BRANCH   1  22
ATOM     21  C   UNL     1       5.249   6.531  15.979  0.00  0.00    +0.000 C 
ATOM     22  C   UNL     1       6.322   6.080  16.984  0.00  0.00    +0.000 C 
BRANCH  22  23
ATOM     23  C   UNL     1       7.148   7.220  17.572  0.00  0.00    +0.000 A 
ATOM     24  C   UNL     1       8.078   6.968  18.592  0.00  0.00    +0.000 A 
ATOM     25  C   UNL     1       8.845   8.007  19.139  0.00  0.00    +0.000 A 
ATOM     26  C   UNL     1       8.716   9.337  18.698  0.00  0.00    +0.000 A 
ATOM     27  C   UNL     1       7.793   9.565  17.670  0.00  0.00    +0.000 A 
ATOM     28  F   UNL     1       7.586  10.799  17.183  0.00  0.00    +0.000 F 
ATOM     29  C   UNL     1       7.035   8.537  17.112  0.00  0.00    +0.000 A 
BRANCH  26  30
ATOM     30  C   UNL     1       9.509  10.433  19.300  0.00  0.00    +0.000 A 
ATOM     31  C   UNL     1      10.552  11.065  18.598  0.00  0.00    +0.000 A 
ATOM     32  C   UNL     1      11.289  12.112  19.162  0.00  0.00    +0.000 A 
ATOM     33  C   UNL     1      11.009  12.541  20.452  0.00  0.00    +0.000 A 
ATOM     34  C   UNL     1       9.987  11.931  21.177  0.00  0.00    +0.000 A 
ATOM     35  C   UNL     1       9.244  10.897  20.601  0.00  0.00    +0.000 A 
ENDBRANCH  26  30
ENDBRANCH  22  23
ENDBRANCH   1  22
TORSDOF 6
ENDMDL
MODEL 5
REMARK VINA RESULT:      -8.6      1.060      1.442
REMARK  Name = 
REMARK  7 active torsions:
REMARK  status: ('A' for Active; 'I' for Inactive)
REMARK    1  A    between atoms: C_1  and  C_2
REMARK    2  A    between atoms: C_2  and  C_3
REMARK    3  A    between atoms: C_2  and  C_16
REMARK    4  A    between atoms: C_6  and  C_7
REMARK    5  A    between atoms: C_22  and  C_23
REMARK    6  A    between atoms: C_26  and  O_27
REMARK    7  A    between atoms: O_27  and  C_28
REMARK                            x       y       z     vdW  Elec       q    Type
REMARK                         _______ _______ _______ _____ _____    ______ ____
ROOT
ATOM      1  C   UNL     1       5.833   5.241  17.991  0.00  0.00    +0.000 A 
ATOM      2  N   UNL     1       6.297   4.072  18.401  0.00  0.00    +0.000 NA
ATOM      3  N   UNL     1       5.404   3.548  19.310  0.00  0.00    +0.000 NA
ATOM      4  C   UNL     1       4.421   4.404  19.415  0.00  0.00    +0.000 A 
ATOM      5  N   UNL     1       4.635   5.505  18.624  0.00  0.00    +0.000 N 
ATOM      6  N   UNL     1       3.913   6.656  18.538  0.00  0.00    +0.000 NA
ATOM      7  C   UNL     1       2.704   6.638  19.022  0.00  0.00    +0.000 C 
ATOM      8  C   UNL     1       1.955   5.384  19.453  0.00  0.00    +0.000 C 
ATOM      9  S   UNL     1       3.023   4.288  20.415  0.00  0.00    +0.000 S 
ENDROOT
BRANCH   7  10
ATOM     10  C   UNL     1       1.982   7.949  19.083  0.00  0.00    +0.000 A 
ATOM     11  C   UNL     1       1.805   8.761  17.963  0.00  0.00    +0.000 A 
ATOM     12  C   UNL     1       1.133   9.980  18.092  0.00  0.00    +0.000 A 
ATOM     13  C   UNL     1       0.630  10.401  19.329  0.00  0.00    +0.000 A 
ATOM     14  C   UNL     1       0.840   9.606  20.452  0.00  0.00    +0.000 A 
ATOM     15  C   UNL     1       1.493   8.377  20.326  0.00  0.00    +0.000 A 
BRANCH  13  16
ATOM     16  O   UNL     1       0.030  11.619  19.312  0.00  0.00    +0.000 OA
BRANCH  16  17
ATOM     17  C   UNL     1       0.814  12.798  19.420  0.00  0.00    +0.000 C 
ATOM     18  F   UNL     1       0.297  13.744  20.230  0.00  0.00    +0.000 F 
ATOM     19  F   UNL     1       2.047  12.471  19.864  0.00  0.00    +0.000 F 
ATOM     20  F   UNL     1       0.940  13.339  18.186  0.00  0.00    +0.000 F 
ENDBRANCH  16  17
ENDBRANCH  13  16
ENDBRANCH   7  10
BRANCH   1  22
ATOM     21  C   UNL     1       5.414   6.568  15.928  0.00  0.00    +0.000 C 
ATOM     22  C   UNL     1       6.465   6.137  16.964  0.00  0.00    +0.000 C 
BRANCH  22  23
ATOM     23  C   UNL     1       7.257   7.291  17.570  0.00  0.00    +0.000 A 
ATOM     24  C   UNL     1       8.186   7.052  18.594  0.00  0.00    +0.000 A 
ATOM     25  C   UNL     1       8.923   8.104  19.158  0.00  0.00    +0.000 A 
ATOM     26  C   UNL     1       8.762   9.436  18.730  0.00  0.00    +0.000 A 
ATOM     27  C   UNL     1       7.840   9.651  17.698  0.00  0.00    +0.000 A 
ATOM     28  F   UNL     1       7.604  10.884  17.224  0.00  0.00    +0.000 F 
ATOM     29  C   UNL     1       7.113   8.610  17.124  0.00  0.00    +0.000 A 
BRANCH  26  30
ATOM     30  C   UNL     1       9.522  10.545  19.350  0.00  0.00    +0.000 A 
ATOM     31  C   UNL     1      10.579  11.185  18.677  0.00  0.00    +0.000 A 
ATOM     32  C   UNL     1      11.284  12.244  19.257  0.00  0.00    +0.000 A 
ATOM     33  C   UNL     1      10.959  12.678  20.535  0.00  0.00    +0.000 A 
ATOM     34  C   UNL     1       9.921  12.060  21.231  0.00  0.00    +0.000 A 
ATOM     35  C   UNL     1       9.209  11.014  20.639  0.00  0.00    +0.000 A 
ENDBRANCH  26  30
ENDBRANCH  22  23
ENDBRANCH   1  22
TORSDOF 6
ENDMDL
MODEL 6
REMARK VINA RESULT:      -8.6      0.657      1.127
REMARK  Name = 
REMARK  7 active torsions:
REMARK  status: ('A' for Active; 'I' for Inactive)
REMARK    1  A    between atoms: C_1  and  C_2
REMARK    2  A    between atoms: C_2  and  C_3
REMARK    3  A    between atoms: C_2  and  C_16
REMARK    4  A    between atoms: C_6  and  C_7
REMARK    5  A    between atoms: C_22  and  C_23
REMARK    6  A    between atoms: C_26  and  O_27
REMARK    7  A    between atoms: O_27  and  C_28
REMARK                            x       y       z     vdW  Elec       q    Type
REMARK                         _______ _______ _______ _____ _____    ______ ____
ROOT
ATOM      1  C   UNL     1       5.469   4.567  18.349  0.00  0.00    +0.000 A 
ATOM      2  N   UNL     1       5.797   3.393  18.863  0.00  0.00    +0.000 NA
ATOM      3  N   UNL     1       4.873   3.074  19.834  0.00  0.00    +0.000 NA
ATOM      4  C   UNL     1       4.007   4.053  19.872  0.00  0.00    +0.000 A 
ATOM      5  N   UNL     1       4.332   5.038  18.974  0.00  0.00    +0.000 N 
ATOM      6  N   UNL     1       3.755   6.257  18.788  0.00  0.00    +0.000 NA
ATOM      7  C   UNL     1       2.567   6.437  19.292  0.00  0.00    +0.000 C 
ATOM      8  C   UNL     1       1.682   5.333  19.856  0.00  0.00    +0.000 C 
ATOM      9  S   UNL     1       2.634   4.208  20.902  0.00  0.00    +0.000 S 
ENDROOT
BRANCH   7  10
ATOM     10  C   UNL     1       2.015   7.828  19.237  0.00  0.00    +0.000 A 
ATOM     11  C   UNL     1       1.340   8.411  20.310  0.00  0.00    +0.000 A 
ATOM     12  C   UNL     1       0.837   9.710  20.187  0.00  0.00    +0.000 A 
ATOM     13  C   UNL     1       1.000  10.439  19.004  0.00  0.00    +0.000 A 
ATOM     14  C   UNL     1       1.642   9.843  17.923  0.00  0.00    +0.000 A 
ATOM     15  C   UNL     1       2.164   8.552  18.046  0.00  0.00    +0.000 A 
BRANCH  13  16
ATOM     16  O   UNL     1       0.433  11.673  19.016  0.00  0.00    +0.000 OA
BRANCH  16  17
ATOM     17  C   UNL     1      -0.940  11.826  18.685  0.00  0.00    +0.000 C 
ATOM     18  F   UNL     1      -1.268  13.040  18.197  0.00  0.00    +0.000 F 
ATOM     19  F   UNL     1      -1.285  10.884  17.780  0.00  0.00    +0.000 F 
ATOM     20  F   UNL     1      -1.671  11.623  19.804  0.00  0.00    +0.000 F 
ENDBRANCH  16  17
ENDBRANCH  13  16
ENDBRANCH   7  10
BRANCH   1  22
ATOM     21  C   UNL     1       5.195   5.540  16.075  0.00  0.00    +0.000 C 
ATOM     22  C   UNL     1       6.176   5.275  17.230  0.00  0.00    +0.000 C 
BRANCH  22  23
ATOM     23  C   UNL     1       6.955   6.506  17.685  0.00  0.00    +0.000 A 
ATOM     24  C   UNL     1       7.925   6.397  18.692  0.00  0.00    +0.000 A 
ATOM     25  C   UNL     1       8.650   7.519  19.118  0.00  0.00    +0.000 A 
ATOM     26  C   UNL     1       8.436   8.795  18.563  0.00  0.00    +0.000 A 
ATOM     27  C   UNL     1       7.474   8.880  17.549  0.00  0.00    +0.000 A 
ATOM     28  F   UNL     1       7.187  10.051  16.960  0.00  0.00    +0.000 F 
ATOM     29  C   UNL     1       6.758   7.767  17.111  0.00  0.00    +0.000 A 
BRANCH  26  30
ATOM     30  C   UNL     1       9.184   9.982  19.038  0.00  0.00    +0.000 A 
ATOM     31  C   UNL     1       9.129  10.404  20.379  0.00  0.00    +0.000 A 
ATOM     32  C   UNL     1       9.850  11.515  20.829  0.00  0.00    +0.000 A 
ATOM     33  C   UNL     1      10.632  12.241  19.943  0.00  0.00    +0.000 A 
ATOM     34  C   UNL     1      10.702  11.853  18.606  0.00  0.00    +0.000 A 
ATOM     35  C   UNL     1       9.993  10.733  18.166  0.00  0.00    +0.000 A 
ENDBRANCH  26  30
ENDBRANCH  22  23
ENDBRANCH   1  22
TORSDOF 6
ENDMDL
MODEL 7
REMARK VINA RESULT:      -8.5      1.346      2.057
REMARK  Name = 
REMARK  7 active torsions:
REMARK  status: ('A' for Active; 'I' for Inactive)
REMARK    1  A    between atoms: C_1  and  C_2
REMARK    2  A    between atoms: C_2  and  C_3
REMARK    3  A    between atoms: C_2  and  C_16
REMARK    4  A    between atoms: C_6  and  C_7
REMARK    5  A    between atoms: C_22  and  C_23
REMARK    6  A    between atoms: C_26  and  O_27
REMARK    7  A    between atoms: O_27  and  C_28
REMARK                            x       y       z     vdW  Elec       q    Type
REMARK                         _______ _______ _______ _____ _____    ______ ____
ROOT
ATOM      1  C   UNL     1       4.919   3.812  18.523  0.00  0.00    +0.000 A 
ATOM      2  N   UNL     1       5.138   2.645  19.107  0.00  0.00    +0.000 NA
ATOM      3  N   UNL     1       4.254   2.516  20.156  0.00  0.00    +0.000 NA
ATOM      4  C   UNL     1       3.519   3.597  20.170  0.00  0.00    +0.000 A 
ATOM      5  N   UNL     1       3.896   4.467  19.179  0.00  0.00    +0.000 N 
ATOM      6  N   UNL     1       3.461   5.733  18.933  0.00  0.00    +0.000 NA
ATOM      7  C   UNL     1       2.344   6.098  19.496  0.00  0.00    +0.000 C 
ATOM      8  C   UNL     1       1.374   5.159  20.200  0.00  0.00    +0.000 C 
ATOM      9  S   UNL     1       2.255   3.999  21.270  0.00  0.00    +0.000 S 
ENDROOT
BRANCH   7  10
ATOM     10  C   UNL     1       1.963   7.541  19.365  0.00  0.00    +0.000 A 
ATOM     11  C   UNL     1       1.372   8.258  20.405  0.00  0.00    +0.000 A 
ATOM     12  C   UNL     1       1.028   9.600  20.212  0.00  0.00    +0.000 A 
ATOM     13  C   UNL     1       1.270  10.239  18.991  0.00  0.00    +0.000 A 
ATOM     14  C   UNL     1       1.826   9.512  17.943  0.00  0.00    +0.000 A 
ATOM     15  C   UNL     1       2.190   8.176  18.136  0.00  0.00    +0.000 A 
BRANCH  13  16
ATOM     16  O   UNL     1       0.856  11.532  18.937  0.00  0.00    +0.000 OA
BRANCH  16  17
ATOM     17  C   UNL     1      -0.502  11.829  18.642  0.00  0.00    +0.000 C 
ATOM     18  F   UNL     1      -0.683  12.932  17.887  0.00  0.00    +0.000 F 
ATOM     19  F   UNL     1      -1.062  10.773  18.014  0.00  0.00    +0.000 F 
ATOM     20  F   UNL     1      -1.156  12.021  19.810  0.00  0.00    +0.000 F 
ENDBRANCH  16  17
ENDBRANCH  13  16
ENDBRANCH   7  10
BRANCH   1  22
ATOM     21  C   UNL     1       4.670   4.334  16.102  0.00  0.00    +0.000 C 
ATOM     22  C   UNL     1       5.625   4.343  17.308  0.00  0.00    +0.000 C 
BRANCH  22  23
ATOM     23  C   UNL     1       6.321   5.680  17.545  0.00  0.00    +0.000 A 
ATOM     24  C   UNL     1       5.869   6.838  16.896  0.00  0.00    +0.000 A 
ATOM     25  C   UNL     1       6.499   8.073  17.106  0.00  0.00    +0.000 A 
ATOM     26  C   UNL     1       7.605   8.205  17.968  0.00  0.00    +0.000 A 
ATOM     27  C   UNL     1       8.031   7.040  18.617  0.00  0.00    +0.000 A 
ATOM     28  F   UNL     1       9.082   7.055  19.451  0.00  0.00    +0.000 F 
ATOM     29  C   UNL     1       7.404   5.811  18.422  0.00  0.00    +0.000 A 
BRANCH  26  30
ATOM     30  C   UNL     1       8.283   9.507  18.163  0.00  0.00    +0.000 A 
ATOM     31  C   UNL     1       9.333   9.664  19.087  0.00  0.00    +0.000 A 
ATOM     32  C   UNL     1       9.983  10.890  19.258  0.00  0.00    +0.000 A 
ATOM     33  C   UNL     1       9.587  11.996  18.519  0.00  0.00    +0.000 A 
ATOM     34  C   UNL     1       8.546  11.875  17.600  0.00  0.00    +0.000 A 
ATOM     35  C   UNL     1       7.912  10.643  17.421  0.00  0.00    +0.000 A 
ENDBRANCH  26  30
ENDBRANCH  22  23
ENDBRANCH   1  22
TORSDOF 6
ENDMDL
MODEL 8
REMARK VINA RESULT:      -8.5      1.257      1.663
REMARK  Name = 
REMARK  7 active torsions:
REMARK  status: ('A' for Active; 'I' for Inactive)
REMARK    1  A    between atoms: C_1  and  C_2
REMARK    2  A    between atoms: C_2  and  C_3
REMARK    3  A    between atoms: C_2  and  C_16
REMARK    4  A    between atoms: C_6  and  C_7
REMARK    5  A    between atoms: C_22  and  C_23
REMARK    6  A    between atoms: C_26  and  O_27
REMARK    7  A    between atoms: O_27  and  C_28
REMARK                            x       y       z     vdW  Elec       q    Type
REMARK                         _______ _______ _______ _____ _____    ______ ____
ROOT
ATOM      1  C   UNL     1       5.491   4.669  18.312  0.00  0.00    +0.000 A 
ATOM      2  N   UNL     1       5.800   3.493  18.831  0.00  0.00    +0.000 NA
ATOM      3  N   UNL     1       4.849   3.175  19.776  0.00  0.00    +0.000 NA
ATOM      4  C   UNL     1       3.987   4.158  19.794  0.00  0.00    +0.000 A 
ATOM      5  N   UNL     1       4.340   5.145  18.908  0.00  0.00    +0.000 N 
ATOM      6  N   UNL     1       3.775   6.367  18.711  0.00  0.00    +0.000 NA
ATOM      7  C   UNL     1       2.575   6.552  19.185  0.00  0.00    +0.000 C 
ATOM      8  C   UNL     1       1.671   5.451  19.723  0.00  0.00    +0.000 C 
ATOM      9  S   UNL     1       2.589   4.318  20.789  0.00  0.00    +0.000 S 
ENDROOT
BRANCH   7  10
ATOM     10  C   UNL     1       2.032   7.946  19.120  0.00  0.00    +0.000 A 
ATOM     11  C   UNL     1       1.334   8.530  20.177  0.00  0.00    +0.000 A 
ATOM     12  C   UNL     1       0.841   9.831  20.045  0.00  0.00    +0.000 A 
ATOM     13  C   UNL     1       1.037  10.562  18.868  0.00  0.00    +0.000 A 
ATOM     14  C   UNL     1       1.701   9.965  17.802  0.00  0.00    +0.000 A 
ATOM     15  C   UNL     1       2.214   8.672  17.934  0.00  0.00    +0.000 A 
BRANCH  13  16
ATOM     16  O   UNL     1       0.475  11.799  18.870  0.00  0.00    +0.000 OA
BRANCH  16  17
ATOM     17  C   UNL     1       1.294  12.949  18.713  0.00  0.00    +0.000 C 
ATOM     18  F   UNL     1       2.201  12.861  17.718  0.00  0.00    +0.000 F 
ATOM     19  F   UNL     1       0.509  14.027  18.494  0.00  0.00    +0.000 F 
ATOM     20  F   UNL     1       1.971  13.149  19.867  0.00  0.00    +0.000 F 
ENDBRANCH  16  17
ENDBRANCH  13  16
ENDBRANCH   7  10
BRANCH   1  22
ATOM     21  C   UNL     1       5.279   5.661  16.039  0.00  0.00    +0.000 C 
ATOM     22  C   UNL     1       6.231   5.377  17.213  0.00  0.00    +0.000 C 
BRANCH  22  23
ATOM     23  C   UNL     1       7.013   6.596  17.694  0.00  0.00    +0.000 A 
ATOM     24  C   UNL     1       7.966   6.467  18.715  0.00  0.00    +0.000 A 
ATOM     25  C   UNL     1       8.694   7.579  19.165  0.00  0.00    +0.000 A 
ATOM     26  C   UNL     1       8.500   8.862  18.620  0.00  0.00    +0.000 A 
ATOM     27  C   UNL     1       7.554   8.966  17.592  0.00  0.00    +0.000 A 
ATOM     28  F   UNL     1       7.287  10.146  17.012  0.00  0.00    +0.000 F 
ATOM     29  C   UNL     1       6.836   7.865  17.131  0.00  0.00    +0.000 A 
BRANCH  26  30
ATOM     30  C   UNL     1       9.251  10.037  19.120  0.00  0.00    +0.000 A 
ATOM     31  C   UNL     1       9.153  10.464  20.458  0.00  0.00    +0.000 A 
ATOM     32  C   UNL     1       9.876  11.563  20.932  0.00  0.00    +0.000 A 
ATOM     33  C   UNL     1      10.703  12.273  20.073  0.00  0.00    +0.000 A 
ATOM     34  C   UNL     1      10.816  11.880  18.741  0.00  0.00    +0.000 A 
ATOM     35  C   UNL     1      10.105  10.771  18.277  0.00  0.00    +0.000 A 
ENDBRANCH  26  30
ENDBRANCH  22  23
ENDBRANCH   1  22
TORSDOF 6
ENDMDL
MODEL 9
REMARK VINA RESULT:      -8.4      1.357      2.264
REMARK  Name = 
REMARK  7 active torsions:
REMARK  status: ('A' for Active; 'I' for Inactive)
REMARK    1  A    between atoms: C_1  and  C_2
REMARK    2  A    between atoms: C_2  and  C_3
REMARK    3  A    between atoms: C_2  and  C_16
REMARK    4  A    between atoms: C_6  and  C_7
REMARK    5  A    between atoms: C_22  and  C_23
REMARK    6  A    between atoms: C_26  and  O_27
REMARK    7  A    between atoms: O_27  and  C_28
REMARK                            x       y       z     vdW  Elec       q    Type
REMARK                         _______ _______ _______ _____ _____    ______ ____
ROOT
ATOM      1  C   UNL     1       4.916   3.784  18.582  0.00  0.00    +0.000 A 
ATOM      2  N   UNL     1       5.148   2.626  19.178  0.00  0.00    +0.000 NA
ATOM      3  N   UNL     1       4.269   2.501  20.231  0.00  0.00    +0.000 NA
ATOM      4  C   UNL     1       3.524   3.575  20.237  0.00  0.00    +0.000 A 
ATOM      5  N   UNL     1       3.889   4.438  19.234  0.00  0.00    +0.000 N 
ATOM      6  N   UNL     1       3.442   5.697  18.976  0.00  0.00    +0.000 NA
ATOM      7  C   UNL     1       2.323   6.058  19.538  0.00  0.00    +0.000 C 
ATOM      8  C   UNL     1       1.364   5.118  20.257  0.00  0.00    +0.000 C 
ATOM      9  S   UNL     1       2.259   3.978  21.336  0.00  0.00    +0.000 S 
ENDROOT
BRANCH   7  10
ATOM     10  C   UNL     1       1.928   7.495  19.393  0.00  0.00    +0.000 A 
ATOM     11  C   UNL     1       2.132   8.215  18.215  0.00  0.00    +0.000 A 
ATOM     12  C   UNL     1       1.752   9.559  18.152  0.00  0.00    +0.000 A 
ATOM     13  C   UNL     1       1.168  10.198  19.251  0.00  0.00    +0.000 A 
ATOM     14  C   UNL     1       0.999   9.489  20.437  0.00  0.00    +0.000 A 
ATOM     15  C   UNL     1       1.358   8.139  20.501  0.00  0.00    +0.000 A 
BRANCH  13  16
ATOM     16  O   UNL     1       0.880  11.511  19.057  0.00  0.00    +0.000 OA
BRANCH  16  17
ATOM     17  C   UNL     1      -0.465  11.919  18.852  0.00  0.00    +0.000 C 
ATOM     18  F   UNL     1      -1.287  10.944  18.416  0.00  0.00    +0.000 F 
ATOM     19  F   UNL     1      -0.956  12.421  20.006  0.00  0.00    +0.000 F 
ATOM     20  F   UNL     1      -0.472  12.906  17.927  0.00  0.00    +0.000 F 
ENDBRANCH  16  17
ENDBRANCH  13  16
ENDBRANCH   7  10
BRANCH   1  22
ATOM     21  C   UNL     1       4.649   4.290  16.160  0.00  0.00    +0.000 C 
ATOM     22  C   UNL     1       5.612   4.308  17.359  0.00  0.00    +0.000 C 
BRANCH  22  23
ATOM     23  C   UNL     1       6.309   5.647  17.582  0.00  0.00    +0.000 A 
ATOM     24  C   UNL     1       5.840   6.804  16.943  0.00  0.00    +0.000 A 
ATOM     25  C   UNL     1       6.470   8.042  17.142  0.00  0.00    +0.000 A 
ATOM     26  C   UNL     1       7.593   8.177  17.980  0.00  0.00    +0.000 A 
ATOM     27  C   UNL     1       8.037   7.012  18.619  0.00  0.00    +0.000 A 
ATOM     28  F   UNL     1       9.105   7.030  19.430  0.00  0.00    +0.000 F 
ATOM     29  C   UNL     1       7.410   5.781  18.436  0.00  0.00    +0.000 A 
BRANCH  26  30
ATOM     30  C   UNL     1       8.271   9.481  18.162  0.00  0.00    +0.000 A 
ATOM     31  C   UNL     1       9.299   9.656  19.107  0.00  0.00    +0.000 A 
ATOM     32  C   UNL     1       9.949  10.884  19.266  0.00  0.00    +0.000 A 
ATOM     33  C   UNL     1       9.575  11.973  18.493  0.00  0.00    +0.000 A 
ATOM     34  C   UNL     1       8.555  11.835  17.552  0.00  0.00    +0.000 A 
ATOM     35  C   UNL     1       7.921  10.601  17.387  0.00  0.00    +0.000 A 
ENDBRANCH  26  30
ENDBRANCH  22  23
ENDBRANCH   1  22
TORSDOF 6
ENDMDL
