MODEL 1
REMARK VINA RESULT:      -8.3      0.000      0.000
REMARK  Name = 
REMARK  6 active torsions:
REMARK  status: ('A' for Active; 'I' for Inactive)
REMARK    1  A    between atoms: C_4  and  C_5
REMARK    2  A    between atoms: C_5  and  N_6
REMARK    3  A    between atoms: N_6  and  C_7
REMARK    4  A    between atoms: C_14  and  C_15
REMARK    5  A    between atoms: C_15  and  C_16
REMARK    6  A    between atoms: C_15  and  C_22
REMARK                            x       y       z     vdW  Elec       q    Type
REMARK                         _______ _______ _______ _____ _____    ______ ____
ROOT
ATOM      1  C   UNL     1       4.204   3.252  17.834  0.00  0.00    +0.000 C 
ATOM      2  C   UNL     1       3.090   2.170  17.909  0.00  0.00    +0.000 C 
ATOM      3  C   UNL     1       2.640   2.020  19.373  0.00  0.00    +0.000 C 
ATOM      4  C   UNL     1       1.999   3.329  19.850  0.00  0.00    +0.000 C 
ATOM      5  N   UNL     1       2.197   4.412  18.861  0.00  0.00    +0.000 NA
ATOM      6  C   UNL     1       1.471   4.051  17.626  0.00  0.00    +0.000 C 
ATOM      7  C   UNL     1       1.871   2.660  17.109  0.00  0.00    +0.000 C 
ATOM      8  C   UNL     1       3.678   4.547  18.589  0.00  0.00    +0.000 C 
ENDROOT
BRANCH   1   9
ATOM      9  N   UNL     1       4.632   3.501  16.462  0.00  0.00    +0.000 NA
ATOM     10  H   UNL     1       4.230   2.841  15.804  0.00  0.00    +0.000 HD
BRANCH   9  11
ATOM     11  C   UNL     1       6.061   3.640  16.247  0.00  0.00    +0.000 C 
BRANCH  11  15
ATOM     12  C   UNL     1       6.903   4.432  12.092  0.00  0.00    +0.000 A 
ATOM     13  C   UNL     1       5.919   3.508  12.441  0.00  0.00    +0.000 A 
ATOM     14  C   UNL     1       5.626   3.275  13.784  0.00  0.00    +0.000 A 
ATOM     15  C   UNL     1       6.313   3.961  14.792  0.00  0.00    +0.000 A 
ATOM     16  C   UNL     1       7.304   4.887  14.431  0.00  0.00    +0.000 A 
ATOM     17  C   UNL     1       7.593   5.123  13.086  0.00  0.00    +0.000 A 
ENDBRANCH  11  15
ENDBRANCH   9  11
ENDBRANCH   1   9
BRANCH   8  18
ATOM     18  C   UNL     1       4.052   5.958  17.964  0.00  0.00    +0.000 C 
BRANCH  18  19
ATOM     19  C   UNL     1       3.144   7.076  18.505  0.00  0.00    +0.000 A 
ATOM     20  C   UNL     1       2.655   7.070  19.821  0.00  0.00    +0.000 A 
ATOM     21  C   UNL     1       1.746   8.041  20.255  0.00  0.00    +0.000 A 
ATOM     22  C   UNL     1       1.315   9.035  19.379  0.00  0.00    +0.000 A 
ATOM     23  C   UNL     1       1.809   9.071  18.078  0.00  0.00    +0.000 A 
ATOM     24  C   UNL     1       2.721   8.104  17.645  0.00  0.00    +0.000 A 
ENDBRANCH  18  19
BRANCH  18  25
ATOM     25  C   UNL     1       5.541   6.326  18.011  0.00  0.00    +0.000 A 
ATOM     26  C   UNL     1       6.358   5.719  18.985  0.00  0.00    +0.000 A 
ATOM     27  C   UNL     1       7.668   6.150  19.197  0.00  0.00    +0.000 A 
ATOM     28  C   UNL     1       8.195   7.178  18.422  0.00  0.00    +0.000 A 
ATOM     29  C   UNL     1       7.420   7.754  17.418  0.00  0.00    +0.000 A 
ATOM     30  C   UNL     1       6.103   7.329  17.210  0.00  0.00    +0.000 A 
ENDBRANCH  18  25
ENDBRANCH   8  18
TORSDOF 6
ENDMDL
MODEL 2
REMARK VINA RESULT:      -8.0      0.228      1.567
REMARK  Name = 
REMARK  6 active torsions:
REMARK  status: ('A' for Active; 'I' for Inactive)
REMARK    1  A    between atoms: C_4  and  C_5
REMARK    2  A    between atoms: C_5  and  N_6
REMARK    3  A    between atoms: N_6  and  C_7
REMARK    4  A    between atoms: C_14  and  C_15
REMARK    5  A    between atoms: C_15  and  C_16
REMARK    6  A    between atoms: C_15  and  C_22
REMARK                            x       y       z     vdW  Elec       q    Type
REMARK                         _______ _______ _______ _____ _____    ______ ____
ROOT
ATOM      1  C   UNL     1       4.092   3.205  17.963  0.00  0.00    +0.000 C 
ATOM      2  C   UNL     1       2.980   2.117  17.968  0.00  0.00    +0.000 C 
ATOM      3  C   UNL     1       2.436   1.969  19.400  0.00  0.00    +0.000 C 
ATOM      4  C   UNL     1       1.760   3.276  19.830  0.00  0.00    +0.000 C 
ATOM      5  N   UNL     1       2.017   4.358  18.854  0.00  0.00    +0.000 NA
ATOM      6  C   UNL     1       1.374   3.990  17.575  0.00  0.00    +0.000 C 
ATOM      7  C   UNL     1       1.814   2.600  17.089  0.00  0.00    +0.000 C 
ATOM      8  C   UNL     1       3.511   4.499  18.678  0.00  0.00    +0.000 C 
ENDROOT
BRANCH   1   9
ATOM      9  N   UNL     1       4.607   3.452  16.621  0.00  0.00    +0.000 NA
ATOM     10  H   UNL     1       4.296   2.757  15.950  0.00  0.00    +0.000 HD
BRANCH   9  11
ATOM     11  C   UNL     1       6.037   3.673  16.509  0.00  0.00    +0.000 C 
BRANCH  11  15
ATOM     12  C   UNL     1       6.914   4.552  12.380  0.00  0.00    +0.000 A 
ATOM     13  C   UNL     1       7.621   5.195  13.395  0.00  0.00    +0.000 A 
ATOM     14  C   UNL     1       7.358   4.888  14.730  0.00  0.00    +0.000 A 
ATOM     15  C   UNL     1       6.386   3.937  15.063  0.00  0.00    +0.000 A 
ATOM     16  C   UNL     1       5.679   3.298  14.034  0.00  0.00    +0.000 A 
ATOM     17  C   UNL     1       5.945   3.603  12.699  0.00  0.00    +0.000 A 
ENDBRANCH  11  15
ENDBRANCH   9  11
ENDBRANCH   1   9
BRANCH   8  18
ATOM     18  C   UNL     1       3.918   5.910  18.074  0.00  0.00    +0.000 C 
BRANCH  18  19
ATOM     19  C   UNL     1       2.932   7.012  18.496  0.00  0.00    +0.000 A 
ATOM     20  C   UNL     1       2.522   8.027  17.615  0.00  0.00    +0.000 A 
ATOM     21  C   UNL     1       1.710   9.076  18.056  0.00  0.00    +0.000 A 
ATOM     22  C   UNL     1       1.292   9.127  19.383  0.00  0.00    +0.000 A 
ATOM     23  C   UNL     1       1.668   8.117  20.265  0.00  0.00    +0.000 A 
ATOM     24  C   UNL     1       2.476   7.065  19.825  0.00  0.00    +0.000 A 
ENDBRANCH  18  19
BRANCH  18  25
ATOM     25  C   UNL     1       5.385   6.315  18.276  0.00  0.00    +0.000 A 
ATOM     26  C   UNL     1       5.961   7.241  17.384  0.00  0.00    +0.000 A 
ATOM     27  C   UNL     1       7.332   7.502  17.404  0.00  0.00    +0.000 A 
ATOM     28  C   UNL     1       8.148   6.863  18.331  0.00  0.00    +0.000 A 
ATOM     29  C   UNL     1       7.588   5.985  19.256  0.00  0.00    +0.000 A 
ATOM     30  C   UNL     1       6.215   5.715  19.233  0.00  0.00    +0.000 A 
ENDBRANCH  18  25
ENDBRANCH   8  18
TORSDOF 6
ENDMDL
MODEL 3
REMARK VINA RESULT:      -7.9      0.959      1.121
REMARK  Name = 
REMARK  6 active torsions:
REMARK  status: ('A' for Active; 'I' for Inactive)
REMARK    1  A    between atoms: C_4  and  C_5
REMARK    2  A    between atoms: C_5  and  N_6
REMARK    3  A    between atoms: N_6  and  C_7
REMARK    4  A    between atoms: C_14  and  C_15
REMARK    5  A    between atoms: C_15  and  C_16
REMARK    6  A    between atoms: C_15  and  C_22
REMARK                            x       y       z     vdW  Elec       q    Type
REMARK                         _______ _______ _______ _____ _____    ______ ____
ROOT
ATOM      1  C   UNL     1       3.579   3.204  18.863  0.00  0.00    +0.000 C 
ATOM      2  C   UNL     1       2.426   2.242  19.268  0.00  0.00    +0.000 C 
ATOM      3  C   UNL     1       2.106   2.449  20.759  0.00  0.00    +0.000 C 
ATOM      4  C   UNL     1       1.575   3.871  20.977  0.00  0.00    +0.000 C 
ATOM      5  N   UNL     1       1.733   4.694  19.757  0.00  0.00    +0.000 NA
ATOM      6  C   UNL     1       0.879   4.118  18.697  0.00  0.00    +0.000 C 
ATOM      7  C   UNL     1       1.164   2.624  18.477  0.00  0.00    +0.000 C 
ATOM      8  C   UNL     1       3.186   4.666  19.344  0.00  0.00    +0.000 C 
ENDROOT
BRANCH   1   9
ATOM      9  N   UNL     1       3.890   3.114  17.440  0.00  0.00    +0.000 NA
ATOM     10  H   UNL     1       3.207   2.567  16.927  0.00  0.00    +0.000 HD
BRANCH   9  11
ATOM     11  C   UNL     1       5.241   2.707  17.099  0.00  0.00    +0.000 C 
BRANCH  11  15
ATOM     12  C   UNL     1       6.720   4.968  13.739  0.00  0.00    +0.000 A 
ATOM     13  C   UNL     1       5.434   4.432  13.706  0.00  0.00    +0.000 A 
ATOM     14  C   UNL     1       4.945   3.726  14.806  0.00  0.00    +0.000 A 
ATOM     15  C   UNL     1       5.736   3.549  15.947  0.00  0.00    +0.000 A 
ATOM     16  C   UNL     1       7.030   4.091  15.968  0.00  0.00    +0.000 A 
ATOM     17  C   UNL     1       7.517   4.800  14.870  0.00  0.00    +0.000 A 
ENDBRANCH  11  15
ENDBRANCH   9  11
ENDBRANCH   1   9
BRANCH   8  18
ATOM     18  C   UNL     1       3.568   5.876  18.389  0.00  0.00    +0.000 C 
BRANCH  18  19
ATOM     19  C   UNL     1       2.762   7.141  18.729  0.00  0.00    +0.000 A 
ATOM     20  C   UNL     1       2.280   7.395  20.024  0.00  0.00    +0.000 A 
ATOM     21  C   UNL     1       1.460   8.499  20.281  0.00  0.00    +0.000 A 
ATOM     22  C   UNL     1       1.112   9.367  19.249  0.00  0.00    +0.000 A 
ATOM     23  C   UNL     1       1.603   9.146  17.965  0.00  0.00    +0.000 A 
ATOM     24  C   UNL     1       2.426   8.045  17.707  0.00  0.00    +0.000 A 
ENDBRANCH  18  19
BRANCH  18  25
ATOM     25  C   UNL     1       5.070   6.149  18.241  0.00  0.00    +0.000 A 
ATOM     26  C   UNL     1       5.961   5.560  19.160  0.00  0.00    +0.000 A 
ATOM     27  C   UNL     1       7.309   5.920  19.190  0.00  0.00    +0.000 A 
ATOM     28  C   UNL     1       7.798   6.855  18.284  0.00  0.00    +0.000 A 
ATOM     29  C   UNL     1       6.945   7.409  17.332  0.00  0.00    +0.000 A 
ATOM     30  C   UNL     1       5.591   7.056  17.307  0.00  0.00    +0.000 A 
ENDBRANCH  18  25
ENDBRANCH   8  18
TORSDOF 6
ENDMDL
MODEL 4
REMARK VINA RESULT:      -7.8      1.188      1.842
REMARK  Name = 
REMARK  6 active torsions:
REMARK  status: ('A' for Active; 'I' for Inactive)
REMARK    1  A    between atoms: C_4  and  C_5
REMARK    2  A    between atoms: C_5  and  N_6
REMARK    3  A    between atoms: N_6  and  C_7
REMARK    4  A    between atoms: C_14  and  C_15
REMARK    5  A    between atoms: C_15  and  C_16
REMARK    6  A    between atoms: C_15  and  C_22
REMARK                            x       y       z     vdW  Elec       q    Type
REMARK                         _______ _______ _______ _____ _____    ______ ____
ROOT
ATOM      1  C   UNL     1       3.525   3.140  19.009  0.00  0.00    +0.000 C 
ATOM      2  C   UNL     1       2.371   2.188  19.435  0.00  0.00    +0.000 C 
ATOM      3  C   UNL     1       2.087   2.389  20.934  0.00  0.00    +0.000 C 
ATOM      4  C   UNL     1       1.576   3.816  21.172  0.00  0.00    +0.000 C 
ATOM      5  N   UNL     1       1.715   4.644  19.953  0.00  0.00    +0.000 NA
ATOM      6  C   UNL     1       0.831   4.084  18.909  0.00  0.00    +0.000 C 
ATOM      7  C   UNL     1       1.096   2.588  18.674  0.00  0.00    +0.000 C 
ATOM      8  C   UNL     1       3.158   4.603  19.508  0.00  0.00    +0.000 C 
ENDROOT
BRANCH   1   9
ATOM      9  N   UNL     1       3.803   3.056  17.579  0.00  0.00    +0.000 NA
ATOM     10  H   UNL     1       3.134   2.473  17.087  0.00  0.00    +0.000 HD
BRANCH   9  11
ATOM     11  C   UNL     1       5.163   2.712  17.206  0.00  0.00    +0.000 C 
BRANCH  11  15
ATOM     12  C   UNL     1       6.570   5.378  14.122  0.00  0.00    +0.000 A 
ATOM     13  C   UNL     1       5.202   5.175  14.297  0.00  0.00    +0.000 A 
ATOM     14  C   UNL     1       4.746   4.336  15.315  0.00  0.00    +0.000 A 
ATOM     15  C   UNL     1       5.653   3.692  16.165  0.00  0.00    +0.000 A 
ATOM     16  C   UNL     1       7.028   3.901  15.978  0.00  0.00    +0.000 A 
ATOM     17  C   UNL     1       7.482   4.743  14.963  0.00  0.00    +0.000 A 
ENDBRANCH  11  15
ENDBRANCH   9  11
ENDBRANCH   1   9
BRANCH   8  18
ATOM     18  C   UNL     1       3.531   5.815  18.552  0.00  0.00    +0.000 C 
BRANCH  18  19
ATOM     19  C   UNL     1       2.614   7.026  18.789  0.00  0.00    +0.000 A 
ATOM     20  C   UNL     1       2.204   7.871  17.744  0.00  0.00    +0.000 A 
ATOM     21  C   UNL     1       1.459   9.025  18.002  0.00  0.00    +0.000 A 
ATOM     22  C   UNL     1       1.108   9.353  19.310  0.00  0.00    +0.000 A 
ATOM     23  C   UNL     1       1.483   8.514  20.357  0.00  0.00    +0.000 A 
ATOM     24  C   UNL     1       2.224   7.357  20.098  0.00  0.00    +0.000 A 
ENDBRANCH  18  19
BRANCH  18  25
ATOM     25  C   UNL     1       5.018   6.193  18.516  0.00  0.00    +0.000 A 
ATOM     26  C   UNL     1       5.457   7.126  17.556  0.00  0.00    +0.000 A 
ATOM     27  C   UNL     1       6.816   7.366  17.353  0.00  0.00    +0.000 A 
ATOM     28  C   UNL     1       7.762   6.698  18.124  0.00  0.00    +0.000 A 
ATOM     29  C   UNL     1       7.346   5.811  19.114  0.00  0.00    +0.000 A 
ATOM     30  C   UNL     1       5.983   5.563  19.313  0.00  0.00    +0.000 A 
ENDBRANCH  18  25
ENDBRANCH   8  18
TORSDOF 6
ENDMDL
MODEL 5
REMARK VINA RESULT:      -7.6      8.422     12.063
REMARK  Name = 
REMARK  6 active torsions:
REMARK  status: ('A' for Active; 'I' for Inactive)
REMARK    1  A    between atoms: C_4  and  C_5
REMARK    2  A    between atoms: C_5  and  N_6
REMARK    3  A    between atoms: N_6  and  C_7
REMARK    4  A    between atoms: C_14  and  C_15
REMARK    5  A    between atoms: C_15  and  C_16
REMARK    6  A    between atoms: C_15  and  C_22
REMARK                            x       y       z     vdW  Elec       q    Type
REMARK                         _______ _______ _______ _____ _____    ______ ____
ROOT
ATOM      1  C   UNL     1      -4.911  11.500  19.128  0.00  0.00    +0.000 C 
ATOM      2  C   UNL     1      -6.164  10.891  18.435  0.00  0.00    +0.000 C 
ATOM      3  C   UNL     1      -7.023  10.183  19.497  0.00  0.00    +0.000 C 
ATOM      4  C   UNL     1      -7.549  11.214  20.504  0.00  0.00    +0.000 C 
ATOM      5  N   UNL     1      -6.908  12.532  20.302  0.00  0.00    +0.000 NA
ATOM      6  C   UNL     1      -7.308  13.045  18.975  0.00  0.00    +0.000 C 
ATOM      7  C   UNL     1      -7.012  12.035  17.855  0.00  0.00    +0.000 C 
ATOM      8  C   UNL     1      -5.409  12.352  20.373  0.00  0.00    +0.000 C 
ENDROOT
BRANCH   1   9
ATOM      9  N   UNL     1      -4.082  12.251  18.192  0.00  0.00    +0.000 NA
ATOM     10  H   UNL     1      -4.631  12.813  17.550  0.00  0.00    +0.000 HD
BRANCH   9  11
ATOM     11  C   UNL     1      -3.066  11.497  17.480  0.00  0.00    +0.000 C 
BRANCH  11  15
ATOM     12  C   UNL     1       0.698  11.556  19.582  0.00  0.00    +0.000 A 
ATOM     13  C   UNL     1       0.268  12.687  18.890  0.00  0.00    +0.000 A 
ATOM     14  C   UNL     1      -0.964  12.678  18.236  0.00  0.00    +0.000 A 
ATOM     15  C   UNL     1      -1.777  11.538  18.266  0.00  0.00    +0.000 A 
ATOM     16  C   UNL     1      -1.333  10.404  18.963  0.00  0.00    +0.000 A 
ATOM     17  C   UNL     1      -0.103  10.416  19.621  0.00  0.00    +0.000 A 
ENDBRANCH  11  15
ENDBRANCH   9  11
ENDBRANCH   1   9
BRANCH   8  18
ATOM     18  C   UNL     1      -4.649  13.713  20.676  0.00  0.00    +0.000 C 
BRANCH  18  19
ATOM     19  C   UNL     1      -5.499  14.654  21.546  0.00  0.00    +0.000 A 
ATOM     20  C   UNL     1      -6.023  15.860  21.052  0.00  0.00    +0.000 A 
ATOM     21  C   UNL     1      -6.702  16.748  21.893  0.00  0.00    +0.000 A 
ATOM     22  C   UNL     1      -6.869  16.443  23.242  0.00  0.00    +0.000 A 
ATOM     23  C   UNL     1      -6.379  15.240  23.744  0.00  0.00    +0.000 A 
ATOM     24  C   UNL     1      -5.705  14.350  22.903  0.00  0.00    +0.000 A 
ENDBRANCH  18  19
BRANCH  18  25
ATOM     25  C   UNL     1      -3.211  13.565  21.191  0.00  0.00    +0.000 A 
ATOM     26  C   UNL     1      -2.848  12.375  21.853  0.00  0.00    +0.000 A 
ATOM     27  C   UNL     1      -1.618  12.259  22.503  0.00  0.00    +0.000 A 
ATOM     28  C   UNL     1      -0.718  13.319  22.482  0.00  0.00    +0.000 A 
ATOM     29  C   UNL     1      -1.038  14.484  21.788  0.00  0.00    +0.000 A 
ATOM     30  C   UNL     1      -2.274  14.606  21.142  0.00  0.00    +0.000 A 
ENDBRANCH  18  25
ENDBRANCH   8  18
TORSDOF 6
ENDMDL
MODEL 6
REMARK VINA RESULT:      -7.4      8.446     12.029
REMARK  Name = 
REMARK  6 active torsions:
REMARK  status: ('A' for Active; 'I' for Inactive)
REMARK    1  A    between atoms: C_4  and  C_5
REMARK    2  A    between atoms: C_5  and  N_6
REMARK    3  A    between atoms: N_6  and  C_7
REMARK    4  A    between atoms: C_14  and  C_15
REMARK    5  A    between atoms: C_15  and  C_16
REMARK    6  A    between atoms: C_15  and  C_22
REMARK                            x       y       z     vdW  Elec       q    Type
REMARK                         _______ _______ _______ _____ _____    ______ ____
ROOT
ATOM      1  C   UNL     1      -4.918  11.501  19.155  0.00  0.00    +0.000 C 
ATOM      2  C   UNL     1      -6.161  10.908  18.431  0.00  0.00    +0.000 C 
ATOM      3  C   UNL     1      -7.038  10.181  19.466  0.00  0.00    +0.000 C 
ATOM      4  C   UNL     1      -7.577  11.194  20.484  0.00  0.00    +0.000 C 
ATOM      5  N   UNL     1      -6.930  12.514  20.319  0.00  0.00    +0.000 NA
ATOM      6  C   UNL     1      -7.309  13.054  18.996  0.00  0.00    +0.000 C 
ATOM      7  C   UNL     1      -6.997  12.066  17.861  0.00  0.00    +0.000 C 
ATOM      8  C   UNL     1      -5.432  12.329  20.409  0.00  0.00    +0.000 C 
ENDROOT
BRANCH   1   9
ATOM      9  N   UNL     1      -4.072  12.268  18.247  0.00  0.00    +0.000 NA
ATOM     10  H   UNL     1      -4.606  12.900  17.659  0.00  0.00    +0.000 HD
BRANCH   9  11
ATOM     11  C   UNL     1      -3.117  11.511  17.459  0.00  0.00    +0.000 C 
BRANCH  11  15
ATOM     12  C   UNL     1       0.596  11.513  19.652  0.00  0.00    +0.000 A 
ATOM     13  C   UNL     1      -0.196  10.367  19.624  0.00  0.00    +0.000 A 
ATOM     14  C   UNL     1      -1.382  10.357  18.889  0.00  0.00    +0.000 A 
ATOM     15  C   UNL     1      -1.788  11.492  18.177  0.00  0.00    +0.000 A 
ATOM     16  C   UNL     1      -0.984  12.641  18.215  0.00  0.00    +0.000 A 
ATOM     17  C   UNL     1       0.204  12.649  18.946  0.00  0.00    +0.000 A 
ENDBRANCH  11  15
ENDBRANCH   9  11
ENDBRANCH   1   9
BRANCH   8  18
ATOM     18  C   UNL     1      -4.675  13.682  20.751  0.00  0.00    +0.000 C 
BRANCH  18  19
ATOM     19  C   UNL     1      -5.525  14.596  21.648  0.00  0.00    +0.000 A 
ATOM     20  C   UNL     1      -5.860  14.248  22.968  0.00  0.00    +0.000 A 
ATOM     21  C   UNL     1      -6.723  15.047  23.725  0.00  0.00    +0.000 A 
ATOM     22  C   UNL     1      -7.263  16.208  23.176  0.00  0.00    +0.000 A 
ATOM     23  C   UNL     1      -6.921  16.583  21.878  0.00  0.00    +0.000 A 
ATOM     24  C   UNL     1      -6.055  15.787  21.123  0.00  0.00    +0.000 A 
ENDBRANCH  18  19
BRANCH  18  25
ATOM     25  C   UNL     1      -3.236  13.520  21.261  0.00  0.00    +0.000 A 
ATOM     26  C   UNL     1      -2.888  12.339  21.946  0.00  0.00    +0.000 A 
ATOM     27  C   UNL     1      -1.657  12.217  22.591  0.00  0.00    +0.000 A 
ATOM     28  C   UNL     1      -0.740  13.261  22.542  0.00  0.00    +0.000 A 
ATOM     29  C   UNL     1      -1.044  14.416  21.825  0.00  0.00    +0.000 A 
ATOM     30  C   UNL     1      -2.282  14.544  21.184  0.00  0.00    +0.000 A 
ENDBRANCH  18  25
ENDBRANCH   8  18
TORSDOF 6
ENDMDL
MODEL 7
REMARK VINA RESULT:      -7.4      1.254      4.472
REMARK  Name = 
REMARK  6 active torsions:
REMARK  status: ('A' for Active; 'I' for Inactive)
REMARK    1  A    between atoms: C_4  and  C_5
REMARK    2  A    between atoms: C_5  and  N_6
REMARK    3  A    between atoms: N_6  and  C_7
REMARK    4  A    between atoms: C_14  and  C_15
REMARK    5  A    between atoms: C_15  and  C_16
REMARK    6  A    between atoms: C_15  and  C_22
REMARK                            x       y       z     vdW  Elec       q    Type
REMARK                         _______ _______ _______ _____ _____    ______ ____
ROOT
ATOM      1  C   UNL     1       6.064   6.688  17.106  0.00  0.00    +0.000 C 
ATOM      2  C   UNL     1       7.427   5.968  17.313  0.00  0.00    +0.000 C 
ATOM      3  C   UNL     1       7.924   6.247  18.743  0.00  0.00    +0.000 C 
ATOM      4  C   UNL     1       6.953   5.628  19.755  0.00  0.00    +0.000 C 
ATOM      5  N   UNL     1       5.723   5.145  19.089  0.00  0.00    +0.000 NA
ATOM      6  C   UNL     1       6.092   4.041  18.178  0.00  0.00    +0.000 C 
ATOM      7  C   UNL     1       7.205   4.450  17.200  0.00  0.00    +0.000 C 
ATOM      8  C   UNL     1       5.114   6.293  18.317  0.00  0.00    +0.000 C 
ENDROOT
BRANCH   1   9
ATOM      9  N   UNL     1       5.494   6.409  15.792  0.00  0.00    +0.000 NA
ATOM     10  H   UNL     1       4.692   6.996  15.584  0.00  0.00    +0.000 HD
BRANCH   9  11
ATOM     11  C   UNL     1       5.207   5.017  15.495  0.00  0.00    +0.000 C 
BRANCH  11  15
ATOM     12  C   UNL     1       7.067   3.864  11.779  0.00  0.00    +0.000 A 
ATOM     13  C   UNL     1       5.859   3.285  12.164  0.00  0.00    +0.000 A 
ATOM     14  C   UNL     1       5.242   3.681  13.351  0.00  0.00    +0.000 A 
ATOM     15  C   UNL     1       5.827   4.657  14.166  0.00  0.00    +0.000 A 
ATOM     16  C   UNL     1       7.045   5.232  13.771  0.00  0.00    +0.000 A 
ATOM     17  C   UNL     1       7.659   4.839  12.581  0.00  0.00    +0.000 A 
ENDBRANCH  11  15
ENDBRANCH   9  11
ENDBRANCH   1   9
BRANCH   8  18
ATOM     18  C   UNL     1       3.578   6.056  17.992  0.00  0.00    +0.000 C 
BRANCH  18  19
ATOM     19  C   UNL     1       3.106   4.672  18.466  0.00  0.00    +0.000 A 
ATOM     20  C   UNL     1       2.728   3.662  17.566  0.00  0.00    +0.000 A 
ATOM     21  C   UNL     1       2.201   2.450  18.025  0.00  0.00    +0.000 A 
ATOM     22  C   UNL     1       2.046   2.228  19.392  0.00  0.00    +0.000 A 
ATOM     23  C   UNL     1       2.439   3.208  20.300  0.00  0.00    +0.000 A 
ATOM     24  C   UNL     1       2.970   4.418  19.842  0.00  0.00    +0.000 A 
ENDBRANCH  18  19
BRANCH  18  25
ATOM     25  C   UNL     1       2.633   7.186  18.420  0.00  0.00    +0.000 A 
ATOM     26  C   UNL     1       2.316   8.195  17.488  0.00  0.00    +0.000 A 
ATOM     27  C   UNL     1       1.618   9.339  17.875  0.00  0.00    +0.000 A 
ATOM     28  C   UNL     1       1.200   9.486  19.194  0.00  0.00    +0.000 A 
ATOM     29  C   UNL     1       1.457   8.476  20.117  0.00  0.00    +0.000 A 
ATOM     30  C   UNL     1       2.164   7.331  19.734  0.00  0.00    +0.000 A 
ENDBRANCH  18  25
ENDBRANCH   8  18
TORSDOF 6
ENDMDL
MODEL 8
REMARK VINA RESULT:      -7.2      9.145     12.456
REMARK  Name = 
REMARK  6 active torsions:
REMARK  status: ('A' for Active; 'I' for Inactive)
REMARK    1  A    between atoms: C_4  and  C_5
REMARK    2  A    between atoms: C_5  and  N_6
REMARK    3  A    between atoms: N_6  and  C_7
REMARK    4  A    between atoms: C_14  and  C_15
REMARK    5  A    between atoms: C_15  and  C_16
REMARK    6  A    between atoms: C_15  and  C_22
REMARK                            x       y       z     vdW  Elec       q    Type
REMARK                         _______ _______ _______ _____ _____    ______ ____
ROOT
ATOM      1  C   UNL     1       9.597  12.513  19.942  0.00  0.00    +0.000 C 
ATOM      2  C   UNL     1      10.615  11.461  19.414  0.00  0.00    +0.000 C 
ATOM      3  C   UNL     1      10.539  11.425  17.877  0.00  0.00    +0.000 C 
ATOM      4  C   UNL     1      10.986  12.778  17.309  0.00  0.00    +0.000 C 
ATOM      5  N   UNL     1      11.141  13.784  18.383  0.00  0.00    +0.000 NA
ATOM      6  C   UNL     1      12.243  13.351  19.268  0.00  0.00    +0.000 C 
ATOM      7  C   UNL     1      12.035  11.919  19.787  0.00  0.00    +0.000 C 
ATOM      8  C   UNL     1       9.842  13.869  19.152  0.00  0.00    +0.000 C 
ENDROOT
BRANCH   1   9
ATOM      9  N   UNL     1       9.663  12.655  21.393  0.00  0.00    +0.000 NA
ATOM     10  H   UNL     1      10.590  12.468  21.760  0.00  0.00    +0.000 HD
BRANCH   9  11
ATOM     11  C   UNL     1       8.652  11.947  22.157  0.00  0.00    +0.000 C 
BRANCH  11  15
ATOM     12  C   UNL     1       6.417  14.669  24.645  0.00  0.00    +0.000 A 
ATOM     13  C   UNL     1       7.810  14.696  24.658  0.00  0.00    +0.000 A 
ATOM     14  C   UNL     1       8.533  13.837  23.830  0.00  0.00    +0.000 A 
ATOM     15  C   UNL     1       7.870  12.941  22.983  0.00  0.00    +0.000 A 
ATOM     16  C   UNL     1       6.467  12.919  22.980  0.00  0.00    +0.000 A 
ATOM     17  C   UNL     1       5.745  13.782  23.805  0.00  0.00    +0.000 A 
ENDBRANCH  11  15
ENDBRANCH   9  11
ENDBRANCH   1   9
BRANCH   8  18
ATOM     18  C   UNL     1       9.711  15.224  19.969  0.00  0.00    +0.000 C 
BRANCH  18  19
ATOM     19  C   UNL     1      10.362  16.401  19.223  0.00  0.00    +0.000 A 
ATOM     20  C   UNL     1       9.832  16.914  18.027  0.00  0.00    +0.000 A 
ATOM     21  C   UNL     1      10.504  17.913  17.315  0.00  0.00    +0.000 A 
ATOM     22  C   UNL     1      11.713  18.416  17.787  0.00  0.00    +0.000 A 
ATOM     23  C   UNL     1      12.241  17.938  18.984  0.00  0.00    +0.000 A 
ATOM     24  C   UNL     1      11.568  16.943  19.700  0.00  0.00    +0.000 A 
ENDBRANCH  18  19
BRANCH  18  25
ATOM     25  C   UNL     1       8.301  15.551  20.479  0.00  0.00    +0.000 A 
ATOM     26  C   UNL     1       7.197  14.918  19.873  0.00  0.00    +0.000 A 
ATOM     27  C   UNL     1       5.891  15.313  20.165  0.00  0.00    +0.000 A 
ATOM     28  C   UNL     1       5.662  16.329  21.087  0.00  0.00    +0.000 A 
ATOM     29  C   UNL     1       6.738  16.930  21.736  0.00  0.00    +0.000 A 
ATOM     30  C   UNL     1       8.049  16.542  21.438  0.00  0.00    +0.000 A 
ENDBRANCH  18  25
ENDBRANCH   8  18
TORSDOF 6
ENDMDL
MODEL 9
REMARK VINA RESULT:      -7.2      1.296      4.251
REMARK  Name = 
REMARK  6 active torsions:
REMARK  status: ('A' for Active; 'I' for Inactive)
REMARK    1  A    between atoms: C_4  and  C_5
REMARK    2  A    between atoms: C_5  and  N_6
REMARK    3  A    between atoms: N_6  and  C_7
REMARK    4  A    between atoms: C_14  and  C_15
REMARK    5  A    between atoms: C_15  and  C_16
REMARK    6  A    between atoms: C_15  and  C_22
REMARK                            x       y       z     vdW  Elec       q    Type
REMARK                         _______ _______ _______ _____ _____    ______ ____
ROOT
ATOM      1  C   UNL     1       5.836   6.494  17.033  0.00  0.00    +0.000 C 
ATOM      2  C   UNL     1       7.107   5.624  17.250  0.00  0.00    +0.000 C 
ATOM      3  C   UNL     1       7.729   5.983  18.612  0.00  0.00    +0.000 C 
ATOM      4  C   UNL     1       6.755   5.607  19.735  0.00  0.00    +0.000 C 
ATOM      5  N   UNL     1       5.432   5.226  19.191  0.00  0.00    +0.000 NA
ATOM      6  C   UNL     1       5.598   3.994  18.392  0.00  0.00    +0.000 C 
ATOM      7  C   UNL     1       6.687   4.146  17.319  0.00  0.00    +0.000 C 
ATOM      8  C   UNL     1       4.925   6.358  18.328  0.00  0.00    +0.000 C 
ENDROOT
BRANCH   1   9
ATOM      9  N   UNL     1       5.150   6.159  15.790  0.00  0.00    +0.000 NA
ATOM     10  H   UNL     1       4.249   6.617  15.708  0.00  0.00    +0.000 HD
BRANCH   9  11
ATOM     11  C   UNL     1       5.043   4.746  15.473  0.00  0.00    +0.000 C 
BRANCH  11  15
ATOM     12  C   UNL     1       7.035   3.869  11.751  0.00  0.00    +0.000 A 
ATOM     13  C   UNL     1       5.810   3.273  12.043  0.00  0.00    +0.000 A 
ATOM     14  C   UNL     1       5.151   3.581  13.234  0.00  0.00    +0.000 A 
ATOM     15  C   UNL     1       5.711   4.485  14.144  0.00  0.00    +0.000 A 
ATOM     16  C   UNL     1       6.947   5.077  13.841  0.00  0.00    +0.000 A 
ATOM     17  C   UNL     1       7.602   4.772  12.648  0.00  0.00    +0.000 A 
ENDBRANCH  11  15
ENDBRANCH   9  11
ENDBRANCH   1   9
BRANCH   8  18
ATOM     18  C   UNL     1       3.354   6.295  18.111  0.00  0.00    +0.000 C 
BRANCH  18  19
ATOM     19  C   UNL     1       2.750   5.012  18.706  0.00  0.00    +0.000 A 
ATOM     20  C   UNL     1       2.172   4.016  17.902  0.00  0.00    +0.000 A 
ATOM     21  C   UNL     1       1.535   2.910  18.475  0.00  0.00    +0.000 A 
ATOM     22  C   UNL     1       1.469   2.782  19.861  0.00  0.00    +0.000 A 
ATOM     23  C   UNL     1       2.059   3.747  20.673  0.00  0.00    +0.000 A 
ATOM     24  C   UNL     1       2.700   4.850  20.101  0.00  0.00    +0.000 A 
ENDBRANCH  18  19
BRANCH  18  25
ATOM     25  C   UNL     1       2.582   7.559  18.516  0.00  0.00    +0.000 A 
ATOM     26  C   UNL     1       2.082   7.656  19.830  0.00  0.00    +0.000 A 
ATOM     27  C   UNL     1       1.219   8.688  20.197  0.00  0.00    +0.000 A 
ATOM     28  C   UNL     1       0.859   9.658  19.267  0.00  0.00    +0.000 A 
ATOM     29  C   UNL     1       1.386   9.609  17.979  0.00  0.00    +0.000 A 
ATOM     30  C   UNL     1       2.245   8.570  17.605  0.00  0.00    +0.000 A 
ENDBRANCH  18  25
ENDBRANCH   8  18
TORSDOF 6
ENDMDL
