MODEL 1
REMARK VINA RESULT:      -7.4      0.000      0.000
REMARK  Name = 
REMARK  13 active torsions:
REMARK  status: ('A' for Active; 'I' for Inactive)
REMARK    1  A    between atoms: N_1  and  CA_2
REMARK    2  A    between atoms: CA_2  and  CB_3
REMARK    3  A    between atoms: CA_2  and  C_11
REMARK    4  A    between atoms: CB_3  and  CG_4
REMARK    5  A    between atoms: CZ_7  and  OH_8
REMARK    6  A    between atoms: N_13  and  C_14
REMARK    7  A    between atoms: C_14  and  C_15
REMARK    8  A    between atoms: C_14  and  C_18
REMARK    9  A    between atoms: C_15  and  O_17
REMARK   10  A    between atoms: C_19  and  O_20
REMARK   11  A    between atoms: C_21  and  O_22
REMARK   12  A    between atoms: C_26  and  O_27
REMARK   13  A    between atoms: N_28  and  O_29
REMARK                            x       y       z     vdW  Elec       q    Type
REMARK                         _______ _______ _______ _____ _____    ______ ____
ROOT
ATOM      1  C   UNK A   2       6.679   5.193  16.456  0.00  0.00    +0.000 C 
ENDROOT
BRANCH   1   2
ATOM      2  C   UNK A   2       5.172   4.994  16.930  0.00  0.00    +0.000 C 
ATOM      3  C   UNK A   2       5.166   3.800  17.927  0.00  0.00    +0.000 C 
ATOM      4  C   UNK A   2       3.795   3.607  18.645  0.00  0.00    +0.000 C 
ATOM      5  C   UNK A   2       3.765   4.363  19.995  0.00  0.00    +0.000 C 
ATOM      6  O   UNK A   2       3.361   5.741  19.659  0.00  0.00    +0.000 OA
ATOM      7  C   UNK A   2       3.175   5.766  18.211  0.00  0.00    +0.000 C 
ATOM      8  C   UNK A   2       2.621   4.350  18.041  0.00  0.00    +0.000 C 
ATOM      9  N   UNK A   2       4.514   6.118  17.645  0.00  0.00    +0.000 NA
BRANCH   3  10
ATOM     10  O   UNK A   2       6.222   3.959  18.902  0.00  0.00    +0.000 OA
ATOM     11  H   UNK A   2       6.004   4.743  19.447  0.00  0.00    +0.000 HD
ENDBRANCH   3  10
BRANCH   4  12
ATOM     12  O   UNK A   2       3.450   2.223  18.600  0.00  0.00    +0.000 OA
ATOM     13  H   UNK A   2       3.079   2.048  19.489  0.00  0.00    +0.000 HD
ENDBRANCH   4  12
BRANCH   8  14
ATOM     14  O   UNK A   2       2.170   3.824  16.813  0.00  0.00    +0.000 OA
ATOM     15  H   UNK A   2       1.964   2.884  17.018  0.00  0.00    +0.000 HD
ENDBRANCH   8  14
BRANCH   9  16
ATOM     16  O   UNK A   2       4.314   7.197  16.699  0.00  0.00    +0.000 OA
ATOM     17  H   UNK A   2       4.703   7.946  17.193  0.00  0.00    +0.000 HD
ENDBRANCH   9  16
ENDBRANCH   1   2
BRANCH   1  20
ATOM     18  C   TYR A   1       7.763   7.028  17.750  0.00  0.00    +0.000 C 
ATOM     19  O   TYR A   1       7.986   6.257  18.689  0.00  0.00    +0.000 OA
ATOM     20  N   UNK A   2       7.226   6.540  16.541  0.00  0.00    +0.000 N 
ATOM     21  H   UNK A   2       7.000   7.242  15.842  0.00  0.00    +0.000 HD
BRANCH  18  22
ATOM     22  CA  TYR A   1       8.143   8.522  17.736  0.00  0.00    +0.000 C 
BRANCH  22  23
ATOM     23  N   TYR A   1       6.963   9.327  17.316  0.00  0.00    +0.000 NA
ATOM     24  H1  TYR A   1       6.159   8.695  17.275  0.00  0.00    +0.000 HD
ATOM     25  H2  TYR A   1       7.107   9.619  16.353  0.00  0.00    +0.000 HD
ENDBRANCH  22  23
BRANCH  22  26
ATOM     26  CB  TYR A   1       8.686   8.957  19.124  0.00  0.00    +0.000 C 
BRANCH  26  27
ATOM     27  CG  TYR A   1       9.429  10.283  19.140  0.00  0.00    +0.000 A 
ATOM     28  CD1 TYR A   1       9.860  10.874  17.936  0.00  0.00    +0.000 A 
ATOM     29  CE1 TYR A   1      10.519  12.108  17.941  0.00  0.00    +0.000 A 
ATOM     30  CZ  TYR A   1      10.749  12.750  19.153  0.00  0.00    +0.000 A 
ATOM     31  CE2 TYR A   1      10.323  12.186  20.348  0.00  0.00    +0.000 A 
ATOM     32  CD2 TYR A   1       9.673  10.956  20.341  0.00  0.00    +0.000 A 
BRANCH  30  33
ATOM     33  OH  TYR A   1      11.367  13.967  19.203  0.00  0.00    +0.000 OA
ATOM     34  HH  TYR A   1      10.792  14.592  19.675  0.00  0.00    +0.000 HD
ENDBRANCH  30  33
ENDBRANCH  26  27
ENDBRANCH  22  26
ENDBRANCH  18  22
ENDBRANCH   1  20
BRANCH   1  35
ATOM     35  C   UNK A   2       6.846   4.620  15.035  0.00  0.00    +0.000 C 
ATOM     36  O   UNK A   2       6.308   3.599  14.625  0.00  0.00    +0.000 OA
BRANCH  35  37
ATOM     37  O   UNK A   2       7.732   5.297  14.262  0.00  0.00    +0.000 OA
ATOM     38  H   UNK A   2       8.065   6.119  14.697  0.00  0.00    +0.000 HD
ENDBRANCH  35  37
ENDBRANCH   1  35
TORSDOF 13
ENDMDL
MODEL 2
REMARK VINA RESULT:      -7.3      4.112      6.543
REMARK  Name = 
REMARK  13 active torsions:
REMARK  status: ('A' for Active; 'I' for Inactive)
REMARK    1  A    between atoms: N_1  and  CA_2
REMARK    2  A    between atoms: CA_2  and  CB_3
REMARK    3  A    between atoms: CA_2  and  C_11
REMARK    4  A    between atoms: CB_3  and  CG_4
REMARK    5  A    between atoms: CZ_7  and  OH_8
REMARK    6  A    between atoms: N_13  and  C_14
REMARK    7  A    between atoms: C_14  and  C_15
REMARK    8  A    between atoms: C_14  and  C_18
REMARK    9  A    between atoms: C_15  and  O_17
REMARK   10  A    between atoms: C_19  and  O_20
REMARK   11  A    between atoms: C_21  and  O_22
REMARK   12  A    between atoms: C_26  and  O_27
REMARK   13  A    between atoms: N_28  and  O_29
REMARK                            x       y       z     vdW  Elec       q    Type
REMARK                         _______ _______ _______ _____ _____    ______ ____
ROOT
ATOM      1  C   UNK A   2       4.034   2.783  18.666  0.00  0.00    +0.000 C 
ENDROOT
BRANCH   1   2
ATOM      2  C   UNK A   2       5.228   3.686  18.124  0.00  0.00    +0.000 C 
ATOM      3  C   UNK A   2       5.122   3.691  16.571  0.00  0.00    +0.000 C 
ATOM      4  C   UNK A   2       6.097   4.701  15.892  0.00  0.00    +0.000 C 
ATOM      5  C   UNK A   2       5.405   6.065  15.658  0.00  0.00    +0.000 C 
ATOM      6  O   UNK A   2       5.567   6.805  16.923  0.00  0.00    +0.000 OA
ATOM      7  C   UNK A   2       6.302   5.917  17.819  0.00  0.00    +0.000 C 
ATOM      8  C   UNK A   2       7.199   5.251  16.773  0.00  0.00    +0.000 C 
ATOM      9  N   UNK A   2       5.257   5.115  18.528  0.00  0.00    +0.000 NA
BRANCH   3  10
ATOM     10  O   UNK A   2       3.760   3.960  16.165  0.00  0.00    +0.000 OA
ATOM     11  H   UNK A   2       3.283   4.307  16.947  0.00  0.00    +0.000 HD
ENDBRANCH   3  10
BRANCH   4  12
ATOM     12  O   UNK A   2       6.751   4.042  14.809  0.00  0.00    +0.000 OA
ATOM     13  H   UNK A   2       7.096   3.219  15.214  0.00  0.00    +0.000 HD
ENDBRANCH   4  12
BRANCH   8  14
ATOM     14  O   UNK A   2       8.213   4.322  17.085  0.00  0.00    +0.000 OA
ATOM     15  H   UNK A   2       9.024   4.715  16.691  0.00  0.00    +0.000 HD
ENDBRANCH   8  14
BRANCH   9  16
ATOM     16  O   UNK A   2       5.554   5.175  19.945  0.00  0.00    +0.000 OA
ATOM     17  H   UNK A   2       4.837   4.613  20.304  0.00  0.00    +0.000 HD
ENDBRANCH   9  16
ENDBRANCH   1   2
BRANCH   1  20
ATOM     18  C   TYR A   1       1.892   4.007  19.027  0.00  0.00    +0.000 C 
ATOM     19  O   TYR A   1       1.551   3.788  17.861  0.00  0.00    +0.000 OA
ATOM     20  N   UNK A   2       3.067   3.425  19.546  0.00  0.00    +0.000 N 
ATOM     21  H   UNK A   2       3.324   3.708  20.488  0.00  0.00    +0.000 HD
BRANCH  18  22
ATOM     22  CA  TYR A   1       1.053   4.798  20.050  0.00  0.00    +0.000 C 
BRANCH  22  23
ATOM     23  N   TYR A   1       0.545   3.868  21.097  0.00  0.00    +0.000 NA
ATOM     24  H1  TYR A   1       0.166   3.046  20.619  0.00  0.00    +0.000 HD
ATOM     25  H2  TYR A   1      -0.262   4.301  21.539  0.00  0.00    +0.000 HD
ENDBRANCH  22  23
BRANCH  22  26
ATOM     26  CB  TYR A   1       1.888   5.960  20.653  0.00  0.00    +0.000 C 
BRANCH  26  27
ATOM     27  CG  TYR A   1       1.912   7.236  19.826  0.00  0.00    +0.000 A 
ATOM     28  CD1 TYR A   1       2.545   7.257  18.568  0.00  0.00    +0.000 A 
ATOM     29  CE1 TYR A   1       2.548   8.418  17.788  0.00  0.00    +0.000 A 
ATOM     30  CZ  TYR A   1       1.917   9.560  18.269  0.00  0.00    +0.000 A 
ATOM     31  CE2 TYR A   1       1.280   9.553  19.503  0.00  0.00    +0.000 A 
ATOM     32  CD2 TYR A   1       1.284   8.399  20.279  0.00  0.00    +0.000 A 
BRANCH  30  33
ATOM     33  OH  TYR A   1       1.873  10.709  17.532  0.00  0.00    +0.000 OA
ATOM     34  HH  TYR A   1       1.237  11.320  17.940  0.00  0.00    +0.000 HD
ENDBRANCH  30  33
ENDBRANCH  26  27
ENDBRANCH  22  26
ENDBRANCH  18  22
ENDBRANCH   1  20
BRANCH   1  35
ATOM     35  C   UNK A   2       4.613   1.512  19.319  0.00  0.00    +0.000 C 
ATOM     36  O   UNK A   2       5.218   1.486  20.383  0.00  0.00    +0.000 OA
BRANCH  35  37
ATOM     37  O   UNK A   2       4.482   0.391  18.566  0.00  0.00    +0.000 OA
ATOM     38  H   UNK A   2       5.047   0.409  17.756  0.00  0.00    +0.000 HD
ENDBRANCH  35  37
ENDBRANCH   1  35
TORSDOF 13
ENDMDL
MODEL 3
REMARK VINA RESULT:      -7.2      4.056      6.999
REMARK  Name = 
REMARK  13 active torsions:
REMARK  status: ('A' for Active; 'I' for Inactive)
REMARK    1  A    between atoms: N_1  and  CA_2
REMARK    2  A    between atoms: CA_2  and  CB_3
REMARK    3  A    between atoms: CA_2  and  C_11
REMARK    4  A    between atoms: CB_3  and  CG_4
REMARK    5  A    between atoms: CZ_7  and  OH_8
REMARK    6  A    between atoms: N_13  and  C_14
REMARK    7  A    between atoms: C_14  and  C_15
REMARK    8  A    between atoms: C_14  and  C_18
REMARK    9  A    between atoms: C_15  and  O_17
REMARK   10  A    between atoms: C_19  and  O_20
REMARK   11  A    between atoms: C_21  and  O_22
REMARK   12  A    between atoms: C_26  and  O_27
REMARK   13  A    between atoms: N_28  and  O_29
REMARK                            x       y       z     vdW  Elec       q    Type
REMARK                         _______ _______ _______ _____ _____    ______ ____
ROOT
ATOM      1  C   UNK A   2       3.942   3.285  18.756  0.00  0.00    +0.000 C 
ENDROOT
BRANCH   1   2
ATOM      2  C   UNK A   2       5.204   3.944  18.043  0.00  0.00    +0.000 C 
ATOM      3  C   UNK A   2       5.015   3.741  16.511  0.00  0.00    +0.000 C 
ATOM      4  C   UNK A   2       6.065   4.514  15.655  0.00  0.00    +0.000 C 
ATOM      5  C   UNK A   2       5.530   5.907  15.248  0.00  0.00    +0.000 C 
ATOM      6  O   UNK A   2       5.848   6.793  16.383  0.00  0.00    +0.000 OA
ATOM      7  C   UNK A   2       6.519   5.956  17.373  0.00  0.00    +0.000 C 
ATOM      8  C   UNK A   2       7.271   5.040  16.405  0.00  0.00    +0.000 C 
ATOM      9  N   UNK A   2       5.426   5.401  18.230  0.00  0.00    +0.000 NA
BRANCH   3  10
ATOM     10  O   UNK A   2       3.675   4.120  16.120  0.00  0.00    +0.000 OA
ATOM     11  H   UNK A   2       3.556   3.856  15.184  0.00  0.00    +0.000 HD
ENDBRANCH   3  10
BRANCH   4  12
ATOM     12  O   UNK A   2       6.576   3.630  14.659  0.00  0.00    +0.000 OA
ATOM     13  H   UNK A   2       7.542   3.794  14.679  0.00  0.00    +0.000 HD
ENDBRANCH   4  12
BRANCH   8  14
ATOM     14  O   UNK A   2       8.183   4.044  16.813  0.00  0.00    +0.000 OA
ATOM     15  H   UNK A   2       8.559   4.395  17.652  0.00  0.00    +0.000 HD
ENDBRANCH   8  14
BRANCH   9  16
ATOM     16  O   UNK A   2       5.804   5.624  19.611  0.00  0.00    +0.000 OA
ATOM     17  H   UNK A   2       6.611   5.074  19.669  0.00  0.00    +0.000 HD
ENDBRANCH   9  16
ENDBRANCH   1   2
BRANCH   1  20
ATOM     18  C   TYR A   1       2.267   5.075  19.215  0.00  0.00    +0.000 C 
ATOM     19  O   TYR A   1       1.905   5.061  18.035  0.00  0.00    +0.000 OA
ATOM     20  N   UNK A   2       3.195   4.123  19.685  0.00  0.00    +0.000 N 
ATOM     21  H   UNK A   2       3.503   4.240  20.646  0.00  0.00    +0.000 HD
BRANCH  18  22
ATOM     22  CA  TYR A   1       1.685   6.003  20.299  0.00  0.00    +0.000 C 
BRANCH  22  23
ATOM     23  N   TYR A   1       2.101   5.515  21.643  0.00  0.00    +0.000 NA
ATOM     24  H1  TYR A   1       3.068   5.817  21.794  0.00  0.00    +0.000 HD
ATOM     25  H2  TYR A   1       2.154   4.500  21.607  0.00  0.00    +0.000 HD
ENDBRANCH  22  23
BRANCH  22  26
ATOM     26  CB  TYR A   1       2.123   7.472  20.047  0.00  0.00    +0.000 C 
BRANCH  26  27
ATOM     27  CG  TYR A   1       1.195   8.530  20.621  0.00  0.00    +0.000 A 
ATOM     28  CD1 TYR A   1       0.928   8.570  22.004  0.00  0.00    +0.000 A 
ATOM     29  CE1 TYR A   1       0.098   9.558  22.544  0.00  0.00    +0.000 A 
ATOM     30  CZ  TYR A   1      -0.467  10.506  21.698  0.00  0.00    +0.000 A 
ATOM     31  CE2 TYR A   1      -0.207  10.487  20.334  0.00  0.00    +0.000 A 
ATOM     32  CD2 TYR A   1       0.614   9.499  19.799  0.00  0.00    +0.000 A 
BRANCH  30  33
ATOM     33  OH  TYR A   1      -1.265  11.503  22.184  0.00  0.00    +0.000 OA
ATOM     34  HH  TYR A   1      -0.733  12.310  22.285  0.00  0.00    +0.000 HD
ENDBRANCH  30  33
ENDBRANCH  26  27
ENDBRANCH  22  26
ENDBRANCH  18  22
ENDBRANCH   1  20
BRANCH   1  35
ATOM     35  C   UNK A   2       4.368   1.964  19.426  0.00  0.00    +0.000 C 
ATOM     36  O   UNK A   2       4.939   1.881  20.505  0.00  0.00    +0.000 OA
BRANCH  35  37
ATOM     37  O   UNK A   2       4.140   0.859  18.672  0.00  0.00    +0.000 OA
ATOM     38  H   UNK A   2       4.381   0.989  17.724  0.00  0.00    +0.000 HD
ENDBRANCH  35  37
ENDBRANCH   1  35
TORSDOF 13
ENDMDL
MODEL 4
REMARK VINA RESULT:      -7.2      4.111      6.592
REMARK  Name = 
REMARK  13 active torsions:
REMARK  status: ('A' for Active; 'I' for Inactive)
REMARK    1  A    between atoms: N_1  and  CA_2
REMARK    2  A    between atoms: CA_2  and  CB_3
REMARK    3  A    between atoms: CA_2  and  C_11
REMARK    4  A    between atoms: CB_3  and  CG_4
REMARK    5  A    between atoms: CZ_7  and  OH_8
REMARK    6  A    between atoms: N_13  and  C_14
REMARK    7  A    between atoms: C_14  and  C_15
REMARK    8  A    between atoms: C_14  and  C_18
REMARK    9  A    between atoms: C_15  and  O_17
REMARK   10  A    between atoms: C_19  and  O_20
REMARK   11  A    between atoms: C_21  and  O_22
REMARK   12  A    between atoms: C_26  and  O_27
REMARK   13  A    between atoms: N_28  and  O_29
REMARK                            x       y       z     vdW  Elec       q    Type
REMARK                         _______ _______ _______ _____ _____    ______ ____
ROOT
ATOM      1  C   UNK A   2       3.999   2.970  18.616  0.00  0.00    +0.000 C 
ENDROOT
BRANCH   1   2
ATOM      2  C   UNK A   2       5.227   3.767  17.989  0.00  0.00    +0.000 C 
ATOM      3  C   UNK A   2       5.099   3.649  16.442  0.00  0.00    +0.000 C 
ATOM      4  C   UNK A   2       6.111   4.552  15.672  0.00  0.00    +0.000 C 
ATOM      5  C   UNK A   2       5.483   5.925  15.334  0.00  0.00    +0.000 C 
ATOM      6  O   UNK A   2       5.698   6.757  16.532  0.00  0.00    +0.000 OA
ATOM      7  C   UNK A   2       6.401   5.910  17.490  0.00  0.00    +0.000 C 
ATOM      8  C   UNK A   2       7.251   5.118  16.495  0.00  0.00    +0.000 C 
ATOM      9  N   UNK A   2       5.330   5.221  18.274  0.00  0.00    +0.000 NA
BRANCH   3  10
ATOM     10  O   UNK A   2       3.746   3.950  16.029  0.00  0.00    +0.000 OA
ATOM     11  H   UNK A   2       3.292   4.366  16.791  0.00  0.00    +0.000 HD
ENDBRANCH   3  10
BRANCH   4  12
ATOM     12  O   UNK A   2       6.718   3.776  14.641  0.00  0.00    +0.000 OA
ATOM     13  H   UNK A   2       6.701   2.864  14.998  0.00  0.00    +0.000 HD
ENDBRANCH   4  12
BRANCH   8  14
ATOM     14  O   UNK A   2       8.224   4.169  16.871  0.00  0.00    +0.000 OA
ATOM     15  H   UNK A   2       7.833   3.308  16.600  0.00  0.00    +0.000 HD
ENDBRANCH   8  14
BRANCH   9  16
ATOM     16  O   UNK A   2       5.649   5.382  19.678  0.00  0.00    +0.000 OA
ATOM     17  H   UNK A   2       6.625   5.322  19.650  0.00  0.00    +0.000 HD
ENDBRANCH   9  16
ENDBRANCH   1   2
BRANCH   1  20
ATOM     18  C   TYR A   1       1.963   4.388  18.865  0.00  0.00    +0.000 C 
ATOM     19  O   TYR A   1       1.633   4.149  17.700  0.00  0.00    +0.000 OA
ATOM     20  N   UNK A   2       3.070   3.730  19.441  0.00  0.00    +0.000 N 
ATOM     21  H   UNK A   2       3.327   4.031  20.377  0.00  0.00    +0.000 HD
BRANCH  18  22
ATOM     22  CA  TYR A   1       1.172   5.292  19.831  0.00  0.00    +0.000 C 
BRANCH  22  23
ATOM     23  N   TYR A   1       0.621   4.466  20.941  0.00  0.00    +0.000 NA
ATOM     24  H1  TYR A   1       1.351   4.382  21.653  0.00  0.00    +0.000 HD
ATOM     25  H2  TYR A   1       0.492   3.519  20.595  0.00  0.00    +0.000 HD
ENDBRANCH  22  23
BRANCH  22  26
ATOM     26  CB  TYR A   1       2.069   6.449  20.350  0.00  0.00    +0.000 C 
BRANCH  26  27
ATOM     27  CG  TYR A   1       1.786   7.811  19.736  0.00  0.00    +0.000 A 
ATOM     28  CD1 TYR A   1       1.104   8.798  20.475  0.00  0.00    +0.000 A 
ATOM     29  CE1 TYR A   1       0.865  10.063  19.929  0.00  0.00    +0.000 A 
ATOM     30  CZ  TYR A   1       1.307  10.339  18.640  0.00  0.00    +0.000 A 
ATOM     31  CE2 TYR A   1       1.989   9.381  17.901  0.00  0.00    +0.000 A 
ATOM     32  CD2 TYR A   1       2.220   8.122  18.445  0.00  0.00    +0.000 A 
BRANCH  30  33
ATOM     33  OH  TYR A   1       1.117  11.569  18.074  0.00  0.00    +0.000 OA
ATOM     34  HH  TYR A   1       0.899  11.452  17.135  0.00  0.00    +0.000 HD
ENDBRANCH  30  33
ENDBRANCH  26  27
ENDBRANCH  22  26
ENDBRANCH  18  22
ENDBRANCH   1  20
BRANCH   1  35
ATOM     35  C   UNK A   2       4.527   1.737  19.375  0.00  0.00    +0.000 C 
ATOM     36  O   UNK A   2       5.057   1.769  20.478  0.00  0.00    +0.000 OA
BRANCH  35  37
ATOM     37  O   UNK A   2       4.443   0.576  18.677  0.00  0.00    +0.000 OA
ATOM     38  H   UNK A   2       4.272  -0.205  19.257  0.00  0.00    +0.000 HD
ENDBRANCH  35  37
ENDBRANCH   1  35
TORSDOF 13
ENDMDL
MODEL 5
REMARK VINA RESULT:      -7.1      4.066      6.881
REMARK  Name = 
REMARK  13 active torsions:
REMARK  status: ('A' for Active; 'I' for Inactive)
REMARK    1  A    between atoms: N_1  and  CA_2
REMARK    2  A    between atoms: CA_2  and  CB_3
REMARK    3  A    between atoms: CA_2  and  C_11
REMARK    4  A    between atoms: CB_3  and  CG_4
REMARK    5  A    between atoms: CZ_7  and  OH_8
REMARK    6  A    between atoms: N_13  and  C_14
REMARK    7  A    between atoms: C_14  and  C_15
REMARK    8  A    between atoms: C_14  and  C_18
REMARK    9  A    between atoms: C_15  and  O_17
REMARK   10  A    between atoms: C_19  and  O_20
REMARK   11  A    between atoms: C_21  and  O_22
REMARK   12  A    between atoms: C_26  and  O_27
REMARK   13  A    between atoms: N_28  and  O_29
REMARK                            x       y       z     vdW  Elec       q    Type
REMARK                         _______ _______ _______ _____ _____    ______ ____
ROOT
ATOM      1  C   UNK A   2       3.985   3.267  18.776  0.00  0.00    +0.000 C 
ENDROOT
BRANCH   1   2
ATOM      2  C   UNK A   2       5.236   3.920  18.038  0.00  0.00    +0.000 C 
ATOM      3  C   UNK A   2       5.018   3.713  16.512  0.00  0.00    +0.000 C 
ATOM      4  C   UNK A   2       6.054   4.480  15.634  0.00  0.00    +0.000 C 
ATOM      5  C   UNK A   2       5.515   5.874  15.232  0.00  0.00    +0.000 C 
ATOM      6  O   UNK A   2       5.856   6.762  16.358  0.00  0.00    +0.000 OA
ATOM      7  C   UNK A   2       6.542   5.926  17.338  0.00  0.00    +0.000 C 
ATOM      8  C   UNK A   2       7.275   5.006  16.360  0.00  0.00    +0.000 C 
ATOM      9  N   UNK A   2       5.464   5.377  18.217  0.00  0.00    +0.000 NA
BRANCH   3  10
ATOM     10  O   UNK A   2       3.672   4.094  16.143  0.00  0.00    +0.000 OA
ATOM     11  H   UNK A   2       3.087   3.870  16.896  0.00  0.00    +0.000 HD
ENDBRANCH   3  10
BRANCH   4  12
ATOM     12  O   UNK A   2       6.545   3.593  14.631  0.00  0.00    +0.000 OA
ATOM     13  H   UNK A   2       6.379   2.704  15.008  0.00  0.00    +0.000 HD
ENDBRANCH   4  12
BRANCH   8  14
ATOM     14  O   UNK A   2       8.191   4.009  16.754  0.00  0.00    +0.000 OA
ATOM     15  H   UNK A   2       8.324   4.174  17.715  0.00  0.00    +0.000 HD
ENDBRANCH   8  14
BRANCH   9  16
ATOM     16  O   UNK A   2       5.868   5.603  19.590  0.00  0.00    +0.000 OA
ATOM     17  H   UNK A   2       5.003   5.807  20.002  0.00  0.00    +0.000 HD
ENDBRANCH   9  16
ENDBRANCH   1   2
BRANCH   1  20
ATOM     18  C   TYR A   1       2.327   5.080  19.202  0.00  0.00    +0.000 C 
ATOM     19  O   TYR A   1       1.981   5.064  18.017  0.00  0.00    +0.000 OA
ATOM     20  N   UNK A   2       3.237   4.119  19.690  0.00  0.00    +0.000 N 
ATOM     21  H   UNK A   2       3.533   4.239  20.655  0.00  0.00    +0.000 HD
BRANCH  18  22
ATOM     22  CA  TYR A   1       1.743   6.023  20.272  0.00  0.00    +0.000 C 
BRANCH  22  23
ATOM     23  N   TYR A   1       1.992   5.450  21.624  0.00  0.00    +0.000 NA
ATOM     24  H1  TYR A   1       2.380   6.196  22.208  0.00  0.00    +0.000 HD
ATOM     25  H2  TYR A   1       2.744   4.771  21.545  0.00  0.00    +0.000 HD
ENDBRANCH  22  23
BRANCH  22  26
ATOM     26  CB  TYR A   1       2.337   7.450  20.122  0.00  0.00    +0.000 C 
BRANCH  26  27
ATOM     27  CG  TYR A   1       1.314   8.559  19.932  0.00  0.00    +0.000 A 
ATOM     28  CD1 TYR A   1       1.151   9.170  18.674  0.00  0.00    +0.000 A 
ATOM     29  CE1 TYR A   1       0.193  10.172  18.484  0.00  0.00    +0.000 A 
ATOM     30  CZ  TYR A   1      -0.601  10.562  19.557  0.00  0.00    +0.000 A 
ATOM     31  CE2 TYR A   1      -0.460   9.963  20.801  0.00  0.00    +0.000 A 
ATOM     32  CD2 TYR A   1       0.498   8.972  20.988  0.00  0.00    +0.000 A 
BRANCH  30  33
ATOM     33  OH  TYR A   1      -1.566  11.519  19.413  0.00  0.00    +0.000 OA
ATOM     34  HH  TYR A   1      -1.260  12.340  19.832  0.00  0.00    +0.000 HD
ENDBRANCH  30  33
ENDBRANCH  26  27
ENDBRANCH  22  26
ENDBRANCH  18  22
ENDBRANCH   1  20
BRANCH   1  35
ATOM     35  C   UNK A   2       4.429   1.967  19.475  0.00  0.00    +0.000 C 
ATOM     36  O   UNK A   2       4.955   1.911  20.580  0.00  0.00    +0.000 OA
BRANCH  35  37
ATOM     37  O   UNK A   2       4.275   0.849  18.722  0.00  0.00    +0.000 OA
ATOM     38  H   UNK A   2       4.598   0.967  17.796  0.00  0.00    +0.000 HD
ENDBRANCH  35  37
ENDBRANCH   1  35
TORSDOF 13
ENDMDL
MODEL 6
REMARK VINA RESULT:      -7.0      3.910      6.481
REMARK  Name = 
REMARK  13 active torsions:
REMARK  status: ('A' for Active; 'I' for Inactive)
REMARK    1  A    between atoms: N_1  and  CA_2
REMARK    2  A    between atoms: CA_2  and  CB_3
REMARK    3  A    between atoms: CA_2  and  C_11
REMARK    4  A    between atoms: CB_3  and  CG_4
REMARK    5  A    between atoms: CZ_7  and  OH_8
REMARK    6  A    between atoms: N_13  and  C_14
REMARK    7  A    between atoms: C_14  and  C_15
REMARK    8  A    between atoms: C_14  and  C_18
REMARK    9  A    between atoms: C_15  and  O_17
REMARK   10  A    between atoms: C_19  and  O_20
REMARK   11  A    between atoms: C_21  and  O_22
REMARK   12  A    between atoms: C_26  and  O_27
REMARK   13  A    between atoms: N_28  and  O_29
REMARK                            x       y       z     vdW  Elec       q    Type
REMARK                         _______ _______ _______ _____ _____    ______ ____
ROOT
ATOM      1  C   UNK A   2       3.538   6.017  18.236  0.00  0.00    +0.000 C 
ENDROOT
BRANCH   1   2
ATOM      2  C   UNK A   2       3.255   4.782  19.200  0.00  0.00    +0.000 C 
ATOM      3  C   UNK A   2       1.806   4.298  18.901  0.00  0.00    +0.000 C 
ATOM      4  C   UNK A   2       1.445   2.960  19.617  0.00  0.00    +0.000 C 
ATOM      5  C   UNK A   2       1.733   1.747  18.701  0.00  0.00    +0.000 C 
ATOM      6  O   UNK A   2       3.161   1.437  18.904  0.00  0.00    +0.000 OA
ATOM      7  C   UNK A   2       3.652   2.412  19.872  0.00  0.00    +0.000 C 
ATOM      8  C   UNK A   2       2.386   2.528  20.723  0.00  0.00    +0.000 C 
ATOM      9  N   UNK A   2       4.115   3.579  19.059  0.00  0.00    +0.000 NA
BRANCH   3  10
ATOM     10  O   UNK A   2       1.606   4.171  17.474  0.00  0.00    +0.000 OA
ATOM     11  H   UNK A   2       2.139   4.869  17.040  0.00  0.00    +0.000 HD
ENDBRANCH   3  10
BRANCH   4  12
ATOM     12  O   UNK A   2       0.163   3.102  20.225  0.00  0.00    +0.000 OA
ATOM     13  H   UNK A   2      -0.317   3.701  19.615  0.00  0.00    +0.000 HD
ENDBRANCH   4  12
BRANCH   8  14
ATOM     14  O   UNK A   2       2.296   3.302  21.899  0.00  0.00    +0.000 OA
ATOM     15  H   UNK A   2       3.182   3.203  22.316  0.00  0.00    +0.000 HD
ENDBRANCH   8  14
BRANCH   9  16
ATOM     16  O   UNK A   2       5.447   3.924  19.517  0.00  0.00    +0.000 OA
ATOM     17  H   UNK A   2       5.991   3.525  18.808  0.00  0.00    +0.000 HD
ENDBRANCH   9  16
ENDBRANCH   1   2
BRANCH   1  20
ATOM     18  C   TYR A   1       5.343   6.736  16.674  0.00  0.00    +0.000 C 
ATOM     19  O   TYR A   1       4.506   7.039  15.818  0.00  0.00    +0.000 OA
ATOM     20  N   UNK A   2       4.932   6.337  17.962  0.00  0.00    +0.000 N 
ATOM     21  H   UNK A   2       5.671   6.030  18.589  0.00  0.00    +0.000 HD
BRANCH  18  22
ATOM     22  CA  TYR A   1       6.868   6.871  16.492  0.00  0.00    +0.000 C 
BRANCH  22  23
ATOM     23  N   TYR A   1       7.458   7.489  17.712  0.00  0.00    +0.000 NA
ATOM     24  H1  TYR A   1       7.928   8.351  17.422  0.00  0.00    +0.000 HD
ATOM     25  H2  TYR A   1       8.209   6.887  18.039  0.00  0.00    +0.000 HD
ENDBRANCH  22  23
BRANCH  22  26
ATOM     26  CB  TYR A   1       7.501   5.489  16.170  0.00  0.00    +0.000 C 
BRANCH  26  27
ATOM     27  CG  TYR A   1       6.962   4.807  14.923  0.00  0.00    +0.000 A 
ATOM     28  CD1 TYR A   1       7.561   5.037  13.669  0.00  0.00    +0.000 A 
ATOM     29  CE1 TYR A   1       7.089   4.391  12.521  0.00  0.00    +0.000 A 
ATOM     30  CZ  TYR A   1       6.015   3.515  12.629  0.00  0.00    +0.000 A 
ATOM     31  CE2 TYR A   1       5.420   3.269  13.859  0.00  0.00    +0.000 A 
ATOM     32  CD2 TYR A   1       5.887   3.918  14.998  0.00  0.00    +0.000 A 
BRANCH  30  33
ATOM     33  OH  TYR A   1       5.537   2.843  11.540  0.00  0.00    +0.000 OA
ATOM     34  HH  TYR A   1       4.587   2.681  11.663  0.00  0.00    +0.000 HD
ENDBRANCH  30  33
ENDBRANCH  26  27
ENDBRANCH  22  26
ENDBRANCH  18  22
ENDBRANCH   1  20
BRANCH   1  35
ATOM     35  C   UNK A   2       2.782   7.254  18.758  0.00  0.00    +0.000 C 
ATOM     36  O   UNK A   2       2.371   7.390  19.904  0.00  0.00    +0.000 OA
BRANCH  35  37
ATOM     37  O   UNK A   2       2.511   8.183  17.808  0.00  0.00    +0.000 OA
ATOM     38  H   UNK A   2       2.882   9.072  18.027  0.00  0.00    +0.000 HD
ENDBRANCH  35  37
ENDBRANCH   1  35
TORSDOF 13
ENDMDL
MODEL 7
REMARK VINA RESULT:      -7.0      6.270     10.287
REMARK  Name = 
REMARK  13 active torsions:
REMARK  status: ('A' for Active; 'I' for Inactive)
REMARK    1  A    between atoms: N_1  and  CA_2
REMARK    2  A    between atoms: CA_2  and  CB_3
REMARK    3  A    between atoms: CA_2  and  C_11
REMARK    4  A    between atoms: CB_3  and  CG_4
REMARK    5  A    between atoms: CZ_7  and  OH_8
REMARK    6  A    between atoms: N_13  and  C_14
REMARK    7  A    between atoms: C_14  and  C_15
REMARK    8  A    between atoms: C_14  and  C_18
REMARK    9  A    between atoms: C_15  and  O_17
REMARK   10  A    between atoms: C_19  and  O_20
REMARK   11  A    between atoms: C_21  and  O_22
REMARK   12  A    between atoms: C_26  and  O_27
REMARK   13  A    between atoms: N_28  and  O_29
REMARK                            x       y       z     vdW  Elec       q    Type
REMARK                         _______ _______ _______ _____ _____    ______ ____
ROOT
ATOM      1  C   UNK A   2      -0.188  11.582  18.943  0.00  0.00    +0.000 C 
ENDROOT
BRANCH   1   2
ATOM      2  C   UNK A   2       0.707  12.899  18.936  0.00  0.00    +0.000 C 
ATOM      3  C   UNK A   2       0.539  13.566  20.332  0.00  0.00    +0.000 C 
ATOM      4  C   UNK A   2       1.516  14.760  20.564  0.00  0.00    +0.000 C 
ATOM      5  C   UNK A   2       2.813  14.287  21.263  0.00  0.00    +0.000 C 
ATOM      6  O   UNK A   2       3.691  13.817  20.176  0.00  0.00    +0.000 OA
ATOM      7  C   UNK A   2       2.941  14.010  18.939  0.00  0.00    +0.000 C 
ATOM      8  C   UNK A   2       2.209  15.296  19.329  0.00  0.00    +0.000 C 
ATOM      9  N   UNK A   2       2.171  12.743  18.740  0.00  0.00    +0.000 NA
BRANCH   3  10
ATOM     10  O   UNK A   2       0.698  12.580  21.379  0.00  0.00    +0.000 OA
ATOM     11  H   UNK A   2       1.659  12.450  21.517  0.00  0.00    +0.000 HD
ENDBRANCH   3  10
BRANCH   4  12
ATOM     12  O   UNK A   2       0.776  15.852  21.105  0.00  0.00    +0.000 OA
ATOM     13  H   UNK A   2      -0.129  15.713  20.758  0.00  0.00    +0.000 HD
ENDBRANCH   4  12
BRANCH   8  14
ATOM     14  O   UNK A   2       1.368  16.018  18.457  0.00  0.00    +0.000 OA
ATOM     15  H   UNK A   2       0.533  15.499  18.449  0.00  0.00    +0.000 HD
ENDBRANCH   8  14
BRANCH   9  16
ATOM     16  O   UNK A   2       2.397  12.309  17.376  0.00  0.00    +0.000 OA
ATOM     17  H   UNK A   2       2.144  13.116  16.884  0.00  0.00    +0.000 HD
ENDBRANCH   9  16
ENDBRANCH   1   2
BRANCH   1  20
ATOM     18  C   TYR A   1       1.077   9.446  19.180  0.00  0.00    +0.000 C 
ATOM     19  O   TYR A   1       0.989   9.512  20.410  0.00  0.00    +0.000 OA
ATOM     20  N   UNK A   2       0.400  10.380  18.368  0.00  0.00    +0.000 N 
ATOM     21  H   UNK A   2       0.578  10.311  17.370  0.00  0.00    +0.000 HD
BRANCH  18  22
ATOM     22  CA  TYR A   1       1.795   8.319  18.412  0.00  0.00    +0.000 C 
BRANCH  22  23
ATOM     23  N   TYR A   1       2.764   8.915  17.451  0.00  0.00    +0.000 NA
ATOM     24  H1  TYR A   1       2.712   9.932  17.554  0.00  0.00    +0.000 HD
ATOM     25  H2  TYR A   1       2.426   8.736  16.510  0.00  0.00    +0.000 HD
ENDBRANCH  22  23
BRANCH  22  26
ATOM     26  CB  TYR A   1       2.478   7.338  19.403  0.00  0.00    +0.000 C 
BRANCH  26  27
ATOM     27  CG  TYR A   1       2.103   5.875  19.226  0.00  0.00    +0.000 A 
ATOM     28  CD1 TYR A   1       1.614   5.128  20.316  0.00  0.00    +0.000 A 
ATOM     29  CE1 TYR A   1       1.240   3.790  20.155  0.00  0.00    +0.000 A 
ATOM     30  CZ  TYR A   1       1.357   3.199  18.902  0.00  0.00    +0.000 A 
ATOM     31  CE2 TYR A   1       1.827   3.924  17.815  0.00  0.00    +0.000 A 
ATOM     32  CD2 TYR A   1       2.204   5.252  17.979  0.00  0.00    +0.000 A 
BRANCH  30  33
ATOM     33  OH  TYR A   1       0.980   1.902  18.692  0.00  0.00    +0.000 OA
ATOM     34  HH  TYR A   1       1.583   1.317  19.181  0.00  0.00    +0.000 HD
ENDBRANCH  30  33
ENDBRANCH  26  27
ENDBRANCH  22  26
ENDBRANCH  18  22
ENDBRANCH   1  20
BRANCH   1  35
ATOM     35  C   UNK A   2      -1.552  11.891  18.295  0.00  0.00    +0.000 C 
ATOM     36  O   UNK A   2      -2.638  11.620  18.790  0.00  0.00    +0.000 OA
BRANCH  35  37
ATOM     37  O   UNK A   2      -1.469  12.423  17.050  0.00  0.00    +0.000 OA
ATOM     38  H   UNK A   2      -2.338  12.759  16.721  0.00  0.00    +0.000 HD
ENDBRANCH  35  37
ENDBRANCH   1  35
TORSDOF 13
ENDMDL
MODEL 8
REMARK VINA RESULT:      -6.9      1.521      1.697
REMARK  Name = 
REMARK  13 active torsions:
REMARK  status: ('A' for Active; 'I' for Inactive)
REMARK    1  A    between atoms: N_1  and  CA_2
REMARK    2  A    between atoms: CA_2  and  CB_3
REMARK    3  A    between atoms: CA_2  and  C_11
REMARK    4  A    between atoms: CB_3  and  CG_4
REMARK    5  A    between atoms: CZ_7  and  OH_8
REMARK    6  A    between atoms: N_13  and  C_14
REMARK    7  A    between atoms: C_14  and  C_15
REMARK    8  A    between atoms: C_14  and  C_18
REMARK    9  A    between atoms: C_15  and  O_17
REMARK   10  A    between atoms: C_19  and  O_20
REMARK   11  A    between atoms: C_21  and  O_22
REMARK   12  A    between atoms: C_26  and  O_27
REMARK   13  A    between atoms: N_28  and  O_29
REMARK                            x       y       z     vdW  Elec       q    Type
REMARK                         _______ _______ _______ _____ _____    ______ ____
ROOT
ATOM      1  C   UNK A   2       5.356   5.376  17.034  0.00  0.00    +0.000 C 
ENDROOT
BRANCH   1   2
ATOM      2  C   UNK A   2       3.974   4.827  17.601  0.00  0.00    +0.000 C 
ATOM      3  C   UNK A   2       4.246   3.394  18.144  0.00  0.00    +0.000 C 
ATOM      4  C   UNK A   2       3.038   2.793  18.925  0.00  0.00    +0.000 C 
ATOM      5  C   UNK A   2       3.160   3.081  20.440  0.00  0.00    +0.000 C 
ATOM      6  O   UNK A   2       2.578   4.422  20.630  0.00  0.00    +0.000 OA
ATOM      7  C   UNK A   2       2.154   4.868  19.307  0.00  0.00    +0.000 C 
ATOM      8  C   UNK A   2       1.716   3.511  18.752  0.00  0.00    +0.000 C 
ATOM      9  N   UNK A   2       3.341   5.566  18.723  0.00  0.00    +0.000 NA
BRANCH   3  10
ATOM     10  O   UNK A   2       5.430   3.392  18.975  0.00  0.00    +0.000 OA
ATOM     11  H   UNK A   2       5.743   2.466  19.039  0.00  0.00    +0.000 HD
ENDBRANCH   3  10
BRANCH   4  12
ATOM     12  O   UNK A   2       2.823   1.458  18.471  0.00  0.00    +0.000 OA
ATOM     13  H   UNK A   2       1.850   1.403  18.369  0.00  0.00    +0.000 HD
ENDBRANCH   4  12
BRANCH   8  14
ATOM     14  O   UNK A   2       1.119   3.334  17.486  0.00  0.00    +0.000 OA
ATOM     15  H   UNK A   2       1.734   3.789  16.868  0.00  0.00    +0.000 HD
ENDBRANCH   8  14
BRANCH   9  16
ATOM     16  O   UNK A   2       2.885   6.845  18.217  0.00  0.00    +0.000 OA
ATOM     17  H   UNK A   2       2.855   7.367  19.045  0.00  0.00    +0.000 HD
ENDBRANCH   9  16
ENDBRANCH   1   2
BRANCH   1  20
ATOM     18  C   TYR A   1       7.227   6.992  17.362  0.00  0.00    +0.000 C 
ATOM     19  O   TYR A   1       7.752   6.624  16.307  0.00  0.00    +0.000 OA
ATOM     20  N   UNK A   2       5.956   6.506  17.731  0.00  0.00    +0.000 N 
ATOM     21  H   UNK A   2       5.619   6.794  18.645  0.00  0.00    +0.000 HD
BRANCH  18  22
ATOM     22  CA  TYR A   1       7.805   8.072  18.297  0.00  0.00    +0.000 C 
BRANCH  22  23
ATOM     23  N   TYR A   1       8.740   7.436  19.267  0.00  0.00    +0.000 NA
ATOM     24  H1  TYR A   1       9.612   7.972  19.250  0.00  0.00    +0.000 HD
ATOM     25  H2  TYR A   1       8.996   6.521  18.904  0.00  0.00    +0.000 HD
ENDBRANCH  22  23
BRANCH  22  26
ATOM     26  CB  TYR A   1       8.490   9.195  17.472  0.00  0.00    +0.000 C 
BRANCH  26  27
ATOM     27  CG  TYR A   1       8.883  10.431  18.265  0.00  0.00    +0.000 A 
ATOM     28  CD1 TYR A   1       8.654  11.718  17.739  0.00  0.00    +0.000 A 
ATOM     29  CE1 TYR A   1       8.987  12.860  18.473  0.00  0.00    +0.000 A 
ATOM     30  CZ  TYR A   1       9.551  12.715  19.735  0.00  0.00    +0.000 A 
ATOM     31  CE2 TYR A   1       9.775  11.454  20.273  0.00  0.00    +0.000 A 
ATOM     32  CD2 TYR A   1       9.449  10.320  19.537  0.00  0.00    +0.000 A 
BRANCH  30  33
ATOM     33  OH  TYR A   1       9.870  13.802  20.499  0.00  0.00    +0.000 OA
ATOM     34  HH  TYR A   1       9.529  13.665  21.398  0.00  0.00    +0.000 HD
ENDBRANCH  30  33
ENDBRANCH  26  27
ENDBRANCH  22  26
ENDBRANCH  18  22
ENDBRANCH   1  20
BRANCH   1  35
ATOM     35  C   UNK A   2       5.205   5.676  15.529  0.00  0.00    +0.000 C 
ATOM     36  O   UNK A   2       5.365   4.856  14.634  0.00  0.00    +0.000 OA
BRANCH  35  37
ATOM     37  O   UNK A   2       4.961   6.979  15.243  0.00  0.00    +0.000 OA
ATOM     38  H   UNK A   2       5.723   7.567  15.466  0.00  0.00    +0.000 HD
ENDBRANCH  35  37
ENDBRANCH   1  35
TORSDOF 13
ENDMDL
MODEL 9
REMARK VINA RESULT:      -6.8      4.011      6.257
REMARK  Name = 
REMARK  13 active torsions:
REMARK  status: ('A' for Active; 'I' for Inactive)
REMARK    1  A    between atoms: N_1  and  CA_2
REMARK    2  A    between atoms: CA_2  and  CB_3
REMARK    3  A    between atoms: CA_2  and  C_11
REMARK    4  A    between atoms: CB_3  and  CG_4
REMARK    5  A    between atoms: CZ_7  and  OH_8
REMARK    6  A    between atoms: N_13  and  C_14
REMARK    7  A    between atoms: C_14  and  C_15
REMARK    8  A    between atoms: C_14  and  C_18
REMARK    9  A    between atoms: C_15  and  O_17
REMARK   10  A    between atoms: C_19  and  O_20
REMARK   11  A    between atoms: C_21  and  O_22
REMARK   12  A    between atoms: C_26  and  O_27
REMARK   13  A    between atoms: N_28  and  O_29
REMARK                            x       y       z     vdW  Elec       q    Type
REMARK                         _______ _______ _______ _____ _____    ______ ____
ROOT
ATOM      1  C   UNK A   2       3.214   6.221  17.837  0.00  0.00    +0.000 C 
ENDROOT
BRANCH   1   2
ATOM      2  C   UNK A   2       2.565   5.033  18.675  0.00  0.00    +0.000 C 
ATOM      3  C   UNK A   2       2.669   3.752  17.797  0.00  0.00    +0.000 C 
ATOM      4  C   UNK A   2       2.265   2.452  18.558  0.00  0.00    +0.000 C 
ATOM      5  C   UNK A   2       3.503   1.773  19.190  0.00  0.00    +0.000 C 
ATOM      6  O   UNK A   2       3.691   2.441  20.491  0.00  0.00    +0.000 OA
ATOM      7  C   UNK A   2       2.628   3.436  20.591  0.00  0.00    +0.000 C 
ATOM      8  C   UNK A   2       1.531   2.653  19.867  0.00  0.00    +0.000 C 
ATOM      9  N   UNK A   2       3.189   4.679  19.975  0.00  0.00    +0.000 NA
BRANCH   3  10
ATOM     10  O   UNK A   2       4.005   3.622  17.260  0.00  0.00    +0.000 OA
ATOM     11  H   UNK A   2       4.504   3.023  17.853  0.00  0.00    +0.000 HD
ENDBRANCH   3  10
BRANCH   4  12
ATOM     12  O   UNK A   2       1.387   1.694  17.727  0.00  0.00    +0.000 OA
ATOM     13  H   UNK A   2       0.922   1.107  18.358  0.00  0.00    +0.000 HD
ENDBRANCH   4  12
BRANCH   8  14
ATOM     14  O   UNK A   2       0.203   3.107  19.726  0.00  0.00    +0.000 OA
ATOM     15  H   UNK A   2      -0.127   2.631  18.931  0.00  0.00    +0.000 HD
ENDBRANCH   8  14
BRANCH   9  16
ATOM     16  O   UNK A   2       2.946   5.768  20.901  0.00  0.00    +0.000 OA
ATOM     17  H   UNK A   2       2.363   6.339  20.360  0.00  0.00    +0.000 HD
ENDBRANCH   9  16
ENDBRANCH   1   2
BRANCH   1  20
ATOM     18  C   TYR A   1       5.381   6.655  16.684  0.00  0.00    +0.000 C 
ATOM     19  O   TYR A   1       4.786   7.080  15.688  0.00  0.00    +0.000 OA
ATOM     20  N   UNK A   2       4.666   6.326  17.853  0.00  0.00    +0.000 N 
ATOM     21  H   UNK A   2       5.212   5.914  18.605  0.00  0.00    +0.000 HD
BRANCH  18  22
ATOM     22  CA  TYR A   1       6.914   6.558  16.811  0.00  0.00    +0.000 C 
BRANCH  22  23
ATOM     23  N   TYR A   1       7.320   6.939  18.192  0.00  0.00    +0.000 NA
ATOM     24  H1  TYR A   1       8.282   6.616  18.330  0.00  0.00    +0.000 HD
ATOM     25  H2  TYR A   1       6.770   6.388  18.846  0.00  0.00    +0.000 HD
ENDBRANCH  22  23
BRANCH  22  26
ATOM     26  CB  TYR A   1       7.402   5.135  16.427  0.00  0.00    +0.000 C 
BRANCH  26  27
ATOM     27  CG  TYR A   1       7.017   4.674  15.030  0.00  0.00    +0.000 A 
ATOM     28  CD1 TYR A   1       7.685   5.186  13.901  0.00  0.00    +0.000 A 
ATOM     29  CE1 TYR A   1       7.356   4.747  12.615  0.00  0.00    +0.000 A 
ATOM     30  CZ  TYR A   1       6.355   3.794  12.459  0.00  0.00    +0.000 A 
ATOM     31  CE2 TYR A   1       5.693   3.272  13.562  0.00  0.00    +0.000 A 
ATOM     32  CD2 TYR A   1       6.018   3.715  14.840  0.00  0.00    +0.000 A 
BRANCH  30  33
ATOM     33  OH  TYR A   1       6.017   3.317  11.224  0.00  0.00    +0.000 OA
ATOM     34  HH  TYR A   1       6.183   2.361  11.200  0.00  0.00    +0.000 HD
ENDBRANCH  30  33
ENDBRANCH  26  27
ENDBRANCH  22  26
ENDBRANCH  18  22
ENDBRANCH   1  20
BRANCH   1  35
ATOM     35  C   UNK A   2       2.561   7.554  18.254  0.00  0.00    +0.000 C 
ATOM     36  O   UNK A   2       2.025   7.762  19.335  0.00  0.00    +0.000 OA
BRANCH  35  37
ATOM     37  O   UNK A   2       2.537   8.493  17.275  0.00  0.00    +0.000 OA
ATOM     38  H   UNK A   2       2.424   9.408  17.628  0.00  0.00    +0.000 HD
ENDBRANCH  35  37
ENDBRANCH   1  35
TORSDOF 13
ENDMDL
