MODEL 1
REMARK VINA RESULT:      -7.8      0.000      0.000
REMARK  Name = 
REMARK  6 active torsions:
REMARK  status: ('A' for Active; 'I' for Inactive)
REMARK    1  A    between atoms: C_2  and  C_3
REMARK    2  A    between atoms: C_7  and  C_8
REMARK    3  A    between atoms: N_15  and  C_16
REMARK    4  A    between atoms: C_16  and  C_17
REMARK    5  A    between atoms: C_17  and  C_18
REMARK    6  A    between atoms: C_18  and  C_19
REMARK                            x       y       z     vdW  Elec       q    Type
REMARK                         _______ _______ _______ _____ _____    ______ ____
ROOT
ATOM      1  O   UNL     1       5.241   3.102  19.865  0.00  0.00    +0.000 OA
ATOM      2  C   UNL     1       4.694   3.896  19.100  0.00  0.00    +0.000 C 
ATOM      3  N   UNL     1       5.281   5.137  18.791  0.00  0.00    +0.000 N 
ATOM      4  C   UNL     1       6.592   5.451  19.342  0.00  0.00    +0.000 C 
ATOM      5  C   UNL     1       7.739   5.447  18.335  0.00  0.00    +0.000 C 
ATOM      6  C   UNL     1       7.539   6.120  16.972  0.00  0.00    +0.000 C 
ATOM      7  N   UNL     1       6.572   7.204  16.828  0.00  0.00    +0.000 NA
ATOM      8  C   UNL     1       5.184   6.718  16.820  0.00  0.00    +0.000 C 
ATOM      9  C   UNL     1       4.579   6.264  18.157  0.00  0.00    +0.000 C 
ENDROOT
BRANCH   2  10
ATOM     10  C   UNL     1       3.404   3.553  18.489  0.00  0.00    +0.000 A 
ATOM     11  N   UNL     1       3.253   3.161  17.162  0.00  0.00    +0.000 NA
ATOM     12  C   UNL     1       1.965   2.940  17.041  0.00  0.00    +0.000 A 
ATOM     13  O   UNL     1       1.240   3.126  18.168  0.00  0.00    +0.000 OA
ATOM     14  C   UNL     1       2.157   3.522  19.106  0.00  0.00    +0.000 A 
BRANCH  14  15
ATOM     15  C   UNL     1       1.778   3.912  20.527  0.00  0.00    +0.000 C 
ATOM     16  C   UNL     1       1.079   2.829  21.337  0.00  0.00    +0.000 C 
ATOM     17  C   UNL     1       2.465   3.231  21.696  0.00  0.00    +0.000 C 
ENDBRANCH  14  15
ENDBRANCH   2  10
BRANCH   7  18
ATOM     18  C   UNL     1       6.801   8.396  17.643  0.00  0.00    +0.000 C 
BRANCH  18  19
ATOM     19  C   UNL     1       8.238   8.923  17.562  0.00  0.00    +0.000 C 
BRANCH  19  20
ATOM     20  C   UNL     1       8.812   9.215  18.951  0.00  0.00    +0.000 C 
BRANCH  20  21
ATOM     21  C   UNL     1       9.362  10.615  19.047  0.00  0.00    +0.000 A 
ATOM     22  C   UNL     1       9.958  11.051  20.239  0.00  0.00    +0.000 A 
ATOM     23  C   UNL     1      10.472  12.344  20.336  0.00  0.00    +0.000 A 
ATOM     24  C   UNL     1      10.388  13.208  19.248  0.00  0.00    +0.000 A 
ATOM     25  C   UNL     1       9.786  12.786  18.063  0.00  0.00    +0.000 A 
ATOM     26  C   UNL     1       9.271  11.493  17.963  0.00  0.00    +0.000 A 
ENDBRANCH  20  21
ENDBRANCH  19  20
ENDBRANCH  18  19
ENDBRANCH   7  18
TORSDOF 6
ENDMDL
MODEL 2
REMARK VINA RESULT:      -7.8      0.657      1.052
REMARK  Name = 
REMARK  6 active torsions:
REMARK  status: ('A' for Active; 'I' for Inactive)
REMARK    1  A    between atoms: C_2  and  C_3
REMARK    2  A    between atoms: C_7  and  C_8
REMARK    3  A    between atoms: N_15  and  C_16
REMARK    4  A    between atoms: C_16  and  C_17
REMARK    5  A    between atoms: C_17  and  C_18
REMARK    6  A    between atoms: C_18  and  C_19
REMARK                            x       y       z     vdW  Elec       q    Type
REMARK                         _______ _______ _______ _____ _____    ______ ____
ROOT
ATOM      1  O   UNL     1       5.216   2.952  19.775  0.00  0.00    +0.000 OA
ATOM      2  C   UNL     1       4.651   3.781  19.062  0.00  0.00    +0.000 C 
ATOM      3  N   UNL     1       5.234   5.033  18.793  0.00  0.00    +0.000 N 
ATOM      4  C   UNL     1       6.560   5.319  19.321  0.00  0.00    +0.000 C 
ATOM      5  C   UNL     1       7.680   5.357  18.284  0.00  0.00    +0.000 C 
ATOM      6  C   UNL     1       7.445   6.091  16.958  0.00  0.00    +0.000 C 
ATOM      7  N   UNL     1       6.478   7.183  16.890  0.00  0.00    +0.000 NA
ATOM      8  C   UNL     1       5.088   6.701  16.898  0.00  0.00    +0.000 C 
ATOM      9  C   UNL     1       4.519   6.189  18.230  0.00  0.00    +0.000 C 
ENDROOT
BRANCH   2  10
ATOM     10  C   UNL     1       3.343   3.469  18.472  0.00  0.00    +0.000 A 
ATOM     11  N   UNL     1       3.159   3.106  17.141  0.00  0.00    +0.000 NA
ATOM     12  C   UNL     1       1.865   2.907  17.043  0.00  0.00    +0.000 A 
ATOM     13  O   UNL     1       1.167   3.079  18.189  0.00  0.00    +0.000 OA
ATOM     14  C   UNL     1       2.110   3.443  19.115  0.00  0.00    +0.000 A 
BRANCH  14  15
ATOM     15  C   UNL     1       1.766   3.808  20.552  0.00  0.00    +0.000 C 
ATOM     16  C   UNL     1       1.006   2.745  21.332  0.00  0.00    +0.000 C 
ATOM     17  C   UNL     1       2.417   3.046  21.691  0.00  0.00    +0.000 C 
ENDBRANCH  14  15
ENDBRANCH   2  10
BRANCH   7  18
ATOM     18  C   UNL     1       6.733   8.337  17.750  0.00  0.00    +0.000 C 
BRANCH  18  19
ATOM     19  C   UNL     1       8.223   8.664  17.904  0.00  0.00    +0.000 C 
BRANCH  19  20
ATOM     20  C   UNL     1       8.526  10.115  17.520  0.00  0.00    +0.000 C 
BRANCH  20  21
ATOM     21  C   UNL     1       9.477  10.765  18.492  0.00  0.00    +0.000 A 
ATOM     22  C   UNL     1      10.720  11.235  18.044  0.00  0.00    +0.000 A 
ATOM     23  C   UNL     1      11.605  11.840  18.936  0.00  0.00    +0.000 A 
ATOM     24  C   UNL     1      11.258  11.974  20.278  0.00  0.00    +0.000 A 
ATOM     25  C   UNL     1      10.028  11.499  20.733  0.00  0.00    +0.000 A 
ATOM     26  C   UNL     1       9.140  10.892  19.843  0.00  0.00    +0.000 A 
ENDBRANCH  20  21
ENDBRANCH  19  20
ENDBRANCH  18  19
ENDBRANCH   7  18
TORSDOF 6
ENDMDL
MODEL 3
REMARK VINA RESULT:      -7.7      0.812      1.062
REMARK  Name = 
REMARK  6 active torsions:
REMARK  status: ('A' for Active; 'I' for Inactive)
REMARK    1  A    between atoms: C_2  and  C_3
REMARK    2  A    between atoms: C_7  and  C_8
REMARK    3  A    between atoms: N_15  and  C_16
REMARK    4  A    between atoms: C_16  and  C_17
REMARK    5  A    between atoms: C_17  and  C_18
REMARK    6  A    between atoms: C_18  and  C_19
REMARK                            x       y       z     vdW  Elec       q    Type
REMARK                         _______ _______ _______ _____ _____    ______ ____
ROOT
ATOM      1  O   UNL     1       5.184   3.092  19.835  0.00  0.00    +0.000 OA
ATOM      2  C   UNL     1       4.627   3.939  19.138  0.00  0.00    +0.000 C 
ATOM      3  N   UNL     1       5.263   5.151  18.811  0.00  0.00    +0.000 N 
ATOM      4  C   UNL     1       6.632   5.369  19.259  0.00  0.00    +0.000 C 
ATOM      5  C   UNL     1       7.690   5.325  18.160  0.00  0.00    +0.000 C 
ATOM      6  C   UNL     1       7.422   6.049  16.835  0.00  0.00    +0.000 C 
ATOM      7  N   UNL     1       6.516   7.193  16.799  0.00  0.00    +0.000 NA
ATOM      8  C   UNL     1       5.104   6.792  16.894  0.00  0.00    +0.000 C 
ATOM      9  C   UNL     1       4.584   6.337  18.266  0.00  0.00    +0.000 C 
ENDROOT
BRANCH   2  10
ATOM     10  C   UNL     1       3.272   3.693  18.628  0.00  0.00    +0.000 A 
ATOM     11  N   UNL     1       2.973   3.492  17.284  0.00  0.00    +0.000 NA
ATOM     12  C   UNL     1       1.675   3.298  17.273  0.00  0.00    +0.000 A 
ATOM     13  O   UNL     1       1.078   3.327  18.487  0.00  0.00    +0.000 OA
ATOM     14  C   UNL     1       2.098   3.582  19.366  0.00  0.00    +0.000 A 
BRANCH  14  15
ATOM     15  C   UNL     1       1.880   3.770  20.861  0.00  0.00    +0.000 C 
ATOM     16  C   UNL     1       1.059   2.685  21.543  0.00  0.00    +0.000 C 
ATOM     17  C   UNL     1       2.512   2.794  21.835  0.00  0.00    +0.000 C 
ENDBRANCH  14  15
ENDBRANCH   2  10
BRANCH   7  18
ATOM     18  C   UNL     1       6.885   8.345  17.620  0.00  0.00    +0.000 C 
BRANCH  18  19
ATOM     19  C   UNL     1       8.387   8.649  17.603  0.00  0.00    +0.000 C 
BRANCH  19  20
ATOM     20  C   UNL     1       8.796   9.540  18.780  0.00  0.00    +0.000 C 
BRANCH  20  21
ATOM     21  C   UNL     1       9.357  10.860  18.314  0.00  0.00    +0.000 A 
ATOM     22  C   UNL     1       8.488  11.891  17.929  0.00  0.00    +0.000 A 
ATOM     23  C   UNL     1       8.998  13.116  17.499  0.00  0.00    +0.000 A 
ATOM     24  C   UNL     1      10.375  13.316  17.446  0.00  0.00    +0.000 A 
ATOM     25  C   UNL     1      11.246  12.291  17.816  0.00  0.00    +0.000 A 
ATOM     26  C   UNL     1      10.738  11.064  18.247  0.00  0.00    +0.000 A 
ENDBRANCH  20  21
ENDBRANCH  19  20
ENDBRANCH  18  19
ENDBRANCH   7  18
TORSDOF 6
ENDMDL
MODEL 4
REMARK VINA RESULT:      -7.2      1.592      2.390
REMARK  Name = 
REMARK  6 active torsions:
REMARK  status: ('A' for Active; 'I' for Inactive)
REMARK    1  A    between atoms: C_2  and  C_3
REMARK    2  A    between atoms: C_7  and  C_8
REMARK    3  A    between atoms: N_15  and  C_16
REMARK    4  A    between atoms: C_16  and  C_17
REMARK    5  A    between atoms: C_17  and  C_18
REMARK    6  A    between atoms: C_18  and  C_19
REMARK                            x       y       z     vdW  Elec       q    Type
REMARK                         _______ _______ _______ _____ _____    ______ ____
ROOT
ATOM      1  O   UNL     1       4.104   1.668  18.024  0.00  0.00    +0.000 OA
ATOM      2  C   UNL     1       4.103   2.716  18.671  0.00  0.00    +0.000 C 
ATOM      3  N   UNL     1       4.960   3.781  18.339  0.00  0.00    +0.000 N 
ATOM      4  C   UNL     1       5.816   3.656  17.167  0.00  0.00    +0.000 C 
ATOM      5  C   UNL     1       5.418   4.524  15.976  0.00  0.00    +0.000 C 
ATOM      6  C   UNL     1       5.023   5.985  16.215  0.00  0.00    +0.000 C 
ATOM      7  N   UNL     1       5.542   6.701  17.377  0.00  0.00    +0.000 NA
ATOM      8  C   UNL     1       4.883   6.292  18.627  0.00  0.00    +0.000 C 
ATOM      9  C   UNL     1       5.259   4.924  19.216  0.00  0.00    +0.000 C 
ENDROOT
BRANCH   2  10
ATOM     10  C   UNL     1       3.192   2.870  19.812  0.00  0.00    +0.000 A 
ATOM     11  N   UNL     1       3.502   2.479  21.111  0.00  0.00    +0.000 NA
ATOM     12  C   UNL     1       2.436   2.805  21.804  0.00  0.00    +0.000 A 
ATOM     13  O   UNL     1       1.448   3.399  21.096  0.00  0.00    +0.000 OA
ATOM     14  C   UNL     1       1.925   3.445  19.812  0.00  0.00    +0.000 A 
BRANCH  14  15
ATOM     15  C   UNL     1       1.112   3.979  18.641  0.00  0.00    +0.000 C 
ATOM     16  C   UNL     1       1.614   5.284  18.039  0.00  0.00    +0.000 C 
ATOM     17  C   UNL     1       1.735   4.025  17.259  0.00  0.00    +0.000 C 
ENDBRANCH  14  15
ENDBRANCH   2  10
BRANCH   7  18
ATOM     18  C   UNL     1       6.995   6.838  17.465  0.00  0.00    +0.000 C 
BRANCH  18  19
ATOM     19  C   UNL     1       7.467   8.295  17.522  0.00  0.00    +0.000 C 
BRANCH  19  20
ATOM     20  C   UNL     1       8.569   8.491  18.568  0.00  0.00    +0.000 C 
BRANCH  20  21
ATOM     21  C   UNL     1       8.938   9.944  18.727  0.00  0.00    +0.000 A 
ATOM     22  C   UNL     1       9.621  10.370  19.875  0.00  0.00    +0.000 A 
ATOM     23  C   UNL     1       9.969  11.712  20.029  0.00  0.00    +0.000 A 
ATOM     24  C   UNL     1       9.634  12.634  19.041  0.00  0.00    +0.000 A 
ATOM     25  C   UNL     1       8.945  12.220  17.901  0.00  0.00    +0.000 A 
ATOM     26  C   UNL     1       8.595  10.878  17.745  0.00  0.00    +0.000 A 
ENDBRANCH  20  21
ENDBRANCH  19  20
ENDBRANCH  18  19
ENDBRANCH   7  18
TORSDOF 6
ENDMDL
MODEL 5
REMARK VINA RESULT:      -7.0      4.387      7.239
REMARK  Name = 
REMARK  6 active torsions:
REMARK  status: ('A' for Active; 'I' for Inactive)
REMARK    1  A    between atoms: C_2  and  C_3
REMARK    2  A    between atoms: C_7  and  C_8
REMARK    3  A    between atoms: N_15  and  C_16
REMARK    4  A    between atoms: C_16  and  C_17
REMARK    5  A    between atoms: C_17  and  C_18
REMARK    6  A    between atoms: C_18  and  C_19
REMARK                            x       y       z     vdW  Elec       q    Type
REMARK                         _______ _______ _______ _____ _____    ______ ____
ROOT
ATOM      1  O   UNL     1       3.975   2.959  18.133  0.00  0.00    +0.000 OA
ATOM      2  C   UNL     1       4.426   4.075  17.880  0.00  0.00    +0.000 C 
ATOM      3  N   UNL     1       3.589   5.204  17.805  0.00  0.00    +0.000 N 
ATOM      4  C   UNL     1       2.171   5.047  18.097  0.00  0.00    +0.000 C 
ATOM      5  C   UNL     1       1.707   5.658  19.417  0.00  0.00    +0.000 C 
ATOM      6  C   UNL     1       2.197   7.058  19.804  0.00  0.00    +0.000 C 
ATOM      7  N   UNL     1       2.589   8.008  18.767  0.00  0.00    +0.000 NA
ATOM      8  C   UNL     1       3.897   7.685  18.177  0.00  0.00    +0.000 C 
ATOM      9  C   UNL     1       3.969   6.495  17.210  0.00  0.00    +0.000 C 
ENDROOT
BRANCH   2  10
ATOM     10  C   UNL     1       5.867   4.248  17.651  0.00  0.00    +0.000 A 
ATOM     11  N   UNL     1       6.774   4.597  18.647  0.00  0.00    +0.000 NA
ATOM     12  C   UNL     1       7.930   4.629  18.026  0.00  0.00    +0.000 A 
ATOM     13  O   UNL     1       7.887   4.312  16.712  0.00  0.00    +0.000 OA
ATOM     14  C   UNL     1       6.562   4.067  16.460  0.00  0.00    +0.000 A 
BRANCH  14  15
ATOM     15  C   UNL     1       6.027   3.734  15.075  0.00  0.00    +0.000 C 
ATOM     16  C   UNL     1       5.489   4.916  14.281  0.00  0.00    +0.000 C 
ATOM     17  C   UNL     1       6.751   4.258  13.849  0.00  0.00    +0.000 C 
ENDBRANCH  14  15
ENDBRANCH   2  10
BRANCH   7  18
ATOM     18  C   UNL     1       1.556   8.384  17.803  0.00  0.00    +0.000 C 
BRANCH  18  19
ATOM     19  C   UNL     1       0.869   9.714  18.135  0.00  0.00    +0.000 C 
BRANCH  19  20
ATOM     20  C   UNL     1      -0.512   9.495  18.761  0.00  0.00    +0.000 C 
BRANCH  20  21
ATOM     21  C   UNL     1      -0.578  10.028  20.170  0.00  0.00    +0.000 A 
ATOM     22  C   UNL     1      -0.294   9.181  21.251  0.00  0.00    +0.000 A 
ATOM     23  C   UNL     1      -0.351   9.667  22.557  0.00  0.00    +0.000 A 
ATOM     24  C   UNL     1      -0.696  10.995  22.791  0.00  0.00    +0.000 A 
ATOM     25  C   UNL     1      -0.991  11.840  21.722  0.00  0.00    +0.000 A 
ATOM     26  C   UNL     1      -0.935  11.357  20.413  0.00  0.00    +0.000 A 
ENDBRANCH  20  21
ENDBRANCH  19  20
ENDBRANCH  18  19
ENDBRANCH   7  18
TORSDOF 6
ENDMDL
MODEL 6
REMARK VINA RESULT:      -7.0      4.431      7.513
REMARK  Name = 
REMARK  6 active torsions:
REMARK  status: ('A' for Active; 'I' for Inactive)
REMARK    1  A    between atoms: C_2  and  C_3
REMARK    2  A    between atoms: C_7  and  C_8
REMARK    3  A    between atoms: N_15  and  C_16
REMARK    4  A    between atoms: C_16  and  C_17
REMARK    5  A    between atoms: C_17  and  C_18
REMARK    6  A    between atoms: C_18  and  C_19
REMARK                            x       y       z     vdW  Elec       q    Type
REMARK                         _______ _______ _______ _____ _____    ______ ____
ROOT
ATOM      1  O   UNL     1       3.621   3.277  16.188  0.00  0.00    +0.000 OA
ATOM      2  C   UNL     1       4.058   4.092  17.000  0.00  0.00    +0.000 C 
ATOM      3  N   UNL     1       3.202   4.775  17.884  0.00  0.00    +0.000 N 
ATOM      4  C   UNL     1       1.781   4.457  17.873  0.00  0.00    +0.000 C 
ATOM      5  C   UNL     1       1.278   3.686  19.090  0.00  0.00    +0.000 C 
ATOM      6  C   UNL     1       1.735   4.116  20.489  0.00  0.00    +0.000 C 
ATOM      7  N   UNL     1       2.132   5.500  20.733  0.00  0.00    +0.000 NA
ATOM      8  C   UNL     1       3.459   5.808  20.178  0.00  0.00    +0.000 C 
ATOM      9  C   UNL     1       3.572   5.973  18.655  0.00  0.00    +0.000 C 
ENDROOT
BRANCH   2  10
ATOM     10  C   UNL     1       5.499   4.365  17.060  0.00  0.00    +0.000 A 
ATOM     11  N   UNL     1       6.254   4.300  18.227  0.00  0.00    +0.000 NA
ATOM     12  C   UNL     1       7.471   4.596  17.835  0.00  0.00    +0.000 A 
ATOM     13  O   UNL     1       7.609   4.832  16.510  0.00  0.00    +0.000 OA
ATOM     14  C   UNL     1       6.344   4.687  16.002  0.00  0.00    +0.000 A 
BRANCH  14  15
ATOM     15  C   UNL     1       6.003   4.929  14.538  0.00  0.00    +0.000 C 
ATOM     16  C   UNL     1       7.161   4.773  13.563  0.00  0.00    +0.000 C 
ATOM     17  C   UNL     1       6.062   3.772  13.558  0.00  0.00    +0.000 C 
ENDBRANCH  14  15
ENDBRANCH   2  10
BRANCH   7  18
ATOM     18  C   UNL     1       1.114   6.523  20.498  0.00  0.00    +0.000 C 
BRANCH  18  19
ATOM     19  C   UNL     1       1.528   7.916  20.986  0.00  0.00    +0.000 C 
BRANCH  19  20
ATOM     20  C   UNL     1       0.828   9.023  20.192  0.00  0.00    +0.000 C 
BRANCH  20  21
ATOM     21  C   UNL     1       0.029   9.935  21.087  0.00  0.00    +0.000 A 
ATOM     22  C   UNL     1      -0.249   9.550  22.407  0.00  0.00    +0.000 A 
ATOM     23  C   UNL     1      -0.984  10.390  23.243  0.00  0.00    +0.000 A 
ATOM     24  C   UNL     1      -1.450  11.612  22.766  0.00  0.00    +0.000 A 
ATOM     25  C   UNL     1      -1.187  11.997  21.452  0.00  0.00    +0.000 A 
ATOM     26  C   UNL     1      -0.452  11.159  20.612  0.00  0.00    +0.000 A 
ENDBRANCH  20  21
ENDBRANCH  19  20
ENDBRANCH  18  19
ENDBRANCH   7  18
TORSDOF 6
ENDMDL
MODEL 7
REMARK VINA RESULT:      -6.9      5.007      8.050
REMARK  Name = 
REMARK  6 active torsions:
REMARK  status: ('A' for Active; 'I' for Inactive)
REMARK    1  A    between atoms: C_2  and  C_3
REMARK    2  A    between atoms: C_7  and  C_8
REMARK    3  A    between atoms: N_15  and  C_16
REMARK    4  A    between atoms: C_16  and  C_17
REMARK    5  A    between atoms: C_17  and  C_18
REMARK    6  A    between atoms: C_18  and  C_19
REMARK                            x       y       z     vdW  Elec       q    Type
REMARK                         _______ _______ _______ _____ _____    ______ ____
ROOT
ATOM      1  O   UNL     1       4.079   3.289  19.391  0.00  0.00    +0.000 OA
ATOM      2  C   UNL     1       4.360   4.356  18.847  0.00  0.00    +0.000 C 
ATOM      3  N   UNL     1       3.388   5.353  18.645  0.00  0.00    +0.000 N 
ATOM      4  C   UNL     1       2.041   5.133  19.151  0.00  0.00    +0.000 C 
ATOM      5  C   UNL     1       1.653   5.982  20.359  0.00  0.00    +0.000 C 
ATOM      6  C   UNL     1       2.009   7.473  20.370  0.00  0.00    +0.000 C 
ATOM      7  N   UNL     1       2.165   8.195  19.110  0.00  0.00    +0.000 NA
ATOM      8  C   UNL     1       3.431   7.873  18.434  0.00  0.00    +0.000 C 
ATOM      9  C   UNL     1       3.541   6.505  17.743  0.00  0.00    +0.000 C 
ENDROOT
BRANCH   2  10
ATOM     10  C   UNL     1       5.735   4.607  18.397  0.00  0.00    +0.000 A 
ATOM     11  N   UNL     1       6.776   4.969  19.246  0.00  0.00    +0.000 NA
ATOM     12  C   UNL     1       7.813   5.079  18.449  0.00  0.00    +0.000 A 
ATOM     13  O   UNL     1       7.571   4.802  17.147  0.00  0.00    +0.000 OA
ATOM     14  C   UNL     1       6.235   4.498  17.103  0.00  0.00    +0.000 A 
BRANCH  14  15
ATOM     15  C   UNL     1       5.496   4.183  15.810  0.00  0.00    +0.000 C 
ATOM     16  C   UNL     1       5.664   5.207  14.696  0.00  0.00    +0.000 C 
ATOM     17  C   UNL     1       6.289   3.865  14.556  0.00  0.00    +0.000 C 
ENDBRANCH  14  15
ENDBRANCH   2  10
BRANCH   7  18
ATOM     18  C   UNL     1       0.996   8.244  18.235  0.00  0.00    +0.000 C 
BRANCH  18  19
ATOM     19  C   UNL     1       0.624   9.664  17.793  0.00  0.00    +0.000 C 
BRANCH  19  20
ATOM     20  C   UNL     1      -0.451  10.274  18.697  0.00  0.00    +0.000 C 
BRANCH  20  21
ATOM     21  C   UNL     1      -1.761  10.447  17.971  0.00  0.00    +0.000 A 
ATOM     22  C   UNL     1      -1.953   9.838  16.722  0.00  0.00    +0.000 A 
ATOM     23  C   UNL     1      -3.163   9.990  16.045  0.00  0.00    +0.000 A 
ATOM     24  C   UNL     1      -4.182  10.754  16.606  0.00  0.00    +0.000 A 
ATOM     25  C   UNL     1      -3.995  11.373  17.842  0.00  0.00    +0.000 A 
ATOM     26  C   UNL     1      -2.785  11.222  18.523  0.00  0.00    +0.000 A 
ENDBRANCH  20  21
ENDBRANCH  19  20
ENDBRANCH  18  19
ENDBRANCH   7  18
TORSDOF 6
ENDMDL
MODEL 8
REMARK VINA RESULT:      -6.9      4.778      7.767
REMARK  Name = 
REMARK  6 active torsions:
REMARK  status: ('A' for Active; 'I' for Inactive)
REMARK    1  A    between atoms: C_2  and  C_3
REMARK    2  A    between atoms: C_7  and  C_8
REMARK    3  A    between atoms: N_15  and  C_16
REMARK    4  A    between atoms: C_16  and  C_17
REMARK    5  A    between atoms: C_17  and  C_18
REMARK    6  A    between atoms: C_18  and  C_19
REMARK                            x       y       z     vdW  Elec       q    Type
REMARK                         _______ _______ _______ _____ _____    ______ ____
ROOT
ATOM      1  O   UNL     1       4.058   2.789  17.447  0.00  0.00    +0.000 OA
ATOM      2  C   UNL     1       4.441   3.958  17.432  0.00  0.00    +0.000 C 
ATOM      3  N   UNL     1       3.538   5.026  17.587  0.00  0.00    +0.000 N 
ATOM      4  C   UNL     1       2.134   4.729  17.832  0.00  0.00    +0.000 C 
ATOM      5  C   UNL     1       1.644   5.027  19.247  0.00  0.00    +0.000 C 
ATOM      6  C   UNL     1       2.054   6.343  19.918  0.00  0.00    +0.000 C 
ATOM      7  N   UNL     1       2.381   7.508  19.101  0.00  0.00    +0.000 NA
ATOM      8  C   UNL     1       3.703   7.392  18.465  0.00  0.00    +0.000 C 
ATOM      9  C   UNL     1       3.837   6.432  17.273  0.00  0.00    +0.000 C 
ENDROOT
BRANCH   2  10
ATOM     10  C   UNL     1       5.867   4.259  17.252  0.00  0.00    +0.000 A 
ATOM     11  N   UNL     1       6.803   4.227  18.281  0.00  0.00    +0.000 NA
ATOM     12  C   UNL     1       7.933   4.540  17.692  0.00  0.00    +0.000 A 
ATOM     13  O   UNL     1       7.848   4.756  16.360  0.00  0.00    +0.000 OA
ATOM     14  C   UNL     1       6.521   4.579  16.067  0.00  0.00    +0.000 A 
BRANCH  14  15
ATOM     15  C   UNL     1       5.941   4.790  14.675  0.00  0.00    +0.000 C 
ATOM     16  C   UNL     1       6.880   4.470  13.521  0.00  0.00    +0.000 C 
ATOM     17  C   UNL     1       5.708   3.592  13.774  0.00  0.00    +0.000 C 
ENDBRANCH  14  15
ENDBRANCH   2  10
BRANCH   7  18
ATOM     18  C   UNL     1       1.322   8.013  18.230  0.00  0.00    +0.000 C 
BRANCH  18  19
ATOM     19  C   UNL     1       1.396   9.527  17.996  0.00  0.00    +0.000 C 
BRANCH  19  20
ATOM     20  C   UNL     1       0.553  10.298  19.016  0.00  0.00    +0.000 C 
BRANCH  20  21
ATOM     21  C   UNL     1      -0.844  10.550  18.511  0.00  0.00    +0.000 A 
ATOM     22  C   UNL     1      -1.300   9.894  17.359  0.00  0.00    +0.000 A 
ATOM     23  C   UNL     1      -2.593  10.119  16.887  0.00  0.00    +0.000 A 
ATOM     24  C   UNL     1      -3.433  11.004  17.557  0.00  0.00    +0.000 A 
ATOM     25  C   UNL     1      -2.984  11.669  18.697  0.00  0.00    +0.000 A 
ATOM     26  C   UNL     1      -1.690  11.446  19.172  0.00  0.00    +0.000 A 
ENDBRANCH  20  21
ENDBRANCH  19  20
ENDBRANCH  18  19
ENDBRANCH   7  18
TORSDOF 6
ENDMDL
MODEL 9
REMARK VINA RESULT:      -6.9      3.731      6.887
REMARK  Name = 
REMARK  6 active torsions:
REMARK  status: ('A' for Active; 'I' for Inactive)
REMARK    1  A    between atoms: C_2  and  C_3
REMARK    2  A    between atoms: C_7  and  C_8
REMARK    3  A    between atoms: N_15  and  C_16
REMARK    4  A    between atoms: C_16  and  C_17
REMARK    5  A    between atoms: C_17  and  C_18
REMARK    6  A    between atoms: C_18  and  C_19
REMARK                            x       y       z     vdW  Elec       q    Type
REMARK                         _______ _______ _______ _____ _____    ______ ____
ROOT
ATOM      1  O   UNL     1       3.548   6.189  19.422  0.00  0.00    +0.000 OA
ATOM      2  C   UNL     1       4.073   5.202  18.908  0.00  0.00    +0.000 C 
ATOM      3  N   UNL     1       4.772   5.296  17.690  0.00  0.00    +0.000 N 
ATOM      4  C   UNL     1       4.925   6.603  17.067  0.00  0.00    +0.000 C 
ATOM      5  C   UNL     1       6.335   7.187  17.117  0.00  0.00    +0.000 C 
ATOM      6  C   UNL     1       7.530   6.281  16.797  0.00  0.00    +0.000 C 
ATOM      7  N   UNL     1       7.354   5.118  15.932  0.00  0.00    +0.000 NA
ATOM      8  C   UNL     1       6.666   4.012  16.615  0.00  0.00    +0.000 C 
ATOM      9  C   UNL     1       5.155   4.150  16.850  0.00  0.00    +0.000 C 
ENDROOT
BRANCH   2  10
ATOM     10  C   UNL     1       3.979   3.895  19.570  0.00  0.00    +0.000 A 
ATOM     11  N   UNL     1       5.079   3.170  20.019  0.00  0.00    +0.000 NA
ATOM     12  C   UNL     1       4.554   2.091  20.549  0.00  0.00    +0.000 A 
ATOM     13  O   UNL     1       3.202   2.033  20.519  0.00  0.00    +0.000 OA
ATOM     14  C   UNL     1       2.823   3.190  19.889  0.00  0.00    +0.000 A 
BRANCH  14  15
ATOM     15  C   UNL     1       1.373   3.526  19.570  0.00  0.00    +0.000 C 
ATOM     16  C   UNL     1       1.017   3.547  18.090  0.00  0.00    +0.000 C 
ATOM     17  C   UNL     1       0.479   2.465  18.955  0.00  0.00    +0.000 C 
ENDBRANCH  14  15
ENDBRANCH   2  10
BRANCH   7  18
ATOM     18  C   UNL     1       6.894   5.382  14.570  0.00  0.00    +0.000 C 
BRANCH  18  19
ATOM     19  C   UNL     1       7.979   5.165  13.508  0.00  0.00    +0.000 C 
BRANCH  19  20
ATOM     20  C   UNL     1       7.386   5.124  12.096  0.00  0.00    +0.000 C 
BRANCH  20  21
ATOM     21  C   UNL     1       6.798   3.773  11.775  0.00  0.00    +0.000 A 
ATOM     22  C   UNL     1       7.641   2.714  11.408  0.00  0.00    +0.000 A 
ATOM     23  C   UNL     1       7.105   1.461  11.112  0.00  0.00    +0.000 A 
ATOM     24  C   UNL     1       5.729   1.260  11.175  0.00  0.00    +0.000 A 
ATOM     25  C   UNL     1       4.884   2.312  11.528  0.00  0.00    +0.000 A 
ATOM     26  C   UNL     1       5.416   3.567  11.824  0.00  0.00    +0.000 A 
ENDBRANCH  20  21
ENDBRANCH  19  20
ENDBRANCH  18  19
ENDBRANCH   7  18
TORSDOF 6
ENDMDL
