MODEL 1
REMARK VINA RESULT:      -8.1      0.000      0.000
REMARK  Name = 
REMARK  4 active torsions:
REMARK  status: ('A' for Active; 'I' for Inactive)
REMARK    1  A    between atoms: C_1  and  C_2
REMARK    2  A    between atoms: C_5  and  S_6
REMARK    3  A    between atoms: S_6  and  N_9
REMARK    4  A    between atoms: C_23  and  C_24
REMARK                            x       y       z     vdW  Elec       q    Type
REMARK                         _______ _______ _______ _____ _____    ______ ____
ROOT
ATOM      1  N   UNL     1       4.372   5.513  18.994  0.00  0.00    +0.000 NA
ATOM      2  C   UNL     1       4.564   6.605  17.988  0.00  0.00    +0.000 C 
ATOM      3  C   UNL     1       3.235   7.013  17.332  0.00  0.00    +0.000 C 
ATOM      4  N   UNL     1       2.264   7.385  18.372  0.00  0.00    +0.000 N 
ATOM      5  C   UNL     1       1.859   8.705  18.408  0.00  0.00    +0.000 C 
ATOM      6  O   UNL     1       2.075   9.419  17.419  0.00  0.00    +0.000 OA
ATOM      7  N   UNL     1       1.251   9.262  19.519  0.00  0.00    +0.000 N 
ATOM      8  C   UNL     1       0.588  10.567  19.331  0.00  0.00    +0.000 C 
ATOM      9  C   UNL     1       0.699  11.487  20.548  0.00  0.00    +0.000 C 
ATOM     10  C   UNL     1       0.231  10.787  21.813  0.00  0.00    +0.000 C 
ATOM     11  C   UNL     1       1.032   9.517  22.007  0.00  0.00    +0.000 C 
ATOM     12  C   UNL     1       0.978   8.607  20.789  0.00  0.00    +0.000 C 
ATOM     13  C   UNL     1       1.974   6.225  19.228  0.00  0.00    +0.000 C 
ATOM     14  C   UNL     1       3.251   5.755  19.947  0.00  0.00    +0.000 C 
ENDROOT
BRANCH   1  15
ATOM     15  S   UNL     1       4.636   3.928  18.467  0.00  0.00    +0.000 S 
ATOM     16  O   UNL     1       3.344   3.375  18.113  0.00  0.00    +0.000 OA
ATOM     17  O   UNL     1       5.507   3.242  19.398  0.00  0.00    +0.000 OA
BRANCH  15  22
ATOM     18  C   UNL     1       7.587   5.156  13.281  0.00  0.00    +0.000 C 
ATOM     19  C   UNL     1       6.878   4.799  14.553  0.00  0.00    +0.000 A 
ATOM     20  C   UNL     1       5.566   4.323  14.542  0.00  0.00    +0.000 A 
ATOM     21  C   UNL     1       4.910   4.031  15.739  0.00  0.00    +0.000 A 
ATOM     22  C   UNL     1       5.566   4.219  16.966  0.00  0.00    +0.000 A 
ATOM     23  C   UNL     1       6.900   4.667  17.000  0.00  0.00    +0.000 A 
ATOM     24  C   UNL     1       7.720   4.879  18.248  0.00  0.00    +0.000 C 
ATOM     25  C   UNL     1       7.537   4.955  15.780  0.00  0.00    +0.000 A 
ENDBRANCH  15  22
ENDBRANCH   1  15
TORSDOF 2
ENDMDL
MODEL 2
REMARK VINA RESULT:      -7.6      3.724      9.034
REMARK  Name = 
REMARK  4 active torsions:
REMARK  status: ('A' for Active; 'I' for Inactive)
REMARK    1  A    between atoms: C_1  and  C_2
REMARK    2  A    between atoms: C_5  and  S_6
REMARK    3  A    between atoms: S_6  and  N_9
REMARK    4  A    between atoms: C_23  and  C_24
REMARK                            x       y       z     vdW  Elec       q    Type
REMARK                         _______ _______ _______ _____ _____    ______ ____
ROOT
ATOM      1  N   UNL     1       0.377   9.871  19.423  0.00  0.00    +0.000 NA
ATOM      2  C   UNL     1       0.953   9.553  18.078  0.00  0.00    +0.000 C 
ATOM      3  C   UNL     1       2.369   8.966  18.193  0.00  0.00    +0.000 C 
ATOM      4  N   UNL     1       2.347   7.790  19.075  0.00  0.00    +0.000 N 
ATOM      5  C   UNL     1       2.630   6.567  18.497  0.00  0.00    +0.000 C 
ATOM      6  O   UNL     1       3.173   6.548  17.384  0.00  0.00    +0.000 OA
ATOM      7  N   UNL     1       2.300   5.368  19.104  0.00  0.00    +0.000 N 
ATOM      8  C   UNL     1       2.923   4.150  18.553  0.00  0.00    +0.000 C 
ATOM      9  C   UNL     1       2.009   2.925  18.596  0.00  0.00    +0.000 C 
ATOM     10  C   UNL     1       1.454   2.699  19.994  0.00  0.00    +0.000 C 
ATOM     11  C   UNL     1       0.728   3.947  20.449  0.00  0.00    +0.000 C 
ATOM     12  C   UNL     1       1.603   5.190  20.368  0.00  0.00    +0.000 C 
ATOM     13  C   UNL     1       1.944   8.186  20.433  0.00  0.00    +0.000 C 
ATOM     14  C   UNL     1       0.521   8.772  20.420  0.00  0.00    +0.000 C 
ENDROOT
BRANCH   1  15
ATOM     15  S   UNL     1       0.534  11.463  19.971  0.00  0.00    +0.000 S 
ATOM     16  O   UNL     1       0.939  12.267  18.836  0.00  0.00    +0.000 OA
ATOM     17  O   UNL     1       1.292  11.483  21.204  0.00  0.00    +0.000 OA
BRANCH  15  22
ATOM     18  C   UNL     1      -5.149  13.077  21.460  0.00  0.00    +0.000 C 
ATOM     19  C   UNL     1      -3.765  12.625  21.102  0.00  0.00    +0.000 A 
ATOM     20  C   UNL     1      -2.786  12.444  22.080  0.00  0.00    +0.000 A 
ATOM     21  C   UNL     1      -1.494  12.058  21.722  0.00  0.00    +0.000 A 
ATOM     22  C   UNL     1      -1.167  11.853  20.372  0.00  0.00    +0.000 A 
ATOM     23  C   UNL     1      -2.146  11.998  19.371  0.00  0.00    +0.000 A 
ATOM     24  C   UNL     1      -1.928  11.778  17.896  0.00  0.00    +0.000 C 
ATOM     25  C   UNL     1      -3.441  12.389  19.758  0.00  0.00    +0.000 A 
ENDBRANCH  15  22
ENDBRANCH   1  15
TORSDOF 2
ENDMDL
MODEL 3
REMARK VINA RESULT:      -7.4      5.051      8.166
REMARK  Name = 
REMARK  4 active torsions:
REMARK  status: ('A' for Active; 'I' for Inactive)
REMARK    1  A    between atoms: C_1  and  C_2
REMARK    2  A    between atoms: C_5  and  S_6
REMARK    3  A    between atoms: S_6  and  N_9
REMARK    4  A    between atoms: C_23  and  C_24
REMARK                            x       y       z     vdW  Elec       q    Type
REMARK                         _______ _______ _______ _____ _____    ______ ____
ROOT
ATOM      1  N   UNL     1      -0.739  11.177  20.844  0.00  0.00    +0.000 NA
ATOM      2  C   UNL     1      -0.895  11.277  22.330  0.00  0.00    +0.000 C 
ATOM      3  C   UNL     1      -1.475  12.638  22.749  0.00  0.00    +0.000 C 
ATOM      4  N   UNL     1      -2.744  12.872  22.043  0.00  0.00    +0.000 N 
ATOM      5  C   UNL     1      -3.890  12.920  22.814  0.00  0.00    +0.000 C 
ATOM      6  O   UNL     1      -3.776  13.072  24.037  0.00  0.00    +0.000 OA
ATOM      7  N   UNL     1      -5.154  12.774  22.269  0.00  0.00    +0.000 N 
ATOM      8  C   UNL     1      -6.295  13.153  23.124  0.00  0.00    +0.000 C 
ATOM      9  C   UNL     1      -7.527  12.271  22.922  0.00  0.00    +0.000 C 
ATOM     10  C   UNL     1      -7.916  12.194  21.454  0.00  0.00    +0.000 C 
ATOM     11  C   UNL     1      -6.736  11.688  20.652  0.00  0.00    +0.000 C 
ATOM     12  C   UNL     1      -5.483  12.521  20.875  0.00  0.00    +0.000 C 
ATOM     13  C   UNL     1      -2.509  12.942  20.593  0.00  0.00    +0.000 C 
ATOM     14  C   UNL     1      -1.942  11.608  20.077  0.00  0.00    +0.000 C 
ENDROOT
BRANCH   1  15
ATOM     15  S   UNL     1       0.783  11.544  20.205  0.00  0.00    +0.000 S 
ATOM     16  O   UNL     1       1.634  11.920  21.315  0.00  0.00    +0.000 OA
ATOM     17  O   UNL     1       0.633  12.412  19.056  0.00  0.00    +0.000 OA
BRANCH  15  22
ATOM     18  C   UNL     1       2.814   6.212  18.069  0.00  0.00    +0.000 C 
ATOM     19  C   UNL     1       2.260   7.507  18.583  0.00  0.00    +0.000 A 
ATOM     20  C   UNL     1       2.032   8.587  17.729  0.00  0.00    +0.000 A 
ATOM     21  C   UNL     1       1.551   9.796  18.233  0.00  0.00    +0.000 A 
ATOM     22  C   UNL     1       1.297   9.936  19.607  0.00  0.00    +0.000 A 
ATOM     23  C   UNL     1       1.488   8.851  20.482  0.00  0.00    +0.000 A 
ATOM     24  C   UNL     1       1.224   8.867  21.966  0.00  0.00    +0.000 C 
ATOM     25  C   UNL     1       1.975   7.643  19.949  0.00  0.00    +0.000 A 
ENDBRANCH  15  22
ENDBRANCH   1  15
TORSDOF 2
ENDMDL
MODEL 4
REMARK VINA RESULT:      -7.3      3.653      8.820
REMARK  Name = 
REMARK  4 active torsions:
REMARK  status: ('A' for Active; 'I' for Inactive)
REMARK    1  A    between atoms: C_1  and  C_2
REMARK    2  A    between atoms: C_5  and  S_6
REMARK    3  A    between atoms: S_6  and  N_9
REMARK    4  A    between atoms: C_23  and  C_24
REMARK                            x       y       z     vdW  Elec       q    Type
REMARK                         _______ _______ _______ _____ _____    ______ ____
ROOT
ATOM      1  N   UNL     1       0.550   9.671  19.435  0.00  0.00    +0.000 NA
ATOM      2  C   UNL     1       1.133   9.374  18.088  0.00  0.00    +0.000 C 
ATOM      3  C   UNL     1       2.535   8.753  18.202  0.00  0.00    +0.000 C 
ATOM      4  N   UNL     1       2.477   7.556  19.055  0.00  0.00    +0.000 N 
ATOM      5  C   UNL     1       2.739   6.342  18.449  0.00  0.00    +0.000 C 
ATOM      6  O   UNL     1       3.293   6.338  17.341  0.00  0.00    +0.000 OA
ATOM      7  N   UNL     1       2.375   5.136  19.022  0.00  0.00    +0.000 N 
ATOM      8  C   UNL     1       2.978   3.917  18.447  0.00  0.00    +0.000 C 
ATOM      9  C   UNL     1       2.036   2.712  18.451  0.00  0.00    +0.000 C 
ATOM     10  C   UNL     1       1.462   2.465  19.837  0.00  0.00    +0.000 C 
ATOM     11  C   UNL     1       0.759   3.717  20.316  0.00  0.00    +0.000 C 
ATOM     12  C   UNL     1       1.662   4.941  20.274  0.00  0.00    +0.000 C 
ATOM     13  C   UNL     1       2.068   7.927  20.417  0.00  0.00    +0.000 C 
ATOM     14  C   UNL     1       0.659   8.544  20.406  0.00  0.00    +0.000 C 
ENDROOT
BRANCH   1  15
ATOM     15  S   UNL     1       0.736  11.245  20.024  0.00  0.00    +0.000 S 
ATOM     16  O   UNL     1       1.488  11.986  19.032  0.00  0.00    +0.000 OA
ATOM     17  O   UNL     1       1.168  11.202  21.405  0.00  0.00    +0.000 OA
BRANCH  15  22
ATOM     18  C   UNL     1      -5.133  12.880  19.958  0.00  0.00    +0.000 C 
ATOM     19  C   UNL     1      -3.676  12.526  19.944  0.00  0.00    +0.000 A 
ATOM     20  C   UNL     1      -3.118  11.796  18.894  0.00  0.00    +0.000 A 
ATOM     21  C   UNL     1      -1.767  11.444  18.917  0.00  0.00    +0.000 A 
ATOM     22  C   UNL     1      -0.960  11.818  20.003  0.00  0.00    +0.000 A 
ATOM     23  C   UNL     1      -1.493  12.582  21.058  0.00  0.00    +0.000 A 
ATOM     24  C   UNL     1      -0.725  13.069  22.261  0.00  0.00    +0.000 C 
ATOM     25  C   UNL     1      -2.857  12.923  21.011  0.00  0.00    +0.000 A 
ENDBRANCH  15  22
ENDBRANCH   1  15
TORSDOF 2
ENDMDL
MODEL 5
REMARK VINA RESULT:      -7.2      4.423     10.485
REMARK  Name = 
REMARK  4 active torsions:
REMARK  status: ('A' for Active; 'I' for Inactive)
REMARK    1  A    between atoms: C_1  and  C_2
REMARK    2  A    between atoms: C_5  and  S_6
REMARK    3  A    between atoms: S_6  and  N_9
REMARK    4  A    between atoms: C_23  and  C_24
REMARK                            x       y       z     vdW  Elec       q    Type
REMARK                         _______ _______ _______ _____ _____    ______ ____
ROOT
ATOM      1  N   UNL     1      -1.140  11.448  20.819  0.00  0.00    +0.000 NA
ATOM      2  C   UNL     1      -1.020  11.408  19.327  0.00  0.00    +0.000 C 
ATOM      3  C   UNL     1       0.450  11.381  18.876  0.00  0.00    +0.000 C 
ATOM      4  N   UNL     1       1.142  10.252  19.515  0.00  0.00    +0.000 N 
ATOM      5  C   UNL     1       1.586   9.239  18.687  0.00  0.00    +0.000 C 
ATOM      6  O   UNL     1       1.661   9.458  17.470  0.00  0.00    +0.000 OA
ATOM      7  N   UNL     1       1.918   7.984  19.166  0.00  0.00    +0.000 N 
ATOM      8  C   UNL     1       2.667   7.100  18.253  0.00  0.00    +0.000 C 
ATOM      9  C   UNL     1       2.295   5.623  18.394  0.00  0.00    +0.000 C 
ATOM     10  C   UNL     1       2.395   5.165  19.840  0.00  0.00    +0.000 C 
ATOM     11  C   UNL     1       1.512   6.042  20.703  0.00  0.00    +0.000 C 
ATOM     12  C   UNL     1       1.830   7.521  20.542  0.00  0.00    +0.000 C 
ATOM     13  C   UNL     1       1.152  10.428  20.975  0.00  0.00    +0.000 C 
ATOM     14  C   UNL     1      -0.286  10.448  21.523  0.00  0.00    +0.000 C 
ENDROOT
BRANCH   1  15
ATOM     15  S   UNL     1      -1.335  12.967  21.535  0.00  0.00    +0.000 S 
ATOM     16  O   UNL     1      -1.403  13.939  20.463  0.00  0.00    +0.000 OA
ATOM     17  O   UNL     1      -0.388  13.121  22.620  0.00  0.00    +0.000 OA
BRANCH  15  22
ATOM     18  C   UNL     1      -6.828  12.664  24.154  0.00  0.00    +0.000 C 
ATOM     19  C   UNL     1      -5.475  12.681  23.508  0.00  0.00    +0.000 A 
ATOM     20  C   UNL     1      -4.307  12.631  24.271  0.00  0.00    +0.000 A 
ATOM     21  C   UNL     1      -3.057  12.685  23.653  0.00  0.00    +0.000 A 
ATOM     22  C   UNL     1      -2.965  12.795  22.257  0.00  0.00    +0.000 A 
ATOM     23  C   UNL     1      -4.128  12.814  21.464  0.00  0.00    +0.000 A 
ATOM     24  C   UNL     1      -4.159  12.899  19.960  0.00  0.00    +0.000 C 
ATOM     25  C   UNL     1      -5.375  12.759  22.112  0.00  0.00    +0.000 A 
ENDBRANCH  15  22
ENDBRANCH   1  15
TORSDOF 2
ENDMDL
MODEL 6
REMARK VINA RESULT:      -7.2      3.802      9.283
REMARK  Name = 
REMARK  4 active torsions:
REMARK  status: ('A' for Active; 'I' for Inactive)
REMARK    1  A    between atoms: C_1  and  C_2
REMARK    2  A    between atoms: C_5  and  S_6
REMARK    3  A    between atoms: S_6  and  N_9
REMARK    4  A    between atoms: C_23  and  C_24
REMARK                            x       y       z     vdW  Elec       q    Type
REMARK                         _______ _______ _______ _____ _____    ______ ____
ROOT
ATOM      1  N   UNL     1      -0.122   9.770  20.674  0.00  0.00    +0.000 NA
ATOM      2  C   UNL     1       0.414   9.850  19.278  0.00  0.00    +0.000 C 
ATOM      3  C   UNL     1       1.879   9.389  19.205  0.00  0.00    +0.000 C 
ATOM      4  N   UNL     1       1.999   8.035  19.766  0.00  0.00    +0.000 N 
ATOM      5  C   UNL     1       2.357   7.025  18.894  0.00  0.00    +0.000 C 
ATOM      6  O   UNL     1       2.845   7.332  17.798  0.00  0.00    +0.000 OA
ATOM      7  N   UNL     1       2.160   5.687  19.190  0.00  0.00    +0.000 N 
ATOM      8  C   UNL     1       2.858   4.707  18.337  0.00  0.00    +0.000 C 
ATOM      9  C   UNL     1       2.054   3.428  18.097  0.00  0.00    +0.000 C 
ATOM     10  C   UNL     1       1.589   2.814  19.407  0.00  0.00    +0.000 C 
ATOM     11  C   UNL     1       0.782   3.837  20.179  0.00  0.00    +0.000 C 
ATOM     12  C   UNL     1       1.543   5.138  20.387  0.00  0.00    +0.000 C 
ATOM     13  C   UNL     1       1.630   8.045  21.190  0.00  0.00    +0.000 C 
ATOM     14  C   UNL     1       0.164   8.477  21.361  0.00  0.00    +0.000 C 
ENDROOT
BRANCH   1  15
ATOM     15  S   UNL     1      -0.075  11.186  21.598  0.00  0.00    +0.000 S 
ATOM     16  O   UNL     1       1.026  11.985  21.099  0.00  0.00    +0.000 OA
ATOM     17  O   UNL     1      -0.177  10.855  23.004  0.00  0.00    +0.000 OA
BRANCH  15  22
ATOM     18  C   UNL     1      -5.443  13.523  19.913  0.00  0.00    +0.000 C 
ATOM     19  C   UNL     1      -4.096  12.993  20.302  0.00  0.00    +0.000 A 
ATOM     20  C   UNL     1      -3.370  12.161  19.448  0.00  0.00    +0.000 A 
ATOM     21  C   UNL     1      -2.134  11.648  19.844  0.00  0.00    +0.000 A 
ATOM     22  C   UNL     1      -1.613  11.961  21.109  0.00  0.00    +0.000 A 
ATOM     23  C   UNL     1      -2.312  12.823  21.975  0.00  0.00    +0.000 A 
ATOM     24  C   UNL     1      -1.845  13.257  23.341  0.00  0.00    +0.000 C 
ATOM     25  C   UNL     1      -3.556  13.326  21.552  0.00  0.00    +0.000 A 
ENDBRANCH  15  22
ENDBRANCH   1  15
TORSDOF 2
ENDMDL
MODEL 7
REMARK VINA RESULT:      -7.2      4.132      9.416
REMARK  Name = 
REMARK  4 active torsions:
REMARK  status: ('A' for Active; 'I' for Inactive)
REMARK    1  A    between atoms: C_1  and  C_2
REMARK    2  A    between atoms: C_5  and  S_6
REMARK    3  A    between atoms: S_6  and  N_9
REMARK    4  A    between atoms: C_23  and  C_24
REMARK                            x       y       z     vdW  Elec       q    Type
REMARK                         _______ _______ _______ _____ _____    ______ ____
ROOT
ATOM      1  N   UNL     1      -0.808  10.227  19.434  0.00  0.00    +0.000 NA
ATOM      2  C   UNL     1      -0.074  10.102  18.135  0.00  0.00    +0.000 C 
ATOM      3  C   UNL     1       1.443   9.985  18.351  0.00  0.00    +0.000 C 
ATOM      4  N   UNL     1       1.729   8.861  19.256  0.00  0.00    +0.000 N 
ATOM      5  C   UNL     1       2.415   7.786  18.725  0.00  0.00    +0.000 C 
ATOM      6  O   UNL     1       3.009   7.935  17.648  0.00  0.00    +0.000 OA
ATOM      7  N   UNL     1       2.434   6.545  19.336  0.00  0.00    +0.000 N 
ATOM      8  C   UNL     1       3.440   5.580  18.853  0.00  0.00    +0.000 C 
ATOM      9  C   UNL     1       2.950   4.132  18.867  0.00  0.00    +0.000 C 
ATOM     10  C   UNL     1       2.402   3.748  20.232  0.00  0.00    +0.000 C 
ATOM     11  C   UNL     1       1.295   4.709  20.613  0.00  0.00    +0.000 C 
ATOM     12  C   UNL     1       1.745   6.161  20.558  0.00  0.00    +0.000 C 
ATOM     13  C   UNL     1       1.134   9.115  20.577  0.00  0.00    +0.000 C 
ATOM     14  C   UNL     1      -0.396   9.229  20.463  0.00  0.00    +0.000 C 
ENDROOT
BRANCH   1  15
ATOM     15  S   UNL     1      -1.190  11.790  19.955  0.00  0.00    +0.000 S 
ATOM     16  O   UNL     1      -0.367  12.706  19.193  0.00  0.00    +0.000 OA
ATOM     17  O   UNL     1      -1.207  11.832  21.402  0.00  0.00    +0.000 OA
BRANCH  15  22
ATOM     18  C   UNL     1      -6.980  11.950  18.065  0.00  0.00    +0.000 C 
ATOM     19  C   UNL     1      -5.544  11.956  18.495  0.00  0.00    +0.000 A 
ATOM     20  C   UNL     1      -4.572  11.247  17.787  0.00  0.00    +0.000 A 
ATOM     21  C   UNL     1      -3.247  11.235  18.225  0.00  0.00    +0.000 A 
ATOM     22  C   UNL     1      -2.882  11.933  19.387  0.00  0.00    +0.000 A 
ATOM     23  C   UNL     1      -3.838  12.680  20.100  0.00  0.00    +0.000 A 
ATOM     24  C   UNL     1      -3.566  13.492  21.341  0.00  0.00    +0.000 C 
ATOM     25  C   UNL     1      -5.167  12.675  19.638  0.00  0.00    +0.000 A 
ENDBRANCH  15  22
ENDBRANCH   1  15
TORSDOF 2
ENDMDL
MODEL 8
REMARK VINA RESULT:      -7.1      1.460      2.148
REMARK  Name = 
REMARK  4 active torsions:
REMARK  status: ('A' for Active; 'I' for Inactive)
REMARK    1  A    between atoms: C_1  and  C_2
REMARK    2  A    between atoms: C_5  and  S_6
REMARK    3  A    between atoms: S_6  and  N_9
REMARK    4  A    between atoms: C_23  and  C_24
REMARK                            x       y       z     vdW  Elec       q    Type
REMARK                         _______ _______ _______ _____ _____    ______ ____
ROOT
ATOM      1  N   UNL     1       3.050   4.399  18.152  0.00  0.00    +0.000 NA
ATOM      2  C   UNL     1       1.967   4.260  19.177  0.00  0.00    +0.000 C 
ATOM      3  C   UNL     1       2.248   5.120  20.419  0.00  0.00    +0.000 C 
ATOM      4  N   UNL     1       2.451   6.520  20.016  0.00  0.00    +0.000 N 
ATOM      5  C   UNL     1       1.509   7.437  20.442  0.00  0.00    +0.000 C 
ATOM      6  O   UNL     1       0.743   7.118  21.361  0.00  0.00    +0.000 OA
ATOM      7  N   UNL     1       1.373   8.684  19.856  0.00  0.00    +0.000 N 
ATOM      8  C   UNL     1       0.564   9.678  20.586  0.00  0.00    +0.000 C 
ATOM      9  C   UNL     1      -0.240  10.602  19.670  0.00  0.00    +0.000 C 
ATOM     10  C   UNL     1       0.651  11.250  18.623  0.00  0.00    +0.000 C 
ATOM     11  C   UNL     1       1.361  10.170  17.834  0.00  0.00    +0.000 C 
ATOM     12  C   UNL     1       2.128   9.208  18.729  0.00  0.00    +0.000 C 
ATOM     13  C   UNL     1       3.635   6.629  19.151  0.00  0.00    +0.000 C 
ATOM     14  C   UNL     1       3.435   5.810  17.864  0.00  0.00    +0.000 C 
ENDROOT
BRANCH   1  15
ATOM     15  S   UNL     1       4.272   3.230  18.162  0.00  0.00    +0.000 S 
ATOM     16  O   UNL     1       3.668   1.978  17.751  0.00  0.00    +0.000 OA
ATOM     17  O   UNL     1       5.026   3.322  19.394  0.00  0.00    +0.000 OA
BRANCH  15  22
ATOM     18  C   UNL     1       7.582   5.421  13.540  0.00  0.00    +0.000 C 
ATOM     19  C   UNL     1       6.799   4.834  14.676  0.00  0.00    +0.000 A 
ATOM     20  C   UNL     1       5.686   4.024  14.447  0.00  0.00    +0.000 A 
ATOM     21  C   UNL     1       4.949   3.517  15.518  0.00  0.00    +0.000 A 
ATOM     22  C   UNL     1       5.320   3.823  16.837  0.00  0.00    +0.000 A 
ATOM     23  C   UNL     1       6.457   4.611  17.093  0.00  0.00    +0.000 A 
ATOM     24  C   UNL     1       6.973   4.984  18.460  0.00  0.00    +0.000 C 
ATOM     25  C   UNL     1       7.182   5.111  15.996  0.00  0.00    +0.000 A 
ENDBRANCH  15  22
ENDBRANCH   1  15
TORSDOF 2
ENDMDL
MODEL 9
REMARK VINA RESULT:      -7.0      2.710      8.377
REMARK  Name = 
REMARK  4 active torsions:
REMARK  status: ('A' for Active; 'I' for Inactive)
REMARK    1  A    between atoms: C_1  and  C_2
REMARK    2  A    between atoms: C_5  and  S_6
REMARK    3  A    between atoms: S_6  and  N_9
REMARK    4  A    between atoms: C_23  and  C_24
REMARK                            x       y       z     vdW  Elec       q    Type
REMARK                         _______ _______ _______ _____ _____    ______ ____
ROOT
ATOM      1  N   UNL     1       1.559   9.421  19.194  0.00  0.00    +0.000 NA
ATOM      2  C   UNL     1       1.810   8.547  20.384  0.00  0.00    +0.000 C 
ATOM      3  C   UNL     1       1.643   7.058  20.039  0.00  0.00    +0.000 C 
ATOM      4  N   UNL     1       2.514   6.712  18.906  0.00  0.00    +0.000 N 
ATOM      5  C   UNL     1       3.548   5.831  19.157  0.00  0.00    +0.000 C 
ATOM      6  O   UNL     1       3.514   5.156  20.195  0.00  0.00    +0.000 OA
ATOM      7  N   UNL     1       4.633   5.701  18.307  0.00  0.00    +0.000 N 
ATOM      8  C   UNL     1       5.500   4.525  18.510  0.00  0.00    +0.000 C 
ATOM      9  C   UNL     1       6.979   4.805  18.238  0.00  0.00    +0.000 C 
ATOM     10  C   UNL     1       7.179   5.431  16.868  0.00  0.00    +0.000 C 
ATOM     11  C   UNL     1       6.351   6.695  16.771  0.00  0.00    +0.000 C 
ATOM     12  C   UNL     1       4.882   6.451  17.086  0.00  0.00    +0.000 C 
ATOM     13  C   UNL     1       2.113   7.470  17.711  0.00  0.00    +0.000 C 
ATOM     14  C   UNL     1       2.266   8.981  17.957  0.00  0.00    +0.000 C 
ENDROOT
BRANCH   1  15
ATOM     15  S   UNL     1       0.006  10.070  19.031  0.00  0.00    +0.000 S 
ATOM     16  O   UNL     1      -0.724   9.740  20.237  0.00  0.00    +0.000 OA
ATOM     17  O   UNL     1      -0.527   9.740  17.725  0.00  0.00    +0.000 OA
BRANCH  15  22
ATOM     18  C   UNL     1       1.373  16.002  18.768  0.00  0.00    +0.000 C 
ATOM     19  C   UNL     1       1.043  14.544  18.890  0.00  0.00    +0.000 A 
ATOM     20  C   UNL     1       2.044  13.571  18.882  0.00  0.00    +0.000 A 
ATOM     21  C   UNL     1       1.713  12.218  18.960  0.00  0.00    +0.000 A 
ATOM     22  C   UNL     1       0.368  11.824  19.041  0.00  0.00    +0.000 A 
ATOM     23  C   UNL     1      -0.656  12.788  19.083  0.00  0.00    +0.000 A 
ATOM     24  C   UNL     1      -2.130  12.494  19.198  0.00  0.00    +0.000 C 
ATOM     25  C   UNL     1      -0.296  14.146  19.002  0.00  0.00    +0.000 A 
ENDBRANCH  15  22
ENDBRANCH   1  15
TORSDOF 2
ENDMDL
