MODEL 1
REMARK VINA RESULT:      -8.2      0.000      0.000
REMARK  Name = 
REMARK  13 active torsions:
REMARK  status: ('A' for Active; 'I' for Inactive)
REMARK    1  A    between atoms: C_1  and  C_2
REMARK    2  A    between atoms: C_2  and  C_3
REMARK    3  A    between atoms: C_3  and  C_4
REMARK    4  A    between atoms: C_4  and  C_5
REMARK    5  A    between atoms: C_5  and  O_6
REMARK    6  A    between atoms: C_5  and  C_24
REMARK    7  A    between atoms: O_6  and  C_7
REMARK    8  A    between atoms: C_9  and  O_10
REMARK    9  A    between atoms: C_11  and  C_12
REMARK   10  A    between atoms: C_12  and  O_14
REMARK   11  A    between atoms: C_16  and  C_17
REMARK   12  A    between atoms: C_18  and  C_19
REMARK   13  A    between atoms: N_26  and  C_27
REMARK                            x       y       z     vdW  Elec       q    Type
REMARK                         _______ _______ _______ _____ _____    ______ ____
ROOT
ATOM      1  O   UNL     1       6.071   5.770  17.276  0.00  0.00    +0.000 OA
ENDROOT
BRANCH   1   2
ATOM      2  C   UNL     1       6.206   5.029  16.114  0.00  0.00    +0.000 A 
ATOM      3  C   UNL     1       7.138   5.351  15.126  0.00  0.00    +0.000 A 
ATOM      4  C   UNL     1       7.079   4.755  13.871  0.00  0.00    +0.000 A 
ATOM      5  C   UNL     1       6.176   3.728  13.589  0.00  0.00    +0.000 A 
ATOM      6  C   UNL     1       5.341   3.280  14.620  0.00  0.00    +0.000 A 
ATOM      7  C   UNL     1       5.329   3.953  15.865  0.00  0.00    +0.000 A 
BRANCH   4   8
ATOM      8  O   UNL     1       7.914   5.303  12.934  0.00  0.00    +0.000 OA
ATOM      9  H   UNL     1       8.734   4.761  12.921  0.00  0.00    +0.000 HD
ENDBRANCH   4   8
BRANCH   5  10
ATOM     10  C   UNL     1       6.048   3.273  12.180  0.00  0.00    +0.000 C 
ATOM     11  O   UNL     1       7.030   2.893  11.557  0.00  0.00    +0.000 OA
BRANCH  10  12
ATOM     12  O   UNL     1       4.815   3.314  11.646  0.00  0.00    +0.000 OA
ATOM     13  H   UNL     1       4.140   2.748  12.061  0.00  0.00    +0.000 HD
ENDBRANCH  10  12
ENDBRANCH   5  10
BRANCH   7  14
ATOM     14  C   UNL     1       4.417   3.471  16.872  0.00  0.00    +0.000 C 
ATOM     15  C   UNL     1       3.624   3.053  17.652  0.00  0.00    +0.000 C 
BRANCH  15  16
ATOM     16  C   UNL     1       2.648   2.506  18.613  0.00  0.00    +0.000 C 
ATOM     17  C   UNL     1       3.070   2.711  20.060  0.00  0.00    +0.000 C 
ATOM     18  C   UNL     1       1.774   2.495  20.824  0.00  0.00    +0.000 C 
ATOM     19  C   UNL     1       0.706   3.149  19.955  0.00  0.00    +0.000 C 
ATOM     20  C   UNL     1       1.278   3.193  18.534  0.00  0.00    +0.000 C 
ENDBRANCH  15  16
ENDBRANCH   7  14
ENDBRANCH   1   2
BRANCH   1  21
ATOM     21  C   UNL     1       5.313   6.984  17.177  0.00  0.00    +0.000 C 
BRANCH  21  22
ATOM     22  C   UNL     1       4.003   7.101  18.032  0.00  0.00    +0.000 C 
ATOM     23  O   UNL     1       3.636   6.179  18.757  0.00  0.00    +0.000 OA
ATOM     24  N   UNL     1       3.304   8.273  17.833  0.00  0.00    +0.000 N 
ATOM     25  H   UNL     1       3.590   8.804  17.019  0.00  0.00    +0.000 HD
BRANCH  24  26
ATOM     26  C   UNL     1       2.086   8.654  18.429  0.00  0.00    +0.000 A 
ATOM     27  C   UNL     1       1.117   9.496  17.865  0.00  0.00    +0.000 A 
ATOM     28  C   UNL     1       0.104  10.042  18.676  0.00  0.00    +0.000 A 
ATOM     29  C   UNL     1       0.077   9.734  20.035  0.00  0.00    +0.000 A 
ATOM     30  C   UNL     1       0.903   8.723  20.513  0.00  0.00    +0.000 A 
ATOM     31  C   UNL     1       1.902   8.187  19.727  0.00  0.00    +0.000 A 
ATOM     32  O   UNL     1       0.855   8.307  21.813  0.00  0.00    +0.000 OA
ATOM     33  C   UNL     1       0.881   9.495  22.589  0.00  0.00    +0.000 C 
ATOM     34  C   UNL     1      -0.322  10.382  22.267  0.00  0.00    +0.000 C 
ATOM     35  O   UNL     1      -0.693  10.489  20.875  0.00  0.00    +0.000 OA
ENDBRANCH  24  26
ENDBRANCH  21  22
BRANCH  21  36
ATOM     36  C   UNL     1       6.161   8.196  17.609  0.00  0.00    +0.000 C 
BRANCH  36  37
ATOM     37  C   UNL     1       7.687   8.051  17.622  0.00  0.00    +0.000 C 
BRANCH  37  39
ATOM     38  C   UNL     1       9.074   9.649  19.098  0.00  0.00    +0.000 C 
ATOM     39  C   UNL     1       8.288   9.455  17.813  0.00  0.00    +0.000 C 
ENDBRANCH  37  39
ENDBRANCH  36  37
ENDBRANCH  21  36
ENDBRANCH   1  21
TORSDOF 12
ENDMDL
MODEL 2
REMARK VINA RESULT:      -8.2      4.157      9.730
REMARK  Name = 
REMARK  13 active torsions:
REMARK  status: ('A' for Active; 'I' for Inactive)
REMARK    1  A    between atoms: C_1  and  C_2
REMARK    2  A    between atoms: C_2  and  C_3
REMARK    3  A    between atoms: C_3  and  C_4
REMARK    4  A    between atoms: C_4  and  C_5
REMARK    5  A    between atoms: C_5  and  O_6
REMARK    6  A    between atoms: C_5  and  C_24
REMARK    7  A    between atoms: O_6  and  C_7
REMARK    8  A    between atoms: C_9  and  O_10
REMARK    9  A    between atoms: C_11  and  C_12
REMARK   10  A    between atoms: C_12  and  O_14
REMARK   11  A    between atoms: C_16  and  C_17
REMARK   12  A    between atoms: C_18  and  C_19
REMARK   13  A    between atoms: N_26  and  C_27
REMARK                            x       y       z     vdW  Elec       q    Type
REMARK                         _______ _______ _______ _____ _____    ______ ____
ROOT
ATOM      1  O   UNL     1       1.381  11.842  19.766  0.00  0.00    +0.000 OA
ENDROOT
BRANCH   1   2
ATOM      2  C   UNL     1       1.774  13.010  19.136  0.00  0.00    +0.000 A 
ATOM      3  C   UNL     1       2.976  13.112  18.434  0.00  0.00    +0.000 A 
ATOM      4  C   UNL     1       3.464  14.353  18.035  0.00  0.00    +0.000 A 
ATOM      5  C   UNL     1       2.719  15.521  18.204  0.00  0.00    +0.000 A 
ATOM      6  C   UNL     1       1.439  15.415  18.761  0.00  0.00    +0.000 A 
ATOM      7  C   UNL     1       0.984  14.172  19.260  0.00  0.00    +0.000 A 
BRANCH   4   8
ATOM      8  O   UNL     1       4.741  14.337  17.543  0.00  0.00    +0.000 OA
ATOM      9  H   UNL     1       4.758  13.696  16.796  0.00  0.00    +0.000 HD
ENDBRANCH   4   8
BRANCH   5  10
ATOM     10  C   UNL     1       3.382  16.822  17.924  0.00  0.00    +0.000 C 
ATOM     11  O   UNL     1       4.392  17.149  18.531  0.00  0.00    +0.000 OA
BRANCH  10  12
ATOM     12  O   UNL     1       2.807  17.599  16.989  0.00  0.00    +0.000 OA
ATOM     13  H   UNL     1       3.349  18.326  16.632  0.00  0.00    +0.000 HD
ENDBRANCH  10  12
ENDBRANCH   5  10
BRANCH   7  14
ATOM     14  C   UNL     1      -0.326  14.135  19.860  0.00  0.00    +0.000 C 
ATOM     15  C   UNL     1      -1.392  14.042  20.376  0.00  0.00    +0.000 C 
BRANCH  15  16
ATOM     16  C   UNL     1      -2.702  13.929  21.043  0.00  0.00    +0.000 C 
ATOM     17  C   UNL     1      -3.583  12.849  20.433  0.00  0.00    +0.000 C 
ATOM     18  C   UNL     1      -4.629  12.617  21.510  0.00  0.00    +0.000 C 
ATOM     19  C   UNL     1      -3.855  12.703  22.820  0.00  0.00    +0.000 C 
ATOM     20  C   UNL     1      -2.592  13.517  22.517  0.00  0.00    +0.000 C 
ENDBRANCH  15  16
ENDBRANCH   7  14
ENDBRANCH   1   2
BRANCH   1  21
ATOM     21  C   UNL     1       0.729  10.860  18.946  0.00  0.00    +0.000 C 
BRANCH  21  22
ATOM     22  C   UNL     1       1.566   9.615  18.490  0.00  0.00    +0.000 C 
ATOM     23  O   UNL     1       2.089   9.577  17.379  0.00  0.00    +0.000 OA
ATOM     24  N   UNL     1       1.588   8.586  19.407  0.00  0.00    +0.000 N 
ATOM     25  H   UNL     1       0.900   8.661  20.147  0.00  0.00    +0.000 HD
BRANCH  24  26
ATOM     26  C   UNL     1       2.225   7.336  19.275  0.00  0.00    +0.000 A 
ATOM     27  C   UNL     1       2.914   6.874  18.145  0.00  0.00    +0.000 A 
ATOM     28  C   UNL     1       3.233   5.508  18.027  0.00  0.00    +0.000 A 
ATOM     29  C   UNL     1       2.857   4.629  19.042  0.00  0.00    +0.000 A 
ATOM     30  C   UNL     1       2.387   5.148  20.242  0.00  0.00    +0.000 A 
ATOM     31  C   UNL     1       2.067   6.485  20.365  0.00  0.00    +0.000 A 
ATOM     32  O   UNL     1       2.095   4.348  21.310  0.00  0.00    +0.000 OA
ATOM     33  C   UNL     1       1.305   3.292  20.783  0.00  0.00    +0.000 C 
ATOM     34  C   UNL     1       2.079   2.509  19.722  0.00  0.00    +0.000 C 
ATOM     35  O   UNL     1       2.879   3.284  18.801  0.00  0.00    +0.000 OA
ENDBRANCH  24  26
ENDBRANCH  21  22
BRANCH  21  36
ATOM     36  C   UNL     1      -0.487  10.258  19.677  0.00  0.00    +0.000 C 
BRANCH  36  37
ATOM     37  C   UNL     1      -0.685  10.590  21.160  0.00  0.00    +0.000 C 
BRANCH  37  39
ATOM     38  C   UNL     1      -0.049   9.539  23.429  0.00  0.00    +0.000 C 
ATOM     39  C   UNL     1      -0.394   9.312  21.968  0.00  0.00    +0.000 C 
ENDBRANCH  37  39
ENDBRANCH  36  37
ENDBRANCH  21  36
ENDBRANCH   1  21
TORSDOF 12
ENDMDL
MODEL 3
REMARK VINA RESULT:      -8.0      3.982      9.994
REMARK  Name = 
REMARK  13 active torsions:
REMARK  status: ('A' for Active; 'I' for Inactive)
REMARK    1  A    between atoms: C_1  and  C_2
REMARK    2  A    between atoms: C_2  and  C_3
REMARK    3  A    between atoms: C_3  and  C_4
REMARK    4  A    between atoms: C_4  and  C_5
REMARK    5  A    between atoms: C_5  and  O_6
REMARK    6  A    between atoms: C_5  and  C_24
REMARK    7  A    between atoms: O_6  and  C_7
REMARK    8  A    between atoms: C_9  and  O_10
REMARK    9  A    between atoms: C_11  and  C_12
REMARK   10  A    between atoms: C_12  and  O_14
REMARK   11  A    between atoms: C_16  and  C_17
REMARK   12  A    between atoms: C_18  and  C_19
REMARK   13  A    between atoms: N_26  and  C_27
REMARK                            x       y       z     vdW  Elec       q    Type
REMARK                         _______ _______ _______ _____ _____    ______ ____
ROOT
ATOM      1  O   UNL     1       1.372  11.619  19.935  0.00  0.00    +0.000 OA
ENDROOT
BRANCH   1   2
ATOM      2  C   UNL     1       1.594  12.921  19.520  0.00  0.00    +0.000 A 
ATOM      3  C   UNL     1       2.388  13.228  18.414  0.00  0.00    +0.000 A 
ATOM      4  C   UNL     1       2.801  14.535  18.175  0.00  0.00    +0.000 A 
ATOM      5  C   UNL     1       2.339  15.602  18.948  0.00  0.00    +0.000 A 
ATOM      6  C   UNL     1       1.413  15.331  19.962  0.00  0.00    +0.000 A 
ATOM      7  C   UNL     1       1.072  13.994  20.272  0.00  0.00    +0.000 A 
BRANCH   4   8
ATOM      8  O   UNL     1       3.738  14.670  17.186  0.00  0.00    +0.000 OA
ATOM      9  H   UNL     1       4.377  15.357  17.481  0.00  0.00    +0.000 HD
ENDBRANCH   4   8
BRANCH   5  10
ATOM     10  C   UNL     1       2.966  16.935  18.750  0.00  0.00    +0.000 C 
ATOM     11  O   UNL     1       3.332  17.600  19.710  0.00  0.00    +0.000 OA
BRANCH  10  12
ATOM     12  O   UNL     1       3.095  17.355  17.479  0.00  0.00    +0.000 OA
ATOM     13  H   UNL     1       2.379  17.115  16.865  0.00  0.00    +0.000 HD
ENDBRANCH  10  12
ENDBRANCH   5  10
BRANCH   7  14
ATOM     14  C   UNL     1       0.144  13.778  21.355  0.00  0.00    +0.000 C 
ATOM     15  C   UNL     1      -0.607  13.533  22.242  0.00  0.00    +0.000 C 
BRANCH  15  16
ATOM     16  C   UNL     1      -1.516  13.224  23.361  0.00  0.00    +0.000 C 
ATOM     17  C   UNL     1      -2.256  14.450  23.875  0.00  0.00    +0.000 C 
ATOM     18  C   UNL     1      -3.404  13.845  24.666  0.00  0.00    +0.000 C 
ATOM     19  C   UNL     1      -3.843  12.641  23.843  0.00  0.00    +0.000 C 
ATOM     20  C   UNL     1      -2.642  12.258  22.971  0.00  0.00    +0.000 C 
ENDBRANCH  15  16
ENDBRANCH   7  14
ENDBRANCH   1   2
BRANCH   1  21
ATOM     21  C   UNL     1       0.804  10.726  18.966  0.00  0.00    +0.000 C 
BRANCH  21  22
ATOM     22  C   UNL     1       1.740   9.636  18.337  0.00  0.00    +0.000 C 
ATOM     23  O   UNL     1       2.292   9.824  17.255  0.00  0.00    +0.000 OA
ATOM     24  N   UNL     1       1.815   8.470  19.068  0.00  0.00    +0.000 N 
ATOM     25  H   UNL     1       1.105   8.372  19.784  0.00  0.00    +0.000 HD
BRANCH  24  26
ATOM     26  C   UNL     1       2.545   7.307  18.751  0.00  0.00    +0.000 A 
ATOM     27  C   UNL     1       3.550   7.200  17.780  0.00  0.00    +0.000 A 
ATOM     28  C   UNL     1       3.978   5.930  17.350  0.00  0.00    +0.000 A 
ATOM     29  C   UNL     1       3.394   4.790  17.900  0.00  0.00    +0.000 A 
ATOM     30  C   UNL     1       2.575   4.925  19.015  0.00  0.00    +0.000 A 
ATOM     31  C   UNL     1       2.146   6.165  19.440  0.00  0.00    +0.000 A 
ATOM     32  O   UNL     1       2.052   3.841  19.660  0.00  0.00    +0.000 OA
ATOM     33  C   UNL     1       1.511   3.019  18.637  0.00  0.00    +0.000 C 
ATOM     34  C   UNL     1       2.599   2.583  17.655  0.00  0.00    +0.000 C 
ATOM     35  O   UNL     1       3.571   3.585  17.280  0.00  0.00    +0.000 OA
ENDBRANCH  24  26
ENDBRANCH  21  22
BRANCH  21  36
ATOM     36  C   UNL     1      -0.361   9.924  19.578  0.00  0.00    +0.000 C 
BRANCH  36  37
ATOM     37  C   UNL     1      -0.788  10.238  21.016  0.00  0.00    +0.000 C 
BRANCH  37  39
ATOM     38  C   UNL     1       0.081   9.479  23.324  0.00  0.00    +0.000 C 
ATOM     39  C   UNL     1      -0.306   9.081  21.910  0.00  0.00    +0.000 C 
ENDBRANCH  37  39
ENDBRANCH  36  37
ENDBRANCH  21  36
ENDBRANCH   1  21
TORSDOF 12
ENDMDL
MODEL 4
REMARK VINA RESULT:      -8.0      2.943      7.434
REMARK  Name = 
REMARK  13 active torsions:
REMARK  status: ('A' for Active; 'I' for Inactive)
REMARK    1  A    between atoms: C_1  and  C_2
REMARK    2  A    between atoms: C_2  and  C_3
REMARK    3  A    between atoms: C_3  and  C_4
REMARK    4  A    between atoms: C_4  and  C_5
REMARK    5  A    between atoms: C_5  and  O_6
REMARK    6  A    between atoms: C_5  and  C_24
REMARK    7  A    between atoms: O_6  and  C_7
REMARK    8  A    between atoms: C_9  and  O_10
REMARK    9  A    between atoms: C_11  and  C_12
REMARK   10  A    between atoms: C_12  and  O_14
REMARK   11  A    between atoms: C_16  and  C_17
REMARK   12  A    between atoms: C_18  and  C_19
REMARK   13  A    between atoms: N_26  and  C_27
REMARK                            x       y       z     vdW  Elec       q    Type
REMARK                         _______ _______ _______ _____ _____    ______ ____
ROOT
ATOM      1  O   UNL     1       4.857   6.920  17.055  0.00  0.00    +0.000 OA
ENDROOT
BRANCH   1   2
ATOM      2  C   UNL     1       4.398   6.123  18.091  0.00  0.00    +0.000 A 
ATOM      3  C   UNL     1       5.046   4.948  18.474  0.00  0.00    +0.000 A 
ATOM      4  C   UNL     1       4.430   4.043  19.332  0.00  0.00    +0.000 A 
ATOM      5  C   UNL     1       3.207   4.328  19.942  0.00  0.00    +0.000 A 
ATOM      6  C   UNL     1       2.620   5.575  19.695  0.00  0.00    +0.000 A 
ATOM      7  C   UNL     1       3.192   6.452  18.744  0.00  0.00    +0.000 A 
BRANCH   4   8
ATOM      8  O   UNL     1       5.078   2.845  19.464  0.00  0.00    +0.000 OA
ATOM      9  H   UNL     1       4.390   2.142  19.493  0.00  0.00    +0.000 HD
ENDBRANCH   4   8
BRANCH   5  10
ATOM     10  C   UNL     1       2.529   3.241  20.695  0.00  0.00    +0.000 C 
ATOM     11  O   UNL     1       2.335   3.344  21.899  0.00  0.00    +0.000 OA
BRANCH  10  12
ATOM     12  O   UNL     1       2.159   2.161  19.986  0.00  0.00    +0.000 OA
ATOM     13  H   UNL     1       2.234   2.227  19.017  0.00  0.00    +0.000 HD
ENDBRANCH  10  12
ENDBRANCH   5  10
BRANCH   7  14
ATOM     14  C   UNL     1       2.517   7.703  18.503  0.00  0.00    +0.000 C 
ATOM     15  C   UNL     1       1.902   8.699  18.299  0.00  0.00    +0.000 C 
BRANCH  15  16
ATOM     16  C   UNL     1       1.127   9.933  18.074  0.00  0.00    +0.000 C 
ATOM     17  C   UNL     1      -0.040  10.080  19.039  0.00  0.00    +0.000 C 
ATOM     18  C   UNL     1      -0.389  11.555  18.925  0.00  0.00    +0.000 C 
ATOM     19  C   UNL     1       0.958  12.259  18.816  0.00  0.00    +0.000 C 
ATOM     20  C   UNL     1       1.950  11.208  18.302  0.00  0.00    +0.000 C 
ENDBRANCH  15  16
ENDBRANCH   7  14
ENDBRANCH   1   2
BRANCH   1  21
ATOM     21  C   UNL     1       6.234   6.759  16.686  0.00  0.00    +0.000 C 
BRANCH  21  22
ATOM     22  C   UNL     1       7.319   7.440  17.592  0.00  0.00    +0.000 C 
ATOM     23  O   UNL     1       7.924   6.796  18.446  0.00  0.00    +0.000 OA
ATOM     24  N   UNL     1       7.459   8.794  17.379  0.00  0.00    +0.000 N 
ATOM     25  H   UNL     1       6.714   9.219  16.840  0.00  0.00    +0.000 HD
BRANCH  24  26
ATOM     26  C   UNL     1       8.324   9.681  18.052  0.00  0.00    +0.000 A 
ATOM     27  C   UNL     1       9.019   9.416  19.241  0.00  0.00    +0.000 A 
ATOM     28  C   UNL     1       9.596  10.475  19.967  0.00  0.00    +0.000 A 
ATOM     29  C   UNL     1       9.468  11.779  19.491  0.00  0.00    +0.000 A 
ATOM     30  C   UNL     1       8.981  11.981  18.205  0.00  0.00    +0.000 A 
ATOM     31  C   UNL     1       8.408  10.950  17.488  0.00  0.00    +0.000 A 
ATOM     32  O   UNL     1       8.923  13.225  17.643  0.00  0.00    +0.000 OA
ATOM     33  C   UNL     1       8.329  14.055  18.628  0.00  0.00    +0.000 C 
ATOM     34  C   UNL     1       9.175  14.082  19.901  0.00  0.00    +0.000 C 
ATOM     35  O   UNL     1       9.744  12.824  20.327  0.00  0.00    +0.000 OA
ENDBRANCH  24  26
ENDBRANCH  21  22
BRANCH  21  36
ATOM     36  C   UNL     1       6.627   5.269  16.671  0.00  0.00    +0.000 C 
BRANCH  36  37
ATOM     37  C   UNL     1       7.182   4.673  15.373  0.00  0.00    +0.000 C 
BRANCH  37  39
ATOM     38  C   UNL     1       6.123   3.750  13.209  0.00  0.00    +0.000 C 
ATOM     39  C   UNL     1       6.061   3.841  14.724  0.00  0.00    +0.000 C 
ENDBRANCH  37  39
ENDBRANCH  36  37
ENDBRANCH  21  36
ENDBRANCH   1  21
TORSDOF 12
ENDMDL
MODEL 5
REMARK VINA RESULT:      -7.9      2.226      5.690
REMARK  Name = 
REMARK  13 active torsions:
REMARK  status: ('A' for Active; 'I' for Inactive)
REMARK    1  A    between atoms: C_1  and  C_2
REMARK    2  A    between atoms: C_2  and  C_3
REMARK    3  A    between atoms: C_3  and  C_4
REMARK    4  A    between atoms: C_4  and  C_5
REMARK    5  A    between atoms: C_5  and  O_6
REMARK    6  A    between atoms: C_5  and  C_24
REMARK    7  A    between atoms: O_6  and  C_7
REMARK    8  A    between atoms: C_9  and  O_10
REMARK    9  A    between atoms: C_11  and  C_12
REMARK   10  A    between atoms: C_12  and  O_14
REMARK   11  A    between atoms: C_16  and  C_17
REMARK   12  A    between atoms: C_18  and  C_19
REMARK   13  A    between atoms: N_26  and  C_27
REMARK                            x       y       z     vdW  Elec       q    Type
REMARK                         _______ _______ _______ _____ _____    ______ ____
ROOT
ATOM      1  O   UNL     1       5.050   3.237  17.345  0.00  0.00    +0.000 OA
ENDROOT
BRANCH   1   2
ATOM      2  C   UNL     1       5.976   4.254  17.504  0.00  0.00    +0.000 A 
ATOM      3  C   UNL     1       6.426   4.665  18.759  0.00  0.00    +0.000 A 
ATOM      4  C   UNL     1       7.150   5.845  18.904  0.00  0.00    +0.000 A 
ATOM      5  C   UNL     1       7.564   6.590  17.799  0.00  0.00    +0.000 A 
ATOM      6  C   UNL     1       7.259   6.104  16.522  0.00  0.00    +0.000 A 
ATOM      7  C   UNL     1       6.436   4.963  16.375  0.00  0.00    +0.000 A 
BRANCH   4   8
ATOM      8  O   UNL     1       7.351   6.240  20.199  0.00  0.00    +0.000 OA
ATOM      9  H   UNL     1       8.323   6.294  20.340  0.00  0.00    +0.000 HD
ENDBRANCH   4   8
BRANCH   5  10
ATOM     10  C   UNL     1       8.168   7.926  18.041  0.00  0.00    +0.000 C 
ATOM     11  O   UNL     1       7.957   8.854  17.271  0.00  0.00    +0.000 OA
BRANCH  10  12
ATOM     12  O   UNL     1       8.949   8.044  19.129  0.00  0.00    +0.000 OA
ATOM     13  H   UNL     1       9.393   7.234  19.438  0.00  0.00    +0.000 HD
ENDBRANCH  10  12
ENDBRANCH   5  10
BRANCH   7  14
ATOM     14  C   UNL     1       6.125   4.536  15.034  0.00  0.00    +0.000 C 
ATOM     15  C   UNL     1       5.925   4.215  13.908  0.00  0.00    +0.000 C 
BRANCH  15  16
ATOM     16  C   UNL     1       5.699   3.797  12.512  0.00  0.00    +0.000 C 
ATOM     17  C   UNL     1       6.133   2.362  12.250  0.00  0.00    +0.000 C 
ATOM     18  C   UNL     1       5.422   2.026  10.950  0.00  0.00    +0.000 C 
ATOM     19  C   UNL     1       4.054   2.685  11.081  0.00  0.00    +0.000 C 
ATOM     20  C   UNL     1       4.217   3.805  12.115  0.00  0.00    +0.000 C 
ENDBRANCH  15  16
ENDBRANCH   7  14
ENDBRANCH   1   2
BRANCH   1  21
ATOM     21  C   UNL     1       3.919   3.257  18.228  0.00  0.00    +0.000 C 
BRANCH  21  22
ATOM     22  C   UNL     1       2.873   4.413  18.051  0.00  0.00    +0.000 C 
ATOM     23  O   UNL     1       1.963   4.324  17.231  0.00  0.00    +0.000 OA
ATOM     24  N   UNL     1       3.122   5.520  18.835  0.00  0.00    +0.000 N 
ATOM     25  H   UNL     1       4.045   5.546  19.252  0.00  0.00    +0.000 HD
BRANCH  24  26
ATOM     26  C   UNL     1       2.385   6.720  18.879  0.00  0.00    +0.000 A 
ATOM     27  C   UNL     1       2.384   7.727  17.903  0.00  0.00    +0.000 A 
ATOM     28  C   UNL     1       1.857   8.996  18.205  0.00  0.00    +0.000 A 
ATOM     29  C   UNL     1       1.338   9.235  19.476  0.00  0.00    +0.000 A 
ATOM     30  C   UNL     1       1.142   8.161  20.336  0.00  0.00    +0.000 A 
ATOM     31  C   UNL     1       1.661   6.915  20.051  0.00  0.00    +0.000 A 
ATOM     32  O   UNL     1       0.547   8.313  21.557  0.00  0.00    +0.000 OA
ATOM     33  C   UNL     1       1.194   9.427  22.154  0.00  0.00    +0.000 C 
ATOM     34  C   UNL     1       1.007  10.685  21.306  0.00  0.00    +0.000 C 
ATOM     35  O   UNL     1       1.116  10.524  19.874  0.00  0.00    +0.000 OA
ENDBRANCH  24  26
ENDBRANCH  21  22
BRANCH  21  36
ATOM     36  C   UNL     1       3.089   1.966  18.084  0.00  0.00    +0.000 C 
BRANCH  36  37
ATOM     37  C   UNL     1       1.970   1.701  19.098  0.00  0.00    +0.000 C 
BRANCH  37  39
ATOM     38  C   UNL     1       1.266   3.070  21.168  0.00  0.00    +0.000 C 
ATOM     39  C   UNL     1       2.383   2.352  20.430  0.00  0.00    +0.000 C 
ENDBRANCH  37  39
ENDBRANCH  36  37
ENDBRANCH  21  36
ENDBRANCH   1  21
TORSDOF 12
ENDMDL
MODEL 6
REMARK VINA RESULT:      -7.9      3.926     10.132
REMARK  Name = 
REMARK  13 active torsions:
REMARK  status: ('A' for Active; 'I' for Inactive)
REMARK    1  A    between atoms: C_1  and  C_2
REMARK    2  A    between atoms: C_2  and  C_3
REMARK    3  A    between atoms: C_3  and  C_4
REMARK    4  A    between atoms: C_4  and  C_5
REMARK    5  A    between atoms: C_5  and  O_6
REMARK    6  A    between atoms: C_5  and  C_24
REMARK    7  A    between atoms: O_6  and  C_7
REMARK    8  A    between atoms: C_9  and  O_10
REMARK    9  A    between atoms: C_11  and  C_12
REMARK   10  A    between atoms: C_12  and  O_14
REMARK   11  A    between atoms: C_16  and  C_17
REMARK   12  A    between atoms: C_18  and  C_19
REMARK   13  A    between atoms: N_26  and  C_27
REMARK                            x       y       z     vdW  Elec       q    Type
REMARK                         _______ _______ _______ _____ _____    ______ ____
ROOT
ATOM      1  O   UNL     1       1.331  11.543  19.738  0.00  0.00    +0.000 OA
ENDROOT
BRANCH   1   2
ATOM      2  C   UNL     1       1.556  12.809  19.223  0.00  0.00    +0.000 A 
ATOM      3  C   UNL     1       2.636  13.094  18.386  0.00  0.00    +0.000 A 
ATOM      4  C   UNL     1       2.983  14.409  18.096  0.00  0.00    +0.000 A 
ATOM      5  C   UNL     1       2.197  15.484  18.516  0.00  0.00    +0.000 A 
ATOM      6  C   UNL     1       1.019  15.206  19.220  0.00  0.00    +0.000 A 
ATOM      7  C   UNL     1       0.720  13.878  19.605  0.00  0.00    +0.000 A 
BRANCH   4   8
ATOM      8  O   UNL     1       4.175  14.558  17.439  0.00  0.00    +0.000 OA
ATOM      9  H   UNL     1       4.001  14.417  16.482  0.00  0.00    +0.000 HD
ENDBRANCH   4   8
BRANCH   5  10
ATOM     10  C   UNL     1       2.730  16.858  18.327  0.00  0.00    +0.000 C 
ATOM     11  O   UNL     1       2.986  17.278  17.206  0.00  0.00    +0.000 OA
BRANCH  10  12
ATOM     12  O   UNL     1       2.915  17.589  19.440  0.00  0.00    +0.000 OA
ATOM     13  H   UNL     1       3.709  17.389  19.967  0.00  0.00    +0.000 HD
ENDBRANCH  10  12
ENDBRANCH   5  10
BRANCH   7  14
ATOM     14  C   UNL     1      -0.487  13.662  20.363  0.00  0.00    +0.000 C 
ATOM     15  C   UNL     1      -1.443  13.454  21.037  0.00  0.00    +0.000 C 
BRANCH  15  16
ATOM     16  C   UNL     1      -2.621  13.216  21.891  0.00  0.00    +0.000 C 
ATOM     17  C   UNL     1      -2.403  12.096  22.897  0.00  0.00    +0.000 C 
ATOM     18  C   UNL     1      -3.512  12.329  23.909  0.00  0.00    +0.000 C 
ATOM     19  C   UNL     1      -3.589  13.844  24.050  0.00  0.00    +0.000 C 
ATOM     20  C   UNL     1      -2.982  14.424  22.767  0.00  0.00    +0.000 C 
ENDBRANCH  15  16
ENDBRANCH   7  14
ENDBRANCH   1   2
BRANCH   1  21
ATOM     21  C   UNL     1       0.968  10.523  18.796  0.00  0.00    +0.000 C 
BRANCH  21  22
ATOM     22  C   UNL     1       1.601   9.100  18.979  0.00  0.00    +0.000 C 
ATOM     23  O   UNL     1       1.543   8.515  20.059  0.00  0.00    +0.000 OA
ATOM     24  N   UNL     1       2.261   8.631  17.864  0.00  0.00    +0.000 N 
ATOM     25  H   UNL     1       2.448   9.330  17.155  0.00  0.00    +0.000 HD
BRANCH  24  26
ATOM     26  C   UNL     1       2.950   7.409  17.729  0.00  0.00    +0.000 A 
ATOM     27  C   UNL     1       2.553   6.172  18.256  0.00  0.00    +0.000 A 
ATOM     28  C   UNL     1       3.471   5.107  18.316  0.00  0.00    +0.000 A 
ATOM     29  C   UNL     1       4.769   5.297  17.846  0.00  0.00    +0.000 A 
ATOM     30  C   UNL     1       5.062   6.448  17.124  0.00  0.00    +0.000 A 
ATOM     31  C   UNL     1       4.170   7.500  17.065  0.00  0.00    +0.000 A 
ATOM     32  O   UNL     1       6.286   6.650  16.553  0.00  0.00    +0.000 OA
ATOM     33  C   UNL     1       7.229   6.344  17.569  0.00  0.00    +0.000 C 
ATOM     34  C   UNL     1       7.085   4.893  18.028  0.00  0.00    +0.000 C 
ATOM     35  O   UNL     1       5.738   4.393  18.179  0.00  0.00    +0.000 OA
ENDBRANCH  24  26
ENDBRANCH  21  22
BRANCH  21  36
ATOM     36  C   UNL     1      -0.552  10.272  18.819  0.00  0.00    +0.000 C 
BRANCH  36  37
ATOM     37  C   UNL     1      -1.446  11.123  17.909  0.00  0.00    +0.000 C 
BRANCH  37  39
ATOM     38  C   UNL     1      -3.482   9.575  17.572  0.00  0.00    +0.000 C 
ATOM     39  C   UNL     1      -2.214  10.165  16.980  0.00  0.00    +0.000 C 
ENDBRANCH  37  39
ENDBRANCH  36  37
ENDBRANCH  21  36
ENDBRANCH   1  21
TORSDOF 12
ENDMDL
MODEL 7
REMARK VINA RESULT:      -7.9      3.309      9.712
REMARK  Name = 
REMARK  13 active torsions:
REMARK  status: ('A' for Active; 'I' for Inactive)
REMARK    1  A    between atoms: C_1  and  C_2
REMARK    2  A    between atoms: C_2  and  C_3
REMARK    3  A    between atoms: C_3  and  C_4
REMARK    4  A    between atoms: C_4  and  C_5
REMARK    5  A    between atoms: C_5  and  O_6
REMARK    6  A    between atoms: C_5  and  C_24
REMARK    7  A    between atoms: O_6  and  C_7
REMARK    8  A    between atoms: C_9  and  O_10
REMARK    9  A    between atoms: C_11  and  C_12
REMARK   10  A    between atoms: C_12  and  O_14
REMARK   11  A    between atoms: C_16  and  C_17
REMARK   12  A    between atoms: C_18  and  C_19
REMARK   13  A    between atoms: N_26  and  C_27
REMARK                            x       y       z     vdW  Elec       q    Type
REMARK                         _______ _______ _______ _____ _____    ______ ____
ROOT
ATOM      1  O   UNL     1       0.920  10.270  19.741  0.00  0.00    +0.000 OA
ENDROOT
BRANCH   1   2
ATOM      2  C   UNL     1      -0.257  10.658  19.124  0.00  0.00    +0.000 A 
ATOM      3  C   UNL     1      -1.339   9.791  18.965  0.00  0.00    +0.000 A 
ATOM      4  C   UNL     1      -2.397  10.120  18.124  0.00  0.00    +0.000 A 
ATOM      5  C   UNL     1      -2.484  11.372  17.513  0.00  0.00    +0.000 A 
ATOM      6  C   UNL     1      -1.487  12.315  17.792  0.00  0.00    +0.000 A 
ATOM      7  C   UNL     1      -0.359  11.948  18.562  0.00  0.00    +0.000 A 
BRANCH   4   8
ATOM      8  O   UNL     1      -3.286   9.105  17.895  0.00  0.00    +0.000 OA
ATOM      9  H   UNL     1      -4.141   9.519  17.639  0.00  0.00    +0.000 HD
ENDBRANCH   4   8
BRANCH   5  10
ATOM     10  C   UNL     1      -3.541  11.581  16.489  0.00  0.00    +0.000 C 
ATOM     11  O   UNL     1      -4.702  11.772  16.823  0.00  0.00    +0.000 OA
BRANCH  10  12
ATOM     12  O   UNL     1      -3.148  11.538  15.204  0.00  0.00    +0.000 OA
ATOM     13  H   UNL     1      -2.199  11.676  15.032  0.00  0.00    +0.000 HD
ENDBRANCH  10  12
ENDBRANCH   5  10
BRANCH   7  14
ATOM     14  C   UNL     1       0.653  12.951  18.780  0.00  0.00    +0.000 C 
ATOM     15  C   UNL     1       1.531  13.738  18.924  0.00  0.00    +0.000 C 
BRANCH  15  16
ATOM     16  C   UNL     1       2.617  14.724  19.074  0.00  0.00    +0.000 C 
ATOM     17  C   UNL     1       3.536  14.414  20.246  0.00  0.00    +0.000 C 
ATOM     18  C   UNL     1       4.768  15.249  19.940  0.00  0.00    +0.000 C 
ATOM     19  C   UNL     1       4.942  15.135  18.431  0.00  0.00    +0.000 C 
ATOM     20  C   UNL     1       3.567  14.760  17.869  0.00  0.00    +0.000 C 
ENDBRANCH  15  16
ENDBRANCH   7  14
ENDBRANCH   1   2
BRANCH   1  21
ATOM     21  C   UNL     1       0.851   9.106  20.579  0.00  0.00    +0.000 C 
BRANCH  21  22
ATOM     22  C   UNL     1       1.629   7.825  20.116  0.00  0.00    +0.000 C 
ATOM     23  O   UNL     1       1.885   6.920  20.907  0.00  0.00    +0.000 OA
ATOM     24  N   UNL     1       2.036   7.859  18.800  0.00  0.00    +0.000 N 
ATOM     25  H   UNL     1       1.984   8.772  18.363  0.00  0.00    +0.000 HD
BRANCH  24  26
ATOM     26  C   UNL     1       2.773   6.878  18.106  0.00  0.00    +0.000 A 
ATOM     27  C   UNL     1       2.475   5.510  18.044  0.00  0.00    +0.000 A 
ATOM     28  C   UNL     1       3.446   4.600  17.585  0.00  0.00    +0.000 A 
ATOM     29  C   UNL     1       4.697   5.076  17.196  0.00  0.00    +0.000 A 
ATOM     30  C   UNL     1       4.881   6.446  17.051  0.00  0.00    +0.000 A 
ATOM     31  C   UNL     1       3.937   7.345  17.502  0.00  0.00    +0.000 A 
ATOM     32  O   UNL     1       6.051   6.971  16.579  0.00  0.00    +0.000 OA
ATOM     33  C   UNL     1       7.077   6.320  17.312  0.00  0.00    +0.000 C 
ATOM     34  C   UNL     1       7.038   4.809  17.083  0.00  0.00    +0.000 C 
ATOM     35  O   UNL     1       5.731   4.193  17.052  0.00  0.00    +0.000 OA
ENDBRANCH  24  26
ENDBRANCH  21  22
BRANCH  21  36
ATOM     36  C   UNL     1       1.411   9.408  21.983  0.00  0.00    +0.000 C 
BRANCH  36  37
ATOM     37  C   UNL     1       0.432   9.467  23.161  0.00  0.00    +0.000 C 
BRANCH  37  39
ATOM     38  C   UNL     1      -0.765  11.687  22.620  0.00  0.00    +0.000 C 
ATOM     39  C   UNL     1      -0.846  10.171  22.672  0.00  0.00    +0.000 C 
ENDBRANCH  37  39
ENDBRANCH  36  37
ENDBRANCH  21  36
ENDBRANCH   1  21
TORSDOF 12
ENDMDL
MODEL 8
REMARK VINA RESULT:      -7.8      4.182     10.192
REMARK  Name = 
REMARK  13 active torsions:
REMARK  status: ('A' for Active; 'I' for Inactive)
REMARK    1  A    between atoms: C_1  and  C_2
REMARK    2  A    between atoms: C_2  and  C_3
REMARK    3  A    between atoms: C_3  and  C_4
REMARK    4  A    between atoms: C_4  and  C_5
REMARK    5  A    between atoms: C_5  and  O_6
REMARK    6  A    between atoms: C_5  and  C_24
REMARK    7  A    between atoms: O_6  and  C_7
REMARK    8  A    between atoms: C_9  and  O_10
REMARK    9  A    between atoms: C_11  and  C_12
REMARK   10  A    between atoms: C_12  and  O_14
REMARK   11  A    between atoms: C_16  and  C_17
REMARK   12  A    between atoms: C_18  and  C_19
REMARK   13  A    between atoms: N_26  and  C_27
REMARK                            x       y       z     vdW  Elec       q    Type
REMARK                         _______ _______ _______ _____ _____    ______ ____
ROOT
ATOM      1  O   UNL     1       1.184  11.527  19.660  0.00  0.00    +0.000 OA
ENDROOT
BRANCH   1   2
ATOM      2  C   UNL     1       1.502  12.760  19.116  0.00  0.00    +0.000 A 
ATOM      3  C   UNL     1       2.689  12.985  18.416  0.00  0.00    +0.000 A 
ATOM      4  C   UNL     1       3.099  14.277  18.107  0.00  0.00    +0.000 A 
ATOM      5  C   UNL     1       2.288  15.384  18.365  0.00  0.00    +0.000 A 
ATOM      6  C   UNL     1       1.022  15.161  18.920  0.00  0.00    +0.000 A 
ATOM      7  C   UNL     1       0.646  13.861  19.329  0.00  0.00    +0.000 A 
BRANCH   4   8
ATOM      8  O   UNL     1       4.370  14.373  17.608  0.00  0.00    +0.000 OA
ATOM      9  H   UNL     1       4.640  13.471  17.322  0.00  0.00    +0.000 HD
ENDBRANCH   4   8
BRANCH   5  10
ATOM     10  C   UNL     1       2.870  16.739  18.178  0.00  0.00    +0.000 C 
ATOM     11  O   UNL     1       3.915  17.050  18.734  0.00  0.00    +0.000 OA
BRANCH  10  12
ATOM     12  O   UNL     1       2.186  17.581  17.384  0.00  0.00    +0.000 OA
ATOM     13  H   UNL     1       2.689  18.319  16.994  0.00  0.00    +0.000 HD
ENDBRANCH  10  12
ENDBRANCH   5  10
BRANCH   7  14
ATOM     14  C   UNL     1      -0.654  13.703  19.931  0.00  0.00    +0.000 C 
ATOM     15  C   UNL     1      -1.748  13.624  20.388  0.00  0.00    +0.000 C 
BRANCH  15  16
ATOM     16  C   UNL     1      -3.115  13.513  20.930  0.00  0.00    +0.000 C 
ATOM     17  C   UNL     1      -3.838  14.851  20.980  0.00  0.00    +0.000 C 
ATOM     18  C   UNL     1      -5.295  14.442  21.128  0.00  0.00    +0.000 C 
ATOM     19  C   UNL     1      -5.442  13.220  20.231  0.00  0.00    +0.000 C 
ATOM     20  C   UNL     1      -4.034  12.637  20.068  0.00  0.00    +0.000 C 
ENDBRANCH  15  16
ENDBRANCH   7  14
ENDBRANCH   1   2
BRANCH   1  21
ATOM     21  C   UNL     1       0.880  10.476  18.732  0.00  0.00    +0.000 C 
BRANCH  21  22
ATOM     22  C   UNL     1       1.572   9.085  18.949  0.00  0.00    +0.000 C 
ATOM     23  O   UNL     1       1.570   8.542  20.051  0.00  0.00    +0.000 OA
ATOM     24  N   UNL     1       2.214   8.597  17.831  0.00  0.00    +0.000 N 
ATOM     25  H   UNL     1       2.351   9.274  17.090  0.00  0.00    +0.000 HD
BRANCH  24  26
ATOM     26  C   UNL     1       2.944   7.397  17.720  0.00  0.00    +0.000 A 
ATOM     27  C   UNL     1       2.576   6.152  18.250  0.00  0.00    +0.000 A 
ATOM     28  C   UNL     1       3.527   5.118  18.337  0.00  0.00    +0.000 A 
ATOM     29  C   UNL     1       4.828   5.346  17.892  0.00  0.00    +0.000 A 
ATOM     30  C   UNL     1       5.097   6.500  17.166  0.00  0.00    +0.000 A 
ATOM     31  C   UNL     1       4.174   7.522  17.080  0.00  0.00    +0.000 A 
ATOM     32  O   UNL     1       6.326   6.737  16.617  0.00  0.00    +0.000 OA
ATOM     33  C   UNL     1       7.258   6.470  17.654  0.00  0.00    +0.000 C 
ATOM     34  C   UNL     1       7.151   5.019  18.123  0.00  0.00    +0.000 C 
ATOM     35  O   UNL     1       5.818   4.477  18.252  0.00  0.00    +0.000 OA
ENDBRANCH  24  26
ENDBRANCH  21  22
BRANCH  21  36
ATOM     36  C   UNL     1      -0.629  10.159  18.740  0.00  0.00    +0.000 C 
BRANCH  36  37
ATOM     37  C   UNL     1      -1.541  10.927  17.778  0.00  0.00    +0.000 C 
BRANCH  37  39
ATOM     38  C   UNL     1      -2.930   9.841  15.894  0.00  0.00    +0.000 C 
ATOM     39  C   UNL     1      -2.701   9.993  17.388  0.00  0.00    +0.000 C 
ENDBRANCH  37  39
ENDBRANCH  36  37
ENDBRANCH  21  36
ENDBRANCH   1  21
TORSDOF 12
ENDMDL
MODEL 9
REMARK VINA RESULT:      -7.8      4.065     10.191
REMARK  Name = 
REMARK  13 active torsions:
REMARK  status: ('A' for Active; 'I' for Inactive)
REMARK    1  A    between atoms: C_1  and  C_2
REMARK    2  A    between atoms: C_2  and  C_3
REMARK    3  A    between atoms: C_3  and  C_4
REMARK    4  A    between atoms: C_4  and  C_5
REMARK    5  A    between atoms: C_5  and  O_6
REMARK    6  A    between atoms: C_5  and  C_24
REMARK    7  A    between atoms: O_6  and  C_7
REMARK    8  A    between atoms: C_9  and  O_10
REMARK    9  A    between atoms: C_11  and  C_12
REMARK   10  A    between atoms: C_12  and  O_14
REMARK   11  A    between atoms: C_16  and  C_17
REMARK   12  A    between atoms: C_18  and  C_19
REMARK   13  A    between atoms: N_26  and  C_27
REMARK                            x       y       z     vdW  Elec       q    Type
REMARK                         _______ _______ _______ _____ _____    ______ ____
ROOT
ATOM      1  O   UNL     1       0.671  11.589  19.354  0.00  0.00    +0.000 OA
ENDROOT
BRANCH   1   2
ATOM      2  C   UNL     1       1.135  12.822  18.930  0.00  0.00    +0.000 A 
ATOM      3  C   UNL     1       2.356  12.975  18.269  0.00  0.00    +0.000 A 
ATOM      4  C   UNL     1       2.912  14.236  18.087  0.00  0.00    +0.000 A 
ATOM      5  C   UNL     1       2.223  15.399  18.435  0.00  0.00    +0.000 A 
ATOM      6  C   UNL     1       0.927  15.270  18.950  0.00  0.00    +0.000 A 
ATOM      7  C   UNL     1       0.401  13.988  19.232  0.00  0.00    +0.000 A 
BRANCH   4   8
ATOM      8  O   UNL     1       4.198  14.234  17.615  0.00  0.00    +0.000 OA
ATOM      9  H   UNL     1       4.437  13.299  17.424  0.00  0.00    +0.000 HD
ENDBRANCH   4   8
BRANCH   5  10
ATOM     10  C   UNL     1       2.955  16.691  18.381  0.00  0.00    +0.000 C 
ATOM     11  O   UNL     1       3.352  17.138  17.314  0.00  0.00    +0.000 OA
BRANCH  10  12
ATOM     12  O   UNL     1       3.154  17.318  19.554  0.00  0.00    +0.000 OA
ATOM     13  H   UNL     1       2.367  17.694  19.988  0.00  0.00    +0.000 HD
ENDBRANCH  10  12
ENDBRANCH   5  10
BRANCH   7  14
ATOM     14  C   UNL     1      -0.922  13.923  19.800  0.00  0.00    +0.000 C 
ATOM     15  C   UNL     1      -1.985  13.879  20.330  0.00  0.00    +0.000 C 
BRANCH  15  16
ATOM     16  C   UNL     1      -3.303  13.855  20.992  0.00  0.00    +0.000 C 
ATOM     17  C   UNL     1      -4.213  12.762  20.451  0.00  0.00    +0.000 C 
ATOM     18  C   UNL     1      -5.274  12.640  21.532  0.00  0.00    +0.000 C 
ATOM     19  C   UNL     1      -4.507  12.795  22.839  0.00  0.00    +0.000 C 
ATOM     20  C   UNL     1      -3.216  13.545  22.492  0.00  0.00    +0.000 C 
ENDBRANCH  15  16
ENDBRANCH   7  14
ENDBRANCH   1   2
BRANCH   1  21
ATOM     21  C   UNL     1       0.829  10.495  18.438  0.00  0.00    +0.000 C 
BRANCH  21  22
ATOM     22  C   UNL     1       1.506   9.185  18.972  0.00  0.00    +0.000 C 
ATOM     23  O   UNL     1       1.393   8.849  20.149  0.00  0.00    +0.000 OA
ATOM     24  N   UNL     1       2.267   8.523  18.033  0.00  0.00    +0.000 N 
ATOM     25  H   UNL     1       2.475   9.060  17.199  0.00  0.00    +0.000 HD
BRANCH  24  26
ATOM     26  C   UNL     1       3.015   7.343  18.216  0.00  0.00    +0.000 A 
ATOM     27  C   UNL     1       2.827   6.392  19.229  0.00  0.00    +0.000 A 
ATOM     28  C   UNL     1       3.823   5.432  19.484  0.00  0.00    +0.000 A 
ATOM     29  C   UNL     1       4.990   5.439  18.722  0.00  0.00    +0.000 A 
ATOM     30  C   UNL     1       5.046   6.237  17.585  0.00  0.00    +0.000 A 
ATOM     31  C   UNL     1       4.077   7.185  17.330  0.00  0.00    +0.000 A 
ATOM     32  O   UNL     1       6.121   6.216  16.742  0.00  0.00    +0.000 OA
ATOM     33  C   UNL     1       7.260   6.319  17.582  0.00  0.00    +0.000 C 
ATOM     34  C   UNL     1       7.324   5.145  18.559  0.00  0.00    +0.000 C 
ATOM     35  O   UNL     1       6.075   4.731  19.156  0.00  0.00    +0.000 OA
ENDBRANCH  24  26
ENDBRANCH  21  22
BRANCH  21  36
ATOM     36  C   UNL     1      -0.539  10.028  17.903  0.00  0.00    +0.000 C 
BRANCH  36  37
ATOM     37  C   UNL     1      -1.808  10.562  18.577  0.00  0.00    +0.000 C 
BRANCH  37  39
ATOM     38  C   UNL     1      -3.784  11.253  17.068  0.00  0.00    +0.000 C 
ATOM     39  C   UNL     1      -3.011  10.121  17.723  0.00  0.00    +0.000 C 
ENDBRANCH  37  39
ENDBRANCH  36  37
ENDBRANCH  21  36
ENDBRANCH   1  21
TORSDOF 12
ENDMDL
