MODEL 1
REMARK VINA RESULT:      -7.8      0.000      0.000
REMARK  Name = 
REMARK  6 active torsions:
REMARK  status: ('A' for Active; 'I' for Inactive)
REMARK    1  A    between atoms: C_1  and  C_2
REMARK    2  A    between atoms: C_5  and  N_6
REMARK    3  A    between atoms: C_7  and  C_9
REMARK    4  A    between atoms: C_9  and  C_10
REMARK    5  A    between atoms: C_10  and  C_11
REMARK    6  A    between atoms: C_15  and  N_16
REMARK                            x       y       z     vdW  Elec       q    Type
REMARK                         _______ _______ _______ _____ _____    ______ ____
ROOT
ATOM      1  C   UNL     1       1.986   7.028  20.154  0.00  0.00    +0.000 C 
ATOM      2  C   UNL     1       2.751   6.471  18.983  0.00  0.00    +0.000 A 
ATOM      3  C   UNL     1       3.364   7.381  18.111  0.00  0.00    +0.000 A 
ATOM      4  C   UNL     1       4.165   6.940  17.059  0.00  0.00    +0.000 A 
ATOM      5  C   UNL     1       4.373   5.583  16.842  0.00  0.00    +0.000 A 
ATOM      6  C   UNL     1       3.757   4.662  17.705  0.00  0.00    +0.000 A 
ATOM      7  C   UNL     1       2.936   5.091  18.766  0.00  0.00    +0.000 A 
ENDROOT
BRANCH   7   8
ATOM      8  N   UNL     1       2.362   4.140  19.634  0.00  0.00    +0.000 N 
ATOM      9  C   UNL     1       2.960   3.714  20.857  0.00  0.00    +0.000 C 
ATOM     10  C   UNL     1       1.855   2.888  21.466  0.00  0.00    +0.000 C 
ATOM     11  O   UNL     1       1.110   2.408  20.344  0.00  0.00    +0.000 OA
ATOM     12  C   UNL     1       1.359   3.247  19.285  0.00  0.00    +0.000 C 
ATOM     13  O   UNL     1       0.790   3.130  18.213  0.00  0.00    +0.000 OA
ENDBRANCH   7   8
BRANCH   5  14
ATOM     14  N   UNL     1       5.164   5.085  15.779  0.00  0.00    +0.000 N 
ATOM     15  C   UNL     1       6.499   5.377  15.545  0.00  0.00    +0.000 C 
ATOM     16  O   UNL     1       7.238   6.038  16.268  0.00  0.00    +0.000 OA
ATOM     17  H   UNL     1       4.722   4.415  15.162  0.00  0.00    +0.000 HD
BRANCH  15  18
ATOM     18  C   UNL     1       7.054   4.718  14.300  0.00  0.00    +0.000 C 
BRANCH  18  19
ATOM     19  C   UNL     1       6.098   3.632  13.820  0.00  0.00    +0.000 C 
BRANCH  19  20
ATOM     20  C   UNL     1       5.999   3.592  12.323  0.00  0.00    +0.000 C 
ATOM     21  C   UNL     1       5.794   2.262  11.645  0.00  0.00    +0.000 C 
ATOM     22  C   UNL     1       4.692   3.284  11.641  0.00  0.00    +0.000 C 
ENDBRANCH  19  20
ENDBRANCH  18  19
ENDBRANCH  15  18
ENDBRANCH   5  14
TORSDOF 5
ENDMDL
MODEL 2
REMARK VINA RESULT:      -7.2      1.051      1.244
REMARK  Name = 
REMARK  6 active torsions:
REMARK  status: ('A' for Active; 'I' for Inactive)
REMARK    1  A    between atoms: C_1  and  C_2
REMARK    2  A    between atoms: C_5  and  N_6
REMARK    3  A    between atoms: C_7  and  C_9
REMARK    4  A    between atoms: C_9  and  C_10
REMARK    5  A    between atoms: C_10  and  C_11
REMARK    6  A    between atoms: C_15  and  N_16
REMARK                            x       y       z     vdW  Elec       q    Type
REMARK                         _______ _______ _______ _____ _____    ______ ____
ROOT
ATOM      1  C   UNL     1       2.149   6.911  20.329  0.00  0.00    +0.000 C 
ATOM      2  C   UNL     1       2.860   6.356  19.123  0.00  0.00    +0.000 A 
ATOM      3  C   UNL     1       3.334   7.267  18.169  0.00  0.00    +0.000 A 
ATOM      4  C   UNL     1       4.082   6.837  17.073  0.00  0.00    +0.000 A 
ATOM      5  C   UNL     1       4.373   5.490  16.895  0.00  0.00    +0.000 A 
ATOM      6  C   UNL     1       3.896   4.568  17.841  0.00  0.00    +0.000 A 
ATOM      7  C   UNL     1       3.131   4.985  18.947  0.00  0.00    +0.000 A 
ENDROOT
BRANCH   7   8
ATOM      8  N   UNL     1       2.698   4.036  19.895  0.00  0.00    +0.000 N 
ATOM      9  C   UNL     1       1.505   4.168  20.666  0.00  0.00    +0.000 C 
ATOM     10  C   UNL     1       1.419   2.815  21.329  0.00  0.00    +0.000 C 
ATOM     11  O   UNL     1       2.776   2.374  21.413  0.00  0.00    +0.000 OA
ATOM     12  C   UNL     1       3.498   3.056  20.464  0.00  0.00    +0.000 C 
ATOM     13  O   UNL     1       4.676   2.822  20.248  0.00  0.00    +0.000 OA
ENDBRANCH   7   8
BRANCH   5  14
ATOM     14  N   UNL     1       5.114   5.001  15.792  0.00  0.00    +0.000 N 
ATOM     15  C   UNL     1       6.436   5.296  15.499  0.00  0.00    +0.000 C 
ATOM     16  O   UNL     1       7.208   5.952  16.191  0.00  0.00    +0.000 OA
ATOM     17  H   UNL     1       4.645   4.336  15.191  0.00  0.00    +0.000 HD
BRANCH  15  18
ATOM     18  C   UNL     1       6.933   4.649  14.224  0.00  0.00    +0.000 C 
BRANCH  18  19
ATOM     19  C   UNL     1       5.909   3.634  13.727  0.00  0.00    +0.000 C 
BRANCH  19  20
ATOM     20  C   UNL     1       5.874   3.559  12.228  0.00  0.00    +0.000 C 
ATOM     21  C   UNL     1       5.703   2.213  11.573  0.00  0.00    +0.000 C 
ATOM     22  C   UNL     1       4.598   3.230  11.499  0.00  0.00    +0.000 C 
ENDBRANCH  19  20
ENDBRANCH  18  19
ENDBRANCH  15  18
ENDBRANCH   5  14
TORSDOF 5
ENDMDL
MODEL 3
REMARK VINA RESULT:      -7.0      3.260      5.115
REMARK  Name = 
REMARK  6 active torsions:
REMARK  status: ('A' for Active; 'I' for Inactive)
REMARK    1  A    between atoms: C_1  and  C_2
REMARK    2  A    between atoms: C_5  and  N_6
REMARK    3  A    between atoms: C_7  and  C_9
REMARK    4  A    between atoms: C_9  and  C_10
REMARK    5  A    between atoms: C_10  and  C_11
REMARK    6  A    between atoms: C_15  and  N_16
REMARK                            x       y       z     vdW  Elec       q    Type
REMARK                         _______ _______ _______ _____ _____    ______ ____
ROOT
ATOM      1  C   UNL     1       2.339   2.646  17.368  0.00  0.00    +0.000 C 
ATOM      2  C   UNL     1       3.473   3.612  17.588  0.00  0.00    +0.000 A 
ATOM      3  C   UNL     1       4.096   4.157  16.456  0.00  0.00    +0.000 A 
ATOM      4  C   UNL     1       5.090   5.126  16.579  0.00  0.00    +0.000 A 
ATOM      5  C   UNL     1       5.496   5.574  17.830  0.00  0.00    +0.000 A 
ATOM      6  C   UNL     1       4.886   5.029  18.971  0.00  0.00    +0.000 A 
ATOM      7  C   UNL     1       3.887   4.042  18.864  0.00  0.00    +0.000 A 
ENDROOT
BRANCH   7   8
ATOM      8  N   UNL     1       3.271   3.541  20.029  0.00  0.00    +0.000 N 
ATOM      9  C   UNL     1       2.247   4.229  20.746  0.00  0.00    +0.000 C 
ATOM     10  C   UNL     1       1.813   3.179  21.739  0.00  0.00    +0.000 C 
ATOM     11  O   UNL     1       2.973   2.366  21.927  0.00  0.00    +0.000 OA
ATOM     12  C   UNL     1       3.783   2.530  20.829  0.00  0.00    +0.000 C 
ATOM     13  O   UNL     1       4.809   1.890  20.675  0.00  0.00    +0.000 OA
ENDBRANCH   7   8
BRANCH   5  14
ATOM     14  N   UNL     1       6.513   6.544  18.009  0.00  0.00    +0.000 N 
ATOM     15  C   UNL     1       7.659   6.395  18.774  0.00  0.00    +0.000 C 
ATOM     16  O   UNL     1       8.028   5.373  19.345  0.00  0.00    +0.000 OA
ATOM     17  H   UNL     1       6.413   7.406  17.489  0.00  0.00    +0.000 HD
BRANCH  15  18
ATOM     18  C   UNL     1       8.535   7.629  18.799  0.00  0.00    +0.000 C 
BRANCH  18  19
ATOM     19  C   UNL     1       7.984   8.674  17.834  0.00  0.00    +0.000 C 
BRANCH  19  20
ATOM     20  C   UNL     1       8.857   9.892  17.766  0.00  0.00    +0.000 C 
ATOM     21  C   UNL     1       8.347  11.183  18.352  0.00  0.00    +0.000 C 
ATOM     22  C   UNL     1       9.490  10.461  19.009  0.00  0.00    +0.000 C 
ENDBRANCH  19  20
ENDBRANCH  18  19
ENDBRANCH  15  18
ENDBRANCH   5  14
TORSDOF 5
ENDMDL
MODEL 4
REMARK VINA RESULT:      -7.0      1.368      1.800
REMARK  Name = 
REMARK  6 active torsions:
REMARK  status: ('A' for Active; 'I' for Inactive)
REMARK    1  A    between atoms: C_1  and  C_2
REMARK    2  A    between atoms: C_5  and  N_6
REMARK    3  A    between atoms: C_7  and  C_9
REMARK    4  A    between atoms: C_9  and  C_10
REMARK    5  A    between atoms: C_10  and  C_11
REMARK    6  A    between atoms: C_15  and  N_16
REMARK                            x       y       z     vdW  Elec       q    Type
REMARK                         _______ _______ _______ _____ _____    ______ ____
ROOT
ATOM      1  C   UNL     1       2.847   6.329  19.666  0.00  0.00    +0.000 C 
ATOM      2  C   UNL     1       3.550   6.065  18.362  0.00  0.00    +0.000 A 
ATOM      3  C   UNL     1       4.284   7.113  17.791  0.00  0.00    +0.000 A 
ATOM      4  C   UNL     1       5.036   6.918  16.634  0.00  0.00    +0.000 A 
ATOM      5  C   UNL     1       5.073   5.677  16.010  0.00  0.00    +0.000 A 
ATOM      6  C   UNL     1       4.334   4.622  16.568  0.00  0.00    +0.000 A 
ATOM      7  C   UNL     1       3.562   4.805  17.730  0.00  0.00    +0.000 A 
ENDROOT
BRANCH   7   8
ATOM      8  N   UNL     1       2.860   3.714  18.283  0.00  0.00    +0.000 N 
ATOM      9  C   UNL     1       1.443   3.562  18.216  0.00  0.00    +0.000 C 
ATOM     10  C   UNL     1       1.261   2.163  18.750  0.00  0.00    +0.000 C 
ATOM     11  O   UNL     1       2.379   1.965  19.618  0.00  0.00    +0.000 OA
ATOM     12  C   UNL     1       3.364   2.847  19.241  0.00  0.00    +0.000 C 
ATOM     13  O   UNL     1       4.470   2.846  19.755  0.00  0.00    +0.000 OA
ENDBRANCH   7   8
BRANCH   5  14
ATOM     14  N   UNL     1       5.808   5.432  14.824  0.00  0.00    +0.000 N 
ATOM     15  C   UNL     1       7.102   4.941  14.751  0.00  0.00    +0.000 C 
ATOM     16  O   UNL     1       7.790   4.552  15.690  0.00  0.00    +0.000 OA
ATOM     17  H   UNL     1       5.322   5.586  13.950  0.00  0.00    +0.000 HD
BRANCH  15  18
ATOM     18  C   UNL     1       7.627   4.827  13.335  0.00  0.00    +0.000 C 
BRANCH  18  19
ATOM     19  C   UNL     1       6.509   4.368  12.405  0.00  0.00    +0.000 C 
BRANCH  19  20
ATOM     20  C   UNL     1       6.333   2.879  12.430  0.00  0.00    +0.000 C 
ATOM     21  C   UNL     1       5.385   2.244  11.446  0.00  0.00    +0.000 C 
ATOM     22  C   UNL     1       6.864   2.017  11.315  0.00  0.00    +0.000 C 
ENDBRANCH  19  20
ENDBRANCH  18  19
ENDBRANCH  15  18
ENDBRANCH   5  14
TORSDOF 5
ENDMDL
MODEL 5
REMARK VINA RESULT:      -6.9      3.149      7.589
REMARK  Name = 
REMARK  6 active torsions:
REMARK  status: ('A' for Active; 'I' for Inactive)
REMARK    1  A    between atoms: C_1  and  C_2
REMARK    2  A    between atoms: C_5  and  N_6
REMARK    3  A    between atoms: C_7  and  C_9
REMARK    4  A    between atoms: C_9  and  C_10
REMARK    5  A    between atoms: C_10  and  C_11
REMARK    6  A    between atoms: C_15  and  N_16
REMARK                            x       y       z     vdW  Elec       q    Type
REMARK                         _______ _______ _______ _____ _____    ______ ____
ROOT
ATOM      1  C   UNL     1       4.110   2.257  19.600  0.00  0.00    +0.000 C 
ATOM      2  C   UNL     1       3.521   3.640  19.682  0.00  0.00    +0.000 A 
ATOM      3  C   UNL     1       2.336   3.803  20.413  0.00  0.00    +0.000 A 
ATOM      4  C   UNL     1       1.781   5.067  20.611  0.00  0.00    +0.000 A 
ATOM      5  C   UNL     1       2.386   6.200  20.082  0.00  0.00    +0.000 A 
ATOM      6  C   UNL     1       3.568   6.048  19.340  0.00  0.00    +0.000 A 
ATOM      7  C   UNL     1       4.136   4.778  19.122  0.00  0.00    +0.000 A 
ENDROOT
BRANCH   7   8
ATOM      8  N   UNL     1       5.343   4.665  18.402  0.00  0.00    +0.000 N 
ATOM      9  C   UNL     1       6.582   5.226  18.832  0.00  0.00    +0.000 C 
ATOM     10  C   UNL     1       7.547   4.634  17.835  0.00  0.00    +0.000 C 
ATOM     11  O   UNL     1       6.755   4.405  16.667  0.00  0.00    +0.000 OA
ATOM     12  C   UNL     1       5.441   4.326  17.061  0.00  0.00    +0.000 C 
ATOM     13  O   UNL     1       4.543   4.050  16.282  0.00  0.00    +0.000 OA
ENDBRANCH   7   8
BRANCH   5  14
ATOM     14  N   UNL     1       1.853   7.503  20.240  0.00  0.00    +0.000 N 
ATOM     15  C   UNL     1       1.677   8.442  19.235  0.00  0.00    +0.000 C 
ATOM     16  O   UNL     1       1.864   8.270  18.034  0.00  0.00    +0.000 OA
ATOM     17  H   UNL     1       1.528   7.750  21.165  0.00  0.00    +0.000 HD
BRANCH  15  18
ATOM     18  C   UNL     1       1.121   9.760  19.729  0.00  0.00    +0.000 C 
BRANCH  18  19
ATOM     19  C   UNL     1      -0.023   9.506  20.704  0.00  0.00    +0.000 C 
BRANCH  19  20
ATOM     20  C   UNL     1       0.224  10.143  22.039  0.00  0.00    +0.000 C 
ATOM     21  C   UNL     1      -0.937  10.758  22.777  0.00  0.00    +0.000 C 
ATOM     22  C   UNL     1      -0.287   9.510  23.307  0.00  0.00    +0.000 C 
ENDBRANCH  19  20
ENDBRANCH  18  19
ENDBRANCH  15  18
ENDBRANCH   5  14
TORSDOF 5
ENDMDL
MODEL 6
REMARK VINA RESULT:      -6.9      3.684      5.465
REMARK  Name = 
REMARK  6 active torsions:
REMARK  status: ('A' for Active; 'I' for Inactive)
REMARK    1  A    between atoms: C_1  and  C_2
REMARK    2  A    between atoms: C_5  and  N_6
REMARK    3  A    between atoms: C_7  and  C_9
REMARK    4  A    between atoms: C_9  and  C_10
REMARK    5  A    between atoms: C_10  and  C_11
REMARK    6  A    between atoms: C_15  and  N_16
REMARK                            x       y       z     vdW  Elec       q    Type
REMARK                         _______ _______ _______ _____ _____    ______ ____
ROOT
ATOM      1  C   UNL     1       2.934   2.811  17.154  0.00  0.00    +0.000 C 
ATOM      2  C   UNL     1       4.066   3.710  17.575  0.00  0.00    +0.000 A 
ATOM      3  C   UNL     1       4.988   4.101  16.594  0.00  0.00    +0.000 A 
ATOM      4  C   UNL     1       6.009   5.005  16.886  0.00  0.00    +0.000 A 
ATOM      5  C   UNL     1       6.143   5.538  18.162  0.00  0.00    +0.000 A 
ATOM      6  C   UNL     1       5.230   5.147  19.154  0.00  0.00    +0.000 A 
ATOM      7  C   UNL     1       4.200   4.227  18.878  0.00  0.00    +0.000 A 
ENDROOT
BRANCH   7   8
ATOM      8  N   UNL     1       3.280   3.884  19.890  0.00  0.00    +0.000 N 
ATOM      9  C   UNL     1       3.140   2.569  20.425  0.00  0.00    +0.000 C 
ATOM     10  C   UNL     1       2.207   2.810  21.586  0.00  0.00    +0.000 C 
ATOM     11  O   UNL     1       1.450   3.960  21.201  0.00  0.00    +0.000 OA
ATOM     12  C   UNL     1       2.175   4.640  20.251  0.00  0.00    +0.000 C 
ATOM     13  O   UNL     1       1.811   5.713  19.799  0.00  0.00    +0.000 OA
ENDBRANCH   7   8
BRANCH   5  14
ATOM     14  N   UNL     1       7.172   6.446  18.513  0.00  0.00    +0.000 N 
ATOM     15  C   UNL     1       7.519   7.596  17.822  0.00  0.00    +0.000 C 
ATOM     16  O   UNL     1       6.937   8.067  16.849  0.00  0.00    +0.000 OA
ATOM     17  H   UNL     1       7.665   6.259  19.376  0.00  0.00    +0.000 HD
BRANCH  15  18
ATOM     18  C   UNL     1       8.691   8.337  18.429  0.00  0.00    +0.000 C 
BRANCH  18  19
ATOM     19  C   UNL     1       8.541   9.834  18.181  0.00  0.00    +0.000 C 
BRANCH  19  20
ATOM     20  C   UNL     1       9.663  10.620  18.792  0.00  0.00    +0.000 C 
ATOM     21  C   UNL     1      10.419  11.597  17.930  0.00  0.00    +0.000 C 
ATOM     22  C   UNL     1       9.531  12.101  19.032  0.00  0.00    +0.000 C 
ENDBRANCH  19  20
ENDBRANCH  18  19
ENDBRANCH  15  18
ENDBRANCH   5  14
TORSDOF 5
ENDMDL
MODEL 7
REMARK VINA RESULT:      -6.9      3.158      7.700
REMARK  Name = 
REMARK  6 active torsions:
REMARK  status: ('A' for Active; 'I' for Inactive)
REMARK    1  A    between atoms: C_1  and  C_2
REMARK    2  A    between atoms: C_5  and  N_6
REMARK    3  A    between atoms: C_7  and  C_9
REMARK    4  A    between atoms: C_9  and  C_10
REMARK    5  A    between atoms: C_10  and  C_11
REMARK    6  A    between atoms: C_15  and  N_16
REMARK                            x       y       z     vdW  Elec       q    Type
REMARK                         _______ _______ _______ _____ _____    ______ ____
ROOT
ATOM      1  C   UNL     1       4.102   2.411  19.212  0.00  0.00    +0.000 C 
ATOM      2  C   UNL     1       3.517   3.793  19.337  0.00  0.00    +0.000 A 
ATOM      3  C   UNL     1       2.312   3.931  20.040  0.00  0.00    +0.000 A 
ATOM      4  C   UNL     1       1.758   5.188  20.277  0.00  0.00    +0.000 A 
ATOM      5  C   UNL     1       2.384   6.340  19.816  0.00  0.00    +0.000 A 
ATOM      6  C   UNL     1       3.587   6.213  19.103  0.00  0.00    +0.000 A 
ATOM      7  C   UNL     1       4.154   4.950  18.847  0.00  0.00    +0.000 A 
ENDROOT
BRANCH   7   8
ATOM      8  N   UNL     1       5.382   4.861  18.158  0.00  0.00    +0.000 N 
ATOM      9  C   UNL     1       5.530   4.272  16.867  0.00  0.00    +0.000 C 
ATOM     10  C   UNL     1       6.954   4.635  16.528  0.00  0.00    +0.000 C 
ATOM     11  O   UNL     1       7.602   4.756  17.797  0.00  0.00    +0.000 OA
ATOM     12  C   UNL     1       6.633   4.994  18.741  0.00  0.00    +0.000 C 
ATOM     13  O   UNL     1       6.904   5.225  19.908  0.00  0.00    +0.000 OA
ENDBRANCH   7   8
BRANCH   5  14
ATOM     14  N   UNL     1       1.853   7.638  20.015  0.00  0.00    +0.000 N 
ATOM     15  C   UNL     1       1.636   8.592  19.033  0.00  0.00    +0.000 C 
ATOM     16  O   UNL     1       1.780   8.441  17.824  0.00  0.00    +0.000 OA
ATOM     17  H   UNL     1       1.562   7.868  20.956  0.00  0.00    +0.000 HD
BRANCH  15  18
ATOM     18  C   UNL     1       1.095   9.900  19.569  0.00  0.00    +0.000 C 
BRANCH  18  19
ATOM     19  C   UNL     1      -0.011   9.626  20.582  0.00  0.00    +0.000 C 
BRANCH  19  20
ATOM     20  C   UNL     1       0.285  10.241  21.918  0.00  0.00    +0.000 C 
ATOM     21  C   UNL     1      -0.805  11.005  22.623  0.00  0.00    +0.000 C 
ATOM     22  C   UNL     1      -0.330   9.692  23.178  0.00  0.00    +0.000 C 
ENDBRANCH  19  20
ENDBRANCH  18  19
ENDBRANCH  15  18
ENDBRANCH   5  14
TORSDOF 5
ENDMDL
MODEL 8
REMARK VINA RESULT:      -6.8      3.254      7.233
REMARK  Name = 
REMARK  6 active torsions:
REMARK  status: ('A' for Active; 'I' for Inactive)
REMARK    1  A    between atoms: C_1  and  C_2
REMARK    2  A    between atoms: C_5  and  N_6
REMARK    3  A    between atoms: C_7  and  C_9
REMARK    4  A    between atoms: C_9  and  C_10
REMARK    5  A    between atoms: C_10  and  C_11
REMARK    6  A    between atoms: C_15  and  N_16
REMARK                            x       y       z     vdW  Elec       q    Type
REMARK                         _______ _______ _______ _____ _____    ______ ____
ROOT
ATOM      1  C   UNL     1       3.852   2.777  17.615  0.00  0.00    +0.000 C 
ATOM      2  C   UNL     1       3.386   4.207  17.671  0.00  0.00    +0.000 A 
ATOM      3  C   UNL     1       2.019   4.441  17.877  0.00  0.00    +0.000 A 
ATOM      4  C   UNL     1       1.526   5.736  18.033  0.00  0.00    +0.000 A 
ATOM      5  C   UNL     1       2.378   6.833  17.982  0.00  0.00    +0.000 A 
ATOM      6  C   UNL     1       3.748   6.611  17.768  0.00  0.00    +0.000 A 
ATOM      7  C   UNL     1       4.260   5.310  17.599  0.00  0.00    +0.000 A 
ENDROOT
BRANCH   7   8
ATOM      8  N   UNL     1       5.646   5.121  17.421  0.00  0.00    +0.000 N 
ATOM      9  C   UNL     1       6.579   5.012  18.494  0.00  0.00    +0.000 C 
ATOM     10  C   UNL     1       7.838   4.613  17.765  0.00  0.00    +0.000 C 
ATOM     11  O   UNL     1       7.681   5.165  16.456  0.00  0.00    +0.000 OA
ATOM     12  C   UNL     1       6.337   5.363  16.243  0.00  0.00    +0.000 C 
ATOM     13  O   UNL     1       5.897   5.748  15.172  0.00  0.00    +0.000 OA
ENDBRANCH   7   8
BRANCH   5  14
ATOM     14  N   UNL     1       1.926   8.167  18.118  0.00  0.00    +0.000 N 
ATOM     15  C   UNL     1       1.540   8.785  19.298  0.00  0.00    +0.000 C 
ATOM     16  O   UNL     1       1.614   8.311  20.427  0.00  0.00    +0.000 OA
ATOM     17  H   UNL     1       1.931   8.735  17.280  0.00  0.00    +0.000 HD
BRANCH  15  18
ATOM     18  C   UNL     1       1.065  10.210  19.109  0.00  0.00    +0.000 C 
BRANCH  18  19
ATOM     19  C   UNL     1      -0.440  10.288  19.342  0.00  0.00    +0.000 C 
BRANCH  19  20
ATOM     20  C   UNL     1      -1.187  10.614  18.083  0.00  0.00    +0.000 C 
ATOM     21  C   UNL     1      -2.470   9.881  17.790  0.00  0.00    +0.000 C 
ATOM     22  C   UNL     1      -2.503  11.345  18.131  0.00  0.00    +0.000 C 
ENDBRANCH  19  20
ENDBRANCH  18  19
ENDBRANCH  15  18
ENDBRANCH   5  14
TORSDOF 5
ENDMDL
MODEL 9
REMARK VINA RESULT:      -6.8      1.631      2.232
REMARK  Name = 
REMARK  6 active torsions:
REMARK  status: ('A' for Active; 'I' for Inactive)
REMARK    1  A    between atoms: C_1  and  C_2
REMARK    2  A    between atoms: C_5  and  N_6
REMARK    3  A    between atoms: C_7  and  C_9
REMARK    4  A    between atoms: C_9  and  C_10
REMARK    5  A    between atoms: C_10  and  C_11
REMARK    6  A    between atoms: C_15  and  N_16
REMARK                            x       y       z     vdW  Elec       q    Type
REMARK                         _______ _______ _______ _____ _____    ______ ____
ROOT
ATOM      1  C   UNL     1       4.017   5.627  19.662  0.00  0.00    +0.000 C 
ATOM      2  C   UNL     1       4.342   5.248  18.242  0.00  0.00    +0.000 A 
ATOM      3  C   UNL     1       5.320   5.997  17.572  0.00  0.00    +0.000 A 
ATOM      4  C   UNL     1       5.740   5.648  16.290  0.00  0.00    +0.000 A 
ATOM      5  C   UNL     1       5.195   4.550  15.636  0.00  0.00    +0.000 A 
ATOM      6  C   UNL     1       4.209   3.797  16.294  0.00  0.00    +0.000 A 
ATOM      7  C   UNL     1       3.767   4.142  17.585  0.00  0.00    +0.000 A 
ENDROOT
BRANCH   7   8
ATOM      8  N   UNL     1       2.800   3.343  18.230  0.00  0.00    +0.000 N 
ATOM      9  C   UNL     1       1.405   3.642  18.250  0.00  0.00    +0.000 C 
ATOM     10  C   UNL     1       0.833   2.387  18.862  0.00  0.00    +0.000 C 
ATOM     11  O   UNL     1       1.891   1.873  19.674  0.00  0.00    +0.000 OA
ATOM     12  C   UNL     1       3.073   2.390  19.200  0.00  0.00    +0.000 C 
ATOM     13  O   UNL     1       4.157   2.057  19.649  0.00  0.00    +0.000 OA
ENDBRANCH   7   8
BRANCH   5  14
ATOM     14  N   UNL     1       5.575   4.165  14.328  0.00  0.00    +0.000 N 
ATOM     15  C   UNL     1       6.723   4.563  13.659  0.00  0.00    +0.000 C 
ATOM     16  O   UNL     1       7.640   5.235  14.120  0.00  0.00    +0.000 OA
ATOM     17  H   UNL     1       4.975   3.500  13.859  0.00  0.00    +0.000 HD
BRANCH  15  18
ATOM     18  C   UNL     1       6.826   4.012  12.253  0.00  0.00    +0.000 C 
BRANCH  18  19
ATOM     19  C   UNL     1       5.732   2.974  12.022  0.00  0.00    +0.000 C 
BRANCH  19  20
ATOM     20  C   UNL     1       4.419   3.611  11.673  0.00  0.00    +0.000 C 
ATOM     21  C   UNL     1       4.061   3.785  10.221  0.00  0.00    +0.000 C 
ATOM     22  C   UNL     1       3.303   2.801  11.068  0.00  0.00    +0.000 C 
ENDBRANCH  19  20
ENDBRANCH  18  19
ENDBRANCH  15  18
ENDBRANCH   5  14
TORSDOF 5
ENDMDL
