MODEL 1
REMARK VINA RESULT:      -7.8      0.000      0.000
REMARK  Name = 
REMARK  10 active torsions:
REMARK  status: ('A' for Active; 'I' for Inactive)
REMARK    1  A    between atoms: C_1  and  C_2
REMARK    2  A    between atoms: C_2  and  O_3
REMARK    3  A    between atoms: C_2  and  C_4
REMARK    4  A    between atoms: C_2  and  C_14
REMARK    5  A    between atoms: C_4  and  O_5
REMARK    6  A    between atoms: O_5  and  C_6
REMARK    7  A    between atoms: C_9  and  C_10
REMARK    8  A    between atoms: N_16  and  C_17
REMARK    9  A    between atoms: C_20  and  C_21
REMARK   10  A    between atoms: C_23  and  C_24
REMARK                            x       y       z     vdW  Elec       q    Type
REMARK                         _______ _______ _______ _____ _____    ______ ____
ROOT
ATOM      1  C   UNL     1       2.098   4.184  19.457  0.00  0.00    +0.000 C 
ATOM      2  O   UNL     1       1.309   4.167  18.511  0.00  0.00    +0.000 OA
ATOM      3  N   UNL     1       2.607   5.352  20.013  0.00  0.00    +0.000 N 
ATOM      4  H   UNL     1       3.345   5.280  20.702  0.00  0.00    +0.000 HD
ENDROOT
BRANCH   3   5
ATOM      5  C   UNL     1       2.217   6.664  19.655  0.00  0.00    +0.000 A 
ATOM      6  C   UNL     1       2.527   7.230  18.421  0.00  0.00    +0.000 A 
ATOM      7  C   UNL     1       2.195   8.553  18.137  0.00  0.00    +0.000 A 
ATOM      8  C   UNL     1       1.536   9.343  19.084  0.00  0.00    +0.000 A 
ATOM      9  C   UNL     1       1.164   8.785  20.318  0.00  0.00    +0.000 A 
ATOM     10  C   UNL     1       1.496   7.431  20.581  0.00  0.00    +0.000 A 
BRANCH   9  11
ATOM     11  C   UNL     1       0.439   9.567  21.390  0.00  0.00    +0.000 C 
ATOM     12  F   UNL     1      -0.781  10.044  21.038  0.00  0.00    +0.000 F 
ATOM     13  F   UNL     1       0.238   8.823  22.511  0.00  0.00    +0.000 F 
ATOM     14  F   UNL     1       1.155  10.655  21.792  0.00  0.00    +0.000 F 
ENDBRANCH   9  11
BRANCH   8  15
ATOM     15  C   UNL     1       1.287  10.712  18.731  0.00  0.00    +0.000 C 
ATOM     16  N   UNL     1       1.126  11.818  18.429  0.00  0.00    +0.000 NA
ENDBRANCH   8  15
ENDBRANCH   3   5
BRANCH   1  18
ATOM     17  C   UNL     1       2.544   2.799  21.491  0.00  0.00    +0.000 C 
ATOM     18  C   UNL     1       2.686   2.834  19.965  0.00  0.00    +0.000 C 
BRANCH  18  19
ATOM     19  O   UNL     1       1.884   1.750  19.456  0.00  0.00    +0.000 OA
ATOM     20  H   UNL     1       0.949   1.959  19.631  0.00  0.00    +0.000 HD
ENDBRANCH  18  19
BRANCH  18  21
ATOM     21  C   UNL     1       4.126   2.535  19.550  0.00  0.00    +0.000 C 
BRANCH  21  22
ATOM     22  O   UNL     1       4.916   3.723  19.494  0.00  0.00    +0.000 OA
BRANCH  22  23
ATOM     23  C   UNL     1       5.412   4.045  18.259  0.00  0.00    +0.000 A 
ATOM     24  C   UNL     1       4.763   3.814  17.044  0.00  0.00    +0.000 A 
ATOM     25  C   UNL     1       5.367   4.175  15.841  0.00  0.00    +0.000 A 
ATOM     26  C   UNL     1       6.630   4.769  15.844  0.00  0.00    +0.000 A 
ATOM     27  C   UNL     1       7.279   5.015  17.057  0.00  0.00    +0.000 A 
ATOM     28  C   UNL     1       6.669   4.654  18.262  0.00  0.00    +0.000 A 
BRANCH  26  29
ATOM     29  C   UNL     1       7.255   5.113  14.602  0.00  0.00    +0.000 C 
ATOM     30  N   UNL     1       7.775   5.391  13.603  0.00  0.00    +0.000 NA
ENDBRANCH  26  29
ENDBRANCH  22  23
ENDBRANCH  21  22
ENDBRANCH  18  21
ENDBRANCH   1  18
TORSDOF 9
ENDMDL
MODEL 2
REMARK VINA RESULT:      -7.7      1.256      1.431
REMARK  Name = 
REMARK  10 active torsions:
REMARK  status: ('A' for Active; 'I' for Inactive)
REMARK    1  A    between atoms: C_1  and  C_2
REMARK    2  A    between atoms: C_2  and  O_3
REMARK    3  A    between atoms: C_2  and  C_4
REMARK    4  A    between atoms: C_2  and  C_14
REMARK    5  A    between atoms: C_4  and  O_5
REMARK    6  A    between atoms: O_5  and  C_6
REMARK    7  A    between atoms: C_9  and  C_10
REMARK    8  A    between atoms: N_16  and  C_17
REMARK    9  A    between atoms: C_20  and  C_21
REMARK   10  A    between atoms: C_23  and  C_24
REMARK                            x       y       z     vdW  Elec       q    Type
REMARK                         _______ _______ _______ _____ _____    ______ ____
ROOT
ATOM      1  C   UNL     1       1.982   4.148  19.263  0.00  0.00    +0.000 C 
ATOM      2  O   UNL     1       1.194   4.179  18.317  0.00  0.00    +0.000 OA
ATOM      3  N   UNL     1       2.521   5.286  19.853  0.00  0.00    +0.000 N 
ATOM      4  H   UNL     1       3.255   5.175  20.540  0.00  0.00    +0.000 HD
ENDROOT
BRANCH   3   5
ATOM      5  C   UNL     1       2.167   6.617  19.532  0.00  0.00    +0.000 A 
ATOM      6  C   UNL     1       2.520   7.218  18.326  0.00  0.00    +0.000 A 
ATOM      7  C   UNL     1       2.222   8.558  18.081  0.00  0.00    +0.000 A 
ATOM      8  C   UNL     1       1.556   9.329  19.038  0.00  0.00    +0.000 A 
ATOM      9  C   UNL     1       1.142   8.737  20.242  0.00  0.00    +0.000 A 
ATOM     10  C   UNL     1       1.438   7.368  20.466  0.00  0.00    +0.000 A 
BRANCH   9  11
ATOM     11  C   UNL     1       0.406   9.496  21.322  0.00  0.00    +0.000 C 
ATOM     12  F   UNL     1      -0.723  10.132  20.922  0.00  0.00    +0.000 F 
ATOM     13  F   UNL     1       0.031   8.684  22.348  0.00  0.00    +0.000 F 
ATOM     14  F   UNL     1       1.189  10.461  21.883  0.00  0.00    +0.000 F 
ENDBRANCH   9  11
BRANCH   8  15
ATOM     15  C   UNL     1       1.344  10.713  18.727  0.00  0.00    +0.000 C 
ATOM     16  N   UNL     1       1.163  11.838  18.518  0.00  0.00    +0.000 NA
ENDBRANCH   8  15
ENDBRANCH   3   5
BRANCH   1  18
ATOM     17  C   UNL     1       2.403   2.702  21.260  0.00  0.00    +0.000 C 
ATOM     18  C   UNL     1       2.532   2.768  19.734  0.00  0.00    +0.000 C 
BRANCH  18  19
ATOM     19  O   UNL     1       1.692   1.722  19.209  0.00  0.00    +0.000 OA
ATOM     20  H   UNL     1       2.234   0.918  19.119  0.00  0.00    +0.000 HD
ENDBRANCH  18  19
BRANCH  18  21
ATOM     21  C   UNL     1       3.958   2.435  19.298  0.00  0.00    +0.000 C 
BRANCH  21  22
ATOM     22  O   UNL     1       4.192   2.797  17.937  0.00  0.00    +0.000 OA
BRANCH  22  23
ATOM     23  C   UNL     1       4.883   3.964  17.746  0.00  0.00    +0.000 A 
ATOM     24  C   UNL     1       4.802   4.771  16.609  0.00  0.00    +0.000 A 
ATOM     25  C   UNL     1       5.561   5.936  16.516  0.00  0.00    +0.000 A 
ATOM     26  C   UNL     1       6.411   6.303  17.561  0.00  0.00    +0.000 A 
ATOM     27  C   UNL     1       6.486   5.506  18.707  0.00  0.00    +0.000 A 
ATOM     28  C   UNL     1       5.722   4.339  18.798  0.00  0.00    +0.000 A 
BRANCH  26  29
ATOM     29  C   UNL     1       7.207   7.488  17.446  0.00  0.00    +0.000 C 
ATOM     30  N   UNL     1       7.846   8.453  17.366  0.00  0.00    +0.000 NA
ENDBRANCH  26  29
ENDBRANCH  22  23
ENDBRANCH  21  22
ENDBRANCH  18  21
ENDBRANCH   1  18
TORSDOF 9
ENDMDL
MODEL 3
REMARK VINA RESULT:      -7.7      1.264      1.791
REMARK  Name = 
REMARK  10 active torsions:
REMARK  status: ('A' for Active; 'I' for Inactive)
REMARK    1  A    between atoms: C_1  and  C_2
REMARK    2  A    between atoms: C_2  and  O_3
REMARK    3  A    between atoms: C_2  and  C_4
REMARK    4  A    between atoms: C_2  and  C_14
REMARK    5  A    between atoms: C_4  and  O_5
REMARK    6  A    between atoms: O_5  and  C_6
REMARK    7  A    between atoms: C_9  and  C_10
REMARK    8  A    between atoms: N_16  and  C_17
REMARK    9  A    between atoms: C_20  and  C_21
REMARK   10  A    between atoms: C_23  and  C_24
REMARK                            x       y       z     vdW  Elec       q    Type
REMARK                         _______ _______ _______ _____ _____    ______ ____
ROOT
ATOM      1  C   UNL     1       2.002   4.109  19.322  0.00  0.00    +0.000 C 
ATOM      2  O   UNL     1       1.150   4.136  18.433  0.00  0.00    +0.000 OA
ATOM      3  N   UNL     1       2.583   5.249  19.867  0.00  0.00    +0.000 N 
ATOM      4  H   UNL     1       3.363   5.140  20.501  0.00  0.00    +0.000 HD
ENDROOT
BRANCH   3   5
ATOM      5  C   UNL     1       2.211   6.579  19.562  0.00  0.00    +0.000 A 
ATOM      6  C   UNL     1       2.530   7.191  18.352  0.00  0.00    +0.000 A 
ATOM      7  C   UNL     1       2.216   8.529  18.122  0.00  0.00    +0.000 A 
ATOM      8  C   UNL     1       1.566   9.289  19.100  0.00  0.00    +0.000 A 
ATOM      9  C   UNL     1       1.185   8.686  20.310  0.00  0.00    +0.000 A 
ATOM     10  C   UNL     1       1.498   7.318  20.518  0.00  0.00    +0.000 A 
BRANCH   9  11
ATOM     11  C   UNL     1       0.469   9.433  21.412  0.00  0.00    +0.000 C 
ATOM     12  F   UNL     1       1.154  10.470  21.953  0.00  0.00    +0.000 F 
ATOM     13  F   UNL     1      -0.714   9.952  20.985  0.00  0.00    +0.000 F 
ATOM     14  F   UNL     1       0.158   8.614  22.456  0.00  0.00    +0.000 F 
ENDBRANCH   9  11
BRANCH   8  15
ATOM     15  C   UNL     1       1.336  10.673  18.802  0.00  0.00    +0.000 C 
ATOM     16  N   UNL     1       1.129  11.779  18.526  0.00  0.00    +0.000 NA
ENDBRANCH   8  15
ENDBRANCH   3   5
BRANCH   1  18
ATOM     17  C   UNL     1       2.471   2.636  21.289  0.00  0.00    +0.000 C 
ATOM     18  C   UNL     1       2.580   2.731  19.763  0.00  0.00    +0.000 C 
BRANCH  18  19
ATOM     19  O   UNL     1       1.751   1.680  19.229  0.00  0.00    +0.000 OA
ATOM     20  H   UNL     1       0.989   1.566  19.826  0.00  0.00    +0.000 HD
ENDBRANCH  18  19
BRANCH  18  21
ATOM     21  C   UNL     1       4.006   2.429  19.304  0.00  0.00    +0.000 C 
BRANCH  21  22
ATOM     22  O   UNL     1       4.257   2.934  17.993  0.00  0.00    +0.000 OA
BRANCH  22  23
ATOM     23  C   UNL     1       5.047   4.051  17.931  0.00  0.00    +0.000 A 
ATOM     24  C   UNL     1       5.949   4.456  18.917  0.00  0.00    +0.000 A 
ATOM     25  C   UNL     1       6.698   5.620  18.754  0.00  0.00    +0.000 A 
ATOM     26  C   UNL     1       6.549   6.392  17.600  0.00  0.00    +0.000 A 
ATOM     27  C   UNL     1       5.657   5.984  16.603  0.00  0.00    +0.000 A 
ATOM     28  C   UNL     1       4.909   4.815  16.770  0.00  0.00    +0.000 A 
BRANCH  26  29
ATOM     29  C   UNL     1       7.303   7.600  17.452  0.00  0.00    +0.000 C 
ATOM     30  N   UNL     1       7.900   8.587  17.331  0.00  0.00    +0.000 NA
ENDBRANCH  26  29
ENDBRANCH  22  23
ENDBRANCH  21  22
ENDBRANCH  18  21
ENDBRANCH   1  18
TORSDOF 9
ENDMDL
MODEL 4
REMARK VINA RESULT:      -7.5      4.216      8.233
REMARK  Name = 
REMARK  10 active torsions:
REMARK  status: ('A' for Active; 'I' for Inactive)
REMARK    1  A    between atoms: C_1  and  C_2
REMARK    2  A    between atoms: C_2  and  O_3
REMARK    3  A    between atoms: C_2  and  C_4
REMARK    4  A    between atoms: C_2  and  C_14
REMARK    5  A    between atoms: C_4  and  O_5
REMARK    6  A    between atoms: O_5  and  C_6
REMARK    7  A    between atoms: C_9  and  C_10
REMARK    8  A    between atoms: N_16  and  C_17
REMARK    9  A    between atoms: C_20  and  C_21
REMARK   10  A    between atoms: C_23  and  C_24
REMARK                            x       y       z     vdW  Elec       q    Type
REMARK                         _______ _______ _______ _____ _____    ______ ____
ROOT
ATOM      1  C   UNL     1       0.717   8.299  21.347  0.00  0.00    +0.000 C 
ATOM      2  O   UNL     1      -0.321   7.636  21.304  0.00  0.00    +0.000 OA
ATOM      3  N   UNL     1       1.929   7.867  20.820  0.00  0.00    +0.000 N 
ATOM      4  H   UNL     1       2.760   8.412  21.006  0.00  0.00    +0.000 HD
ENDROOT
BRANCH   3   5
ATOM      5  C   UNL     1       2.118   6.677  20.079  0.00  0.00    +0.000 A 
ATOM      6  C   UNL     1       2.376   6.677  18.710  0.00  0.00    +0.000 A 
ATOM      7  C   UNL     1       2.476   5.482  18.001  0.00  0.00    +0.000 A 
ATOM      8  C   UNL     1       2.326   4.252  18.649  0.00  0.00    +0.000 A 
ATOM      9  C   UNL     1       2.116   4.218  20.037  0.00  0.00    +0.000 A 
ATOM     10  C   UNL     1       2.034   5.445  20.744  0.00  0.00    +0.000 A 
BRANCH   9  11
ATOM     11  C   UNL     1       1.955   2.931  20.814  0.00  0.00    +0.000 C 
ATOM     12  F   UNL     1       1.643   3.078  22.126  0.00  0.00    +0.000 F 
ATOM     13  F   UNL     1       0.982   2.139  20.287  0.00  0.00    +0.000 F 
ATOM     14  F   UNL     1       3.094   2.183  20.790  0.00  0.00    +0.000 F 
ENDBRANCH   9  11
BRANCH   8  15
ATOM     15  C   UNL     1       2.384   3.074  17.832  0.00  0.00    +0.000 C 
ATOM     16  N   UNL     1       2.391   2.132  17.157  0.00  0.00    +0.000 NA
ENDBRANCH   8  15
ENDBRANCH   3   5
BRANCH   1  18
ATOM     17  C   UNL     1      -0.585   9.697  22.962  0.00  0.00    +0.000 C 
ATOM     18  C   UNL     1       0.724   9.625  22.165  0.00  0.00    +0.000 C 
BRANCH  18  19
ATOM     19  O   UNL     1       1.789   9.574  23.135  0.00  0.00    +0.000 OA
ATOM     20  H   UNL     1       2.588   9.243  22.687  0.00  0.00    +0.000 HD
ENDBRANCH  18  19
BRANCH  18  21
ATOM     21  C   UNL     1       0.936  10.905  21.359  0.00  0.00    +0.000 C 
BRANCH  21  22
ATOM     22  O   UNL     1       0.833  10.668  19.956  0.00  0.00    +0.000 OA
BRANCH  22  23
ATOM     23  C   UNL     1      -0.389  10.933  19.399  0.00  0.00    +0.000 A 
ATOM     24  C   UNL     1      -1.314  11.858  19.888  0.00  0.00    +0.000 A 
ATOM     25  C   UNL     1      -2.538  12.040  19.245  0.00  0.00    +0.000 A 
ATOM     26  C   UNL     1      -2.847  11.294  18.106  0.00  0.00    +0.000 A 
ATOM     27  C   UNL     1      -1.920  10.376  17.604  0.00  0.00    +0.000 A 
ATOM     28  C   UNL     1      -0.693  10.198  18.250  0.00  0.00    +0.000 A 
BRANCH  26  29
ATOM     29  C   UNL     1      -4.117  11.469  17.467  0.00  0.00    +0.000 C 
ATOM     30  N   UNL     1      -5.146  11.595  16.947  0.00  0.00    +0.000 NA
ENDBRANCH  26  29
ENDBRANCH  22  23
ENDBRANCH  21  22
ENDBRANCH  18  21
ENDBRANCH   1  18
TORSDOF 9
ENDMDL
MODEL 5
REMARK VINA RESULT:      -7.5      4.217      7.991
REMARK  Name = 
REMARK  10 active torsions:
REMARK  status: ('A' for Active; 'I' for Inactive)
REMARK    1  A    between atoms: C_1  and  C_2
REMARK    2  A    between atoms: C_2  and  O_3
REMARK    3  A    between atoms: C_2  and  C_4
REMARK    4  A    between atoms: C_2  and  C_14
REMARK    5  A    between atoms: C_4  and  O_5
REMARK    6  A    between atoms: O_5  and  C_6
REMARK    7  A    between atoms: C_9  and  C_10
REMARK    8  A    between atoms: N_16  and  C_17
REMARK    9  A    between atoms: C_20  and  C_21
REMARK   10  A    between atoms: C_23  and  C_24
REMARK                            x       y       z     vdW  Elec       q    Type
REMARK                         _______ _______ _______ _____ _____    ______ ____
ROOT
ATOM      1  C   UNL     1       0.658   8.319  21.293  0.00  0.00    +0.000 C 
ATOM      2  O   UNL     1      -0.346   7.606  21.340  0.00  0.00    +0.000 OA
ATOM      3  N   UNL     1       1.859   7.919  20.716  0.00  0.00    +0.000 N 
ATOM      4  H   UNL     1       2.671   8.511  20.830  0.00  0.00    +0.000 HD
ENDROOT
BRANCH   3   5
ATOM      5  C   UNL     1       2.065   6.707  20.018  0.00  0.00    +0.000 A 
ATOM      6  C   UNL     1       2.219   6.653  18.635  0.00  0.00    +0.000 A 
ATOM      7  C   UNL     1       2.339   5.431  17.975  0.00  0.00    +0.000 A 
ATOM      8  C   UNL     1       2.314   4.229  18.688  0.00  0.00    +0.000 A 
ATOM      9  C   UNL     1       2.210   4.253  20.088  0.00  0.00    +0.000 A 
ATOM     10  C   UNL     1       2.106   5.507  20.743  0.00  0.00    +0.000 A 
BRANCH   9  11
ATOM     11  C   UNL     1       2.187   3.000  20.934  0.00  0.00    +0.000 C 
ATOM     12  F   UNL     1       1.234   2.093  20.606  0.00  0.00    +0.000 F 
ATOM     13  F   UNL     1       3.371   2.330  20.878  0.00  0.00    +0.000 F 
ATOM     14  F   UNL     1       1.985   3.284  22.251  0.00  0.00    +0.000 F 
ENDBRANCH   9  11
BRANCH   8  15
ATOM     15  C   UNL     1       2.383   3.017  17.924  0.00  0.00    +0.000 C 
ATOM     16  N   UNL     1       2.418   2.017  17.340  0.00  0.00    +0.000 NA
ENDBRANCH   8  15
ENDBRANCH   3   5
BRANCH   1  18
ATOM     17  C   UNL     1      -0.545   9.673  23.018  0.00  0.00    +0.000 C 
ATOM     18  C   UNL     1       0.646   9.679  22.052  0.00  0.00    +0.000 C 
BRANCH  18  19
ATOM     19  O   UNL     1       1.830   9.775  22.867  0.00  0.00    +0.000 OA
ATOM     20  H   UNL     1       1.714  10.524  23.479  0.00  0.00    +0.000 HD
ENDBRANCH  18  19
BRANCH  18  21
ATOM     21  C   UNL     1       0.623  10.931  21.176  0.00  0.00    +0.000 C 
BRANCH  21  22
ATOM     22  O   UNL     1      -0.703  11.435  21.010  0.00  0.00    +0.000 OA
BRANCH  22  23
ATOM     23  C   UNL     1      -1.245  11.274  19.763  0.00  0.00    +0.000 A 
ATOM     24  C   UNL     1      -2.408  11.895  19.304  0.00  0.00    +0.000 A 
ATOM     25  C   UNL     1      -2.877  11.650  18.014  0.00  0.00    +0.000 A 
ATOM     26  C   UNL     1      -2.184  10.779  17.171  0.00  0.00    +0.000 A 
ATOM     27  C   UNL     1      -1.011  10.166  17.621  0.00  0.00    +0.000 A 
ATOM     28  C   UNL     1      -0.543  10.415  18.914  0.00  0.00    +0.000 A 
BRANCH  26  29
ATOM     29  C   UNL     1      -2.686  10.514  15.857  0.00  0.00    +0.000 C 
ATOM     30  N   UNL     1      -3.078  10.298  14.787  0.00  0.00    +0.000 NA
ENDBRANCH  26  29
ENDBRANCH  22  23
ENDBRANCH  21  22
ENDBRANCH  18  21
ENDBRANCH   1  18
TORSDOF 9
ENDMDL
MODEL 6
REMARK VINA RESULT:      -7.5      1.659      2.367
REMARK  Name = 
REMARK  10 active torsions:
REMARK  status: ('A' for Active; 'I' for Inactive)
REMARK    1  A    between atoms: C_1  and  C_2
REMARK    2  A    between atoms: C_2  and  O_3
REMARK    3  A    between atoms: C_2  and  C_4
REMARK    4  A    between atoms: C_2  and  C_14
REMARK    5  A    between atoms: C_4  and  O_5
REMARK    6  A    between atoms: O_5  and  C_6
REMARK    7  A    between atoms: C_9  and  C_10
REMARK    8  A    between atoms: N_16  and  C_17
REMARK    9  A    between atoms: C_20  and  C_21
REMARK   10  A    between atoms: C_23  and  C_24
REMARK                            x       y       z     vdW  Elec       q    Type
REMARK                         _______ _______ _______ _____ _____    ______ ____
ROOT
ATOM      1  C   UNL     1       1.947   4.372  19.842  0.00  0.00    +0.000 C 
ATOM      2  O   UNL     1       1.313   4.530  18.797  0.00  0.00    +0.000 OA
ATOM      3  N   UNL     1       2.255   5.405  20.719  0.00  0.00    +0.000 N 
ATOM      4  H   UNL     1       2.885   5.217  21.488  0.00  0.00    +0.000 HD
ENDROOT
BRANCH   3   5
ATOM      5  C   UNL     1       1.802   6.740  20.598  0.00  0.00    +0.000 A 
ATOM      6  C   UNL     1       1.086   7.384  21.604  0.00  0.00    +0.000 A 
ATOM      7  C   UNL     1       0.588   8.672  21.415  0.00  0.00    +0.000 A 
ATOM      8  C   UNL     1       0.800   9.351  20.211  0.00  0.00    +0.000 A 
ATOM      9  C   UNL     1       1.562   8.747  19.197  0.00  0.00    +0.000 A 
ATOM     10  C   UNL     1       2.076   7.443  19.416  0.00  0.00    +0.000 A 
BRANCH   9  11
ATOM     11  C   UNL     1       1.848   9.417  17.873  0.00  0.00    +0.000 C 
ATOM     12  F   UNL     1       2.529  10.587  17.947  0.00  0.00    +0.000 F 
ATOM     13  F   UNL     1       2.575   8.616  17.047  0.00  0.00    +0.000 F 
ATOM     14  F   UNL     1       0.701   9.703  17.194  0.00  0.00    +0.000 F 
ENDBRANCH   9  11
BRANCH   8  15
ATOM     15  C   UNL     1       0.201  10.648  20.079  0.00  0.00    +0.000 C 
ATOM     16  N   UNL     1      -0.314  11.677  19.946  0.00  0.00    +0.000 NA
ENDBRANCH   8  15
ENDBRANCH   3   5
BRANCH   1  18
ATOM     17  C   UNL     1       2.471   2.712  21.638  0.00  0.00    +0.000 C 
ATOM     18  C   UNL     1       2.575   2.976  20.131  0.00  0.00    +0.000 C 
BRANCH  18  19
ATOM     19  O   UNL     1       1.784   1.959  19.485  0.00  0.00    +0.000 OA
ATOM     20  H   UNL     1       2.391   1.357  19.018  0.00  0.00    +0.000 HD
ENDBRANCH  18  19
BRANCH  18  21
ATOM     21  C   UNL     1       4.011   2.777  19.647  0.00  0.00    +0.000 C 
BRANCH  21  22
ATOM     22  O   UNL     1       4.719   4.015  19.574  0.00  0.00    +0.000 OA
BRANCH  22  23
ATOM     23  C   UNL     1       5.358   4.261  18.388  0.00  0.00    +0.000 A 
ATOM     24  C   UNL     1       6.661   4.748  18.262  0.00  0.00    +0.000 A 
ATOM     25  C   UNL     1       7.211   4.973  17.001  0.00  0.00    +0.000 A 
ATOM     26  C   UNL     1       6.460   4.712  15.853  0.00  0.00    +0.000 A 
ATOM     27  C   UNL     1       5.160   4.211  15.974  0.00  0.00    +0.000 A 
ATOM     28  C   UNL     1       4.613   3.986  17.239  0.00  0.00    +0.000 A 
BRANCH  26  29
ATOM     29  C   UNL     1       7.023   4.970  14.563  0.00  0.00    +0.000 C 
ATOM     30  N   UNL     1       7.492   5.186  13.524  0.00  0.00    +0.000 NA
ENDBRANCH  26  29
ENDBRANCH  22  23
ENDBRANCH  21  22
ENDBRANCH  18  21
ENDBRANCH   1  18
TORSDOF 9
ENDMDL
MODEL 7
REMARK VINA RESULT:      -7.4      2.245      2.877
REMARK  Name = 
REMARK  10 active torsions:
REMARK  status: ('A' for Active; 'I' for Inactive)
REMARK    1  A    between atoms: C_1  and  C_2
REMARK    2  A    between atoms: C_2  and  O_3
REMARK    3  A    between atoms: C_2  and  C_4
REMARK    4  A    between atoms: C_2  and  C_14
REMARK    5  A    between atoms: C_4  and  O_5
REMARK    6  A    between atoms: O_5  and  C_6
REMARK    7  A    between atoms: C_9  and  C_10
REMARK    8  A    between atoms: N_16  and  C_17
REMARK    9  A    between atoms: C_20  and  C_21
REMARK   10  A    between atoms: C_23  and  C_24
REMARK                            x       y       z     vdW  Elec       q    Type
REMARK                         _______ _______ _______ _____ _____    ______ ____
ROOT
ATOM      1  C   UNL     1       2.301   3.885  19.146  0.00  0.00    +0.000 C 
ATOM      2  O   UNL     1       1.183   3.940  18.632  0.00  0.00    +0.000 OA
ATOM      3  N   UNL     1       2.921   4.968  19.759  0.00  0.00    +0.000 N 
ATOM      4  H   UNL     1       3.887   4.876  20.044  0.00  0.00    +0.000 HD
ENDROOT
BRANCH   3   5
ATOM      5  C   UNL     1       2.327   6.234  19.974  0.00  0.00    +0.000 A 
ATOM      6  C   UNL     1       1.665   6.563  21.154  0.00  0.00    +0.000 A 
ATOM      7  C   UNL     1       1.023   7.792  21.296  0.00  0.00    +0.000 A 
ATOM      8  C   UNL     1       1.034   8.727  20.256  0.00  0.00    +0.000 A 
ATOM      9  C   UNL     1       1.736   8.444  19.073  0.00  0.00    +0.000 A 
ATOM     10  C   UNL     1       2.398   7.195  18.955  0.00  0.00    +0.000 A 
BRANCH   9  11
ATOM     11  C   UNL     1       1.806   9.405  17.908  0.00  0.00    +0.000 C 
ATOM     12  F   UNL     1       2.342  10.620  18.187  0.00  0.00    +0.000 F 
ATOM     13  F   UNL     1       2.542   8.902  16.880  0.00  0.00    +0.000 F 
ATOM     14  F   UNL     1       0.572   9.660  17.389  0.00  0.00    +0.000 F 
ENDBRANCH   9  11
BRANCH   8  15
ATOM     15  C   UNL     1       0.297   9.941  20.464  0.00  0.00    +0.000 C 
ATOM     16  N   UNL     1      -0.300  10.926  20.588  0.00  0.00    +0.000 NA
ENDBRANCH   8  15
ENDBRANCH   3   5
BRANCH   1  18
ATOM     17  C   UNL     1       3.868   2.309  20.295  0.00  0.00    +0.000 C 
ATOM     18  C   UNL     1       3.141   2.584  18.973  0.00  0.00    +0.000 C 
BRANCH  18  19
ATOM     19  O   UNL     1       2.248   1.472  18.761  0.00  0.00    +0.000 OA
ATOM     20  H   UNL     1       1.374   1.829  18.523  0.00  0.00    +0.000 HD
ENDBRANCH  18  19
BRANCH  18  21
ATOM     21  C   UNL     1       4.125   2.575  17.804  0.00  0.00    +0.000 C 
BRANCH  21  22
ATOM     22  O   UNL     1       3.997   3.747  16.998  0.00  0.00    +0.000 OA
BRANCH  22  23
ATOM     23  C   UNL     1       4.944   4.714  17.206  0.00  0.00    +0.000 A 
ATOM     24  C   UNL     1       6.112   4.550  17.953  0.00  0.00    +0.000 A 
ATOM     25  C   UNL     1       7.005   5.609  18.108  0.00  0.00    +0.000 A 
ATOM     26  C   UNL     1       6.734   6.845  17.517  0.00  0.00    +0.000 A 
ATOM     27  C   UNL     1       5.573   7.010  16.757  0.00  0.00    +0.000 A 
ATOM     28  C   UNL     1       4.681   5.946  16.602  0.00  0.00    +0.000 A 
BRANCH  26  29
ATOM     29  C   UNL     1       7.644   7.934  17.703  0.00  0.00    +0.000 C 
ATOM     30  N   UNL     1       8.374   8.825  17.842  0.00  0.00    +0.000 NA
ENDBRANCH  26  29
ENDBRANCH  22  23
ENDBRANCH  21  22
ENDBRANCH  18  21
ENDBRANCH   1  18
TORSDOF 9
ENDMDL
MODEL 8
REMARK VINA RESULT:      -7.3      2.139      4.672
REMARK  Name = 
REMARK  10 active torsions:
REMARK  status: ('A' for Active; 'I' for Inactive)
REMARK    1  A    between atoms: C_1  and  C_2
REMARK    2  A    between atoms: C_2  and  O_3
REMARK    3  A    between atoms: C_2  and  C_4
REMARK    4  A    between atoms: C_2  and  C_14
REMARK    5  A    between atoms: C_4  and  O_5
REMARK    6  A    between atoms: O_5  and  C_6
REMARK    7  A    between atoms: C_9  and  C_10
REMARK    8  A    between atoms: N_16  and  C_17
REMARK    9  A    between atoms: C_20  and  C_21
REMARK   10  A    between atoms: C_23  and  C_24
REMARK                            x       y       z     vdW  Elec       q    Type
REMARK                         _______ _______ _______ _____ _____    ______ ____
ROOT
ATOM      1  C   UNL     1       5.239   6.726  16.945  0.00  0.00    +0.000 C 
ATOM      2  O   UNL     1       5.839   7.750  17.276  0.00  0.00    +0.000 OA
ATOM      3  N   UNL     1       3.903   6.485  17.247  0.00  0.00    +0.000 N 
ATOM      4  H   UNL     1       3.520   5.570  17.052  0.00  0.00    +0.000 HD
ENDROOT
BRANCH   3   5
ATOM      5  C   UNL     1       3.028   7.406  17.868  0.00  0.00    +0.000 A 
ATOM      6  C   UNL     1       2.703   8.635  17.299  0.00  0.00    +0.000 A 
ATOM      7  C   UNL     1       1.901   9.550  17.980  0.00  0.00    +0.000 A 
ATOM      8  C   UNL     1       1.398   9.251  19.250  0.00  0.00    +0.000 A 
ATOM      9  C   UNL     1       1.667   8.000  19.829  0.00  0.00    +0.000 A 
ATOM     10  C   UNL     1       2.471   7.076  19.112  0.00  0.00    +0.000 A 
BRANCH   9  11
ATOM     11  C   UNL     1       1.152   7.595  21.191  0.00  0.00    +0.000 C 
ATOM     12  F   UNL     1       1.433   6.322  21.566  0.00  0.00    +0.000 F 
ATOM     13  F   UNL     1       1.649   8.390  22.178  0.00  0.00    +0.000 F 
ATOM     14  F   UNL     1      -0.204   7.710  21.272  0.00  0.00    +0.000 F 
ENDBRANCH   9  11
BRANCH   8  15
ATOM     15  C   UNL     1       0.633  10.274  19.904  0.00  0.00    +0.000 C 
ATOM     16  N   UNL     1      -0.020  11.088  20.407  0.00  0.00    +0.000 NA
ENDBRANCH   8  15
ENDBRANCH   3   5
BRANCH   1  18
ATOM     17  C   UNL     1       5.564   5.411  14.842  0.00  0.00    +0.000 C 
ATOM     18  C   UNL     1       6.046   5.566  16.290  0.00  0.00    +0.000 C 
BRANCH  18  19
ATOM     19  O   UNL     1       7.436   5.940  16.218  0.00  0.00    +0.000 OA
ATOM     20  H   UNL     1       7.937   5.171  15.891  0.00  0.00    +0.000 HD
ENDBRANCH  18  19
BRANCH  18  21
ATOM     21  C   UNL     1       5.998   4.224  17.020  0.00  0.00    +0.000 C 
BRANCH  21  22
ATOM     22  O   UNL     1       4.793   3.513  16.737  0.00  0.00    +0.000 OA
BRANCH  22  23
ATOM     23  C   UNL     1       3.983   3.269  17.814  0.00  0.00    +0.000 A 
ATOM     24  C   UNL     1       2.630   2.930  17.744  0.00  0.00    +0.000 A 
ATOM     25  C   UNL     1       1.896   2.714  18.909  0.00  0.00    +0.000 A 
ATOM     26  C   UNL     1       2.511   2.837  20.157  0.00  0.00    +0.000 A 
ATOM     27  C   UNL     1       3.868   3.163  20.232  0.00  0.00    +0.000 A 
ATOM     28  C   UNL     1       4.601   3.377  19.062  0.00  0.00    +0.000 A 
BRANCH  26  29
ATOM     29  C   UNL     1       1.743   2.638  21.349  0.00  0.00    +0.000 C 
ATOM     30  N   UNL     1       1.134   2.476  22.323  0.00  0.00    +0.000 NA
ENDBRANCH  26  29
ENDBRANCH  22  23
ENDBRANCH  21  22
ENDBRANCH  18  21
ENDBRANCH   1  18
TORSDOF 9
ENDMDL
MODEL 9
REMARK VINA RESULT:      -7.2      2.075      2.733
REMARK  Name = 
REMARK  10 active torsions:
REMARK  status: ('A' for Active; 'I' for Inactive)
REMARK    1  A    between atoms: C_1  and  C_2
REMARK    2  A    between atoms: C_2  and  O_3
REMARK    3  A    between atoms: C_2  and  C_4
REMARK    4  A    between atoms: C_2  and  C_14
REMARK    5  A    between atoms: C_4  and  O_5
REMARK    6  A    between atoms: O_5  and  C_6
REMARK    7  A    between atoms: C_9  and  C_10
REMARK    8  A    between atoms: N_16  and  C_17
REMARK    9  A    between atoms: C_20  and  C_21
REMARK   10  A    between atoms: C_23  and  C_24
REMARK                            x       y       z     vdW  Elec       q    Type
REMARK                         _______ _______ _______ _____ _____    ______ ____
ROOT
ATOM      1  C   UNL     1       2.724   4.960  18.111  0.00  0.00    +0.000 C 
ATOM      2  O   UNL     1       1.539   4.785  17.821  0.00  0.00    +0.000 OA
ATOM      3  N   UNL     1       3.260   6.200  18.441  0.00  0.00    +0.000 N 
ATOM      4  H   UNL     1       4.263   6.283  18.542  0.00  0.00    +0.000 HD
ENDROOT
BRANCH   3   5
ATOM      5  C   UNL     1       2.518   7.394  18.597  0.00  0.00    +0.000 A 
ATOM      6  C   UNL     1       2.356   8.318  17.567  0.00  0.00    +0.000 A 
ATOM      7  C   UNL     1       1.686   9.521  17.783  0.00  0.00    +0.000 A 
ATOM      8  C   UNL     1       1.155   9.827  19.040  0.00  0.00    +0.000 A 
ATOM      9  C   UNL     1       1.259   8.894  20.085  0.00  0.00    +0.000 A 
ATOM     10  C   UNL     1       1.928   7.667  19.840  0.00  0.00    +0.000 A 
BRANCH   9  11
ATOM     11  C   UNL     1       0.702   9.142  21.468  0.00  0.00    +0.000 C 
ATOM     12  F   UNL     1       0.828   8.111  22.340  0.00  0.00    +0.000 F 
ATOM     13  F   UNL     1       1.293  10.210  22.068  0.00  0.00    +0.000 F 
ATOM     14  F   UNL     1      -0.630   9.429  21.431  0.00  0.00    +0.000 F 
ENDBRANCH   9  11
BRANCH   8  15
ATOM     15  C   UNL     1       0.536  11.112  19.190  0.00  0.00    +0.000 C 
ATOM     16  N   UNL     1       0.075  12.168  19.307  0.00  0.00    +0.000 NA
ENDBRANCH   8  15
ENDBRANCH   3   5
BRANCH   1  18
ATOM     17  C   UNL     1       4.217   3.381  19.348  0.00  0.00    +0.000 C 
ATOM     18  C   UNL     1       3.717   3.770  17.952  0.00  0.00    +0.000 C 
BRANCH  18  19
ATOM     19  O   UNL     1       3.003   2.626  17.442  0.00  0.00    +0.000 OA
ATOM     20  H   UNL     1       3.528   2.245  16.715  0.00  0.00    +0.000 HD
ENDBRANCH  18  19
BRANCH  18  21
ATOM     21  C   UNL     1       4.891   4.003  17.003  0.00  0.00    +0.000 C 
BRANCH  21  22
ATOM     22  O   UNL     1       6.139   4.002  17.698  0.00  0.00    +0.000 OA
BRANCH  22  23
ATOM     23  C   UNL     1       6.736   5.225  17.844  0.00  0.00    +0.000 A 
ATOM     24  C   UNL     1       7.709   5.539  18.795  0.00  0.00    +0.000 A 
ATOM     25  C   UNL     1       8.243   6.824  18.861  0.00  0.00    +0.000 A 
ATOM     26  C   UNL     1       7.805   7.810  17.975  0.00  0.00    +0.000 A 
ATOM     27  C   UNL     1       6.841   7.499  17.011  0.00  0.00    +0.000 A 
ATOM     28  C   UNL     1       6.309   6.208  16.947  0.00  0.00    +0.000 A 
BRANCH  26  29
ATOM     29  C   UNL     1       8.340   9.135  18.066  0.00  0.00    +0.000 C 
ATOM     30  N   UNL     1       8.788  10.202  18.144  0.00  0.00    +0.000 NA
ENDBRANCH  26  29
ENDBRANCH  22  23
ENDBRANCH  21  22
ENDBRANCH  18  21
ENDBRANCH   1  18
TORSDOF 9
ENDMDL
