MODEL 1
REMARK VINA RESULT:      -8.1      0.000      0.000
REMARK  Name = 
REMARK  7 active torsions:
REMARK  status: ('A' for Active; 'I' for Inactive)
REMARK    1  A    between atoms: C_2  and  C_3
REMARK    2  A    between atoms: C_3  and  S_4
REMARK    3  A    between atoms: S_4  and  C_5
REMARK    4  A    between atoms: C_8  and  C_9
REMARK    5  A    between atoms: C_9  and  O_10
REMARK    6  A    between atoms: O_10  and  C_11
REMARK    7  A    between atoms: N_19  and  C_20
REMARK                            x       y       z     vdW  Elec       q    Type
REMARK                         _______ _______ _______ _____ _____    ______ ____
ROOT
ATOM      1  C   UNL     1       6.946   5.472  17.286  0.00  0.00    +0.000 A 
ATOM      2  N   UNL     1       7.492   5.253  18.468  0.00  0.00    +0.000 NA
ATOM      3  N   UNL     1       8.038   6.444  18.879  0.00  0.00    +0.000 NA
ATOM      4  C   UNL     1       7.803   7.312  17.913  0.00  0.00    +0.000 A 
ATOM      5  O   UNL     1       7.121   6.759  16.864  0.00  0.00    +0.000 OA
ENDROOT
BRANCH   1   6
ATOM      6  S   UNL     1       6.042   4.301  16.383  0.00  0.00    +0.000 S 
BRANCH   6   7
ATOM      7  C   UNL     1       4.348   4.861  16.707  0.00  0.00    +0.000 C 
BRANCH   7   9
ATOM      8  O   UNL     1       2.627   3.189  16.566  0.00  0.00    +0.000 OA
ATOM      9  C   UNL     1       3.486   3.735  17.257  0.00  0.00    +0.000 C 
ATOM     10  N   UNL     1       3.763   3.369  18.561  0.00  0.00    +0.000 N 
ATOM     11  H   UNL     1       4.460   3.904  19.072  0.00  0.00    +0.000 HD
BRANCH  10  12
ATOM     12  C   UNL     1       3.159   2.214  19.219  0.00  0.00    +0.000 C 
ATOM     13  C   UNL     1       3.457   2.219  20.724  0.00  0.00    +0.000 C 
ATOM     14  C   UNL     1       2.627   3.211  21.541  0.00  0.00    +0.000 C 
ATOM     15  C   UNL     1       1.148   3.287  21.161  0.00  0.00    +0.000 C 
ATOM     16  C   UNL     1       0.892   3.245  19.661  0.00  0.00    +0.000 C 
ATOM     17  C   UNL     1       1.645   2.099  18.999  0.00  0.00    +0.000 C 
ENDBRANCH  10  12
ENDBRANCH   7   9
ENDBRANCH   6   7
ENDBRANCH   1   6
BRANCH   4  18
ATOM     18  C   UNL     1       8.084   8.764  17.857  0.00  0.00    +0.000 C 
BRANCH  18  19
ATOM     19  O   UNL     1       8.750   9.115  19.065  0.00  0.00    +0.000 OA
BRANCH  19  20
ATOM     20  C   UNL     1       9.351  10.343  19.097  0.00  0.00    +0.000 A 
ATOM     21  C   UNL     1       9.633  11.150  17.994  0.00  0.00    +0.000 A 
ATOM     22  C   UNL     1      10.253  12.392  18.168  0.00  0.00    +0.000 A 
ATOM     23  C   UNL     1      10.593  12.825  19.447  0.00  0.00    +0.000 A 
ATOM     24 BR   UNL     1      11.425  14.506  19.677  0.00  0.00    +0.000 Br
ATOM     25  C   UNL     1      10.325  12.027  20.555  0.00  0.00    +0.000 A 
ATOM     26  C   UNL     1       9.705  10.786  20.376  0.00  0.00    +0.000 A 
ENDBRANCH  19  20
ENDBRANCH  18  19
ENDBRANCH   4  18
TORSDOF 7
ENDMDL
MODEL 2
REMARK VINA RESULT:      -8.0      1.736      2.345
REMARK  Name = 
REMARK  7 active torsions:
REMARK  status: ('A' for Active; 'I' for Inactive)
REMARK    1  A    between atoms: C_2  and  C_3
REMARK    2  A    between atoms: C_3  and  S_4
REMARK    3  A    between atoms: S_4  and  C_5
REMARK    4  A    between atoms: C_8  and  C_9
REMARK    5  A    between atoms: C_9  and  O_10
REMARK    6  A    between atoms: O_10  and  C_11
REMARK    7  A    between atoms: N_19  and  C_20
REMARK                            x       y       z     vdW  Elec       q    Type
REMARK                         _______ _______ _______ _____ _____    ______ ____
ROOT
ATOM      1  C   UNL     1       7.567   6.793  17.837  0.00  0.00    +0.000 A 
ATOM      2  N   UNL     1       7.004   7.617  16.973  0.00  0.00    +0.000 NA
ATOM      3  N   UNL     1       7.479   8.875  17.257  0.00  0.00    +0.000 NA
ATOM      4  C   UNL     1       8.291   8.740  18.288  0.00  0.00    +0.000 A 
ATOM      5  O   UNL     1       8.387   7.443  18.715  0.00  0.00    +0.000 OA
ENDROOT
BRANCH   1   6
ATOM      6  S   UNL     1       7.366   5.072  17.837  0.00  0.00    +0.000 S 
BRANCH   6   7
ATOM      7  C   UNL     1       6.099   4.882  19.121  0.00  0.00    +0.000 C 
BRANCH   7   9
ATOM      8  O   UNL     1       4.529   5.488  17.405  0.00  0.00    +0.000 OA
ATOM      9  C   UNL     1       4.716   5.233  18.594  0.00  0.00    +0.000 C 
ATOM     10  N   UNL     1       3.707   5.217  19.539  0.00  0.00    +0.000 N 
ATOM     11  H   UNL     1       3.960   5.038  20.508  0.00  0.00    +0.000 HD
BRANCH  10  12
ATOM     12  C   UNL     1       2.293   5.372  19.212  0.00  0.00    +0.000 C 
ATOM     13  C   UNL     1       1.890   4.446  18.057  0.00  0.00    +0.000 C 
ATOM     14  C   UNL     1       1.714   2.977  18.442  0.00  0.00    +0.000 C 
ATOM     15  C   UNL     1       0.989   2.735  19.766  0.00  0.00    +0.000 C 
ATOM     16  C   UNL     1       1.391   3.695  20.877  0.00  0.00    +0.000 C 
ATOM     17  C   UNL     1       1.355   5.141  20.403  0.00  0.00    +0.000 C 
ENDBRANCH  10  12
ENDBRANCH   7   9
ENDBRANCH   6   7
ENDBRANCH   1   6
BRANCH   4  18
ATOM     18  C   UNL     1       9.149   9.744  18.955  0.00  0.00    +0.000 C 
BRANCH  18  19
ATOM     19  O   UNL     1       9.658  10.607  17.943  0.00  0.00    +0.000 OA
BRANCH  19  20
ATOM     20  C   UNL     1      10.141  11.817  18.358  0.00  0.00    +0.000 A 
ATOM     21  C   UNL     1      10.492  12.889  17.535  0.00  0.00    +0.000 A 
ATOM     22  C   UNL     1      10.974  14.078  18.093  0.00  0.00    +0.000 A 
ATOM     23  C   UNL     1      11.108  14.192  19.474  0.00  0.00    +0.000 A 
ATOM     24 BR   UNL     1      11.754  15.802  20.223  0.00  0.00    +0.000 Br
ATOM     25  C   UNL     1      10.769  13.129  20.306  0.00  0.00    +0.000 A 
ATOM     26  C   UNL     1      10.287  11.942  19.744  0.00  0.00    +0.000 A 
ENDBRANCH  19  20
ENDBRANCH  18  19
ENDBRANCH   4  18
TORSDOF 7
ENDMDL
MODEL 3
REMARK VINA RESULT:      -8.0      1.428      2.103
REMARK  Name = 
REMARK  7 active torsions:
REMARK  status: ('A' for Active; 'I' for Inactive)
REMARK    1  A    between atoms: C_2  and  C_3
REMARK    2  A    between atoms: C_3  and  S_4
REMARK    3  A    between atoms: S_4  and  C_5
REMARK    4  A    between atoms: C_8  and  C_9
REMARK    5  A    between atoms: C_9  and  O_10
REMARK    6  A    between atoms: O_10  and  C_11
REMARK    7  A    between atoms: N_19  and  C_20
REMARK                            x       y       z     vdW  Elec       q    Type
REMARK                         _______ _______ _______ _____ _____    ______ ____
ROOT
ATOM      1  C   UNL     1       7.392   6.572  17.222  0.00  0.00    +0.000 A 
ATOM      2  N   UNL     1       7.975   6.373  18.390  0.00  0.00    +0.000 NA
ATOM      3  N   UNL     1       8.399   7.601  18.835  0.00  0.00    +0.000 NA
ATOM      4  C   UNL     1       8.062   8.470  17.902  0.00  0.00    +0.000 A 
ATOM      5  O   UNL     1       7.426   7.883  16.842  0.00  0.00    +0.000 OA
ENDROOT
BRANCH   1   6
ATOM      6  S   UNL     1       6.603   5.343  16.289  0.00  0.00    +0.000 S 
BRANCH   6   7
ATOM      7  C   UNL     1       5.716   4.449  17.594  0.00  0.00    +0.000 C 
BRANCH   7   9
ATOM      8  O   UNL     1       3.956   6.045  17.230  0.00  0.00    +0.000 OA
ATOM      9  C   UNL     1       4.341   5.051  17.844  0.00  0.00    +0.000 C 
ATOM     10  N   UNL     1       3.572   4.386  18.781  0.00  0.00    +0.000 N 
ATOM     11  H   UNL     1       3.988   3.599  19.272  0.00  0.00    +0.000 HD
BRANCH  10  12
ATOM     12  C   UNL     1       2.174   4.709  19.052  0.00  0.00    +0.000 C 
ATOM     13  C   UNL     1       1.255   3.542  18.671  0.00  0.00    +0.000 C 
ATOM     14  C   UNL     1       1.253   2.375  19.659  0.00  0.00    +0.000 C 
ATOM     15  C   UNL     1       1.234   2.775  21.134  0.00  0.00    +0.000 C 
ATOM     16  C   UNL     1       2.133   3.958  21.466  0.00  0.00    +0.000 C 
ATOM     17  C   UNL     1       1.905   5.117  20.506  0.00  0.00    +0.000 C 
ENDBRANCH  10  12
ENDBRANCH   7   9
ENDBRANCH   6   7
ENDBRANCH   1   6
BRANCH   4  18
ATOM     18  C   UNL     1       8.189   9.945  17.892  0.00  0.00    +0.000 C 
BRANCH  18  19
ATOM     19  O   UNL     1       9.501  10.261  18.348  0.00  0.00    +0.000 OA
BRANCH  19  20
ATOM     20  C   UNL     1       9.602  11.273  19.261  0.00  0.00    +0.000 A 
ATOM     21  C   UNL     1       9.463  11.150  20.645  0.00  0.00    +0.000 A 
ATOM     22  C   UNL     1       9.593  12.272  21.470  0.00  0.00    +0.000 A 
ATOM     23  C   UNL     1       9.859  13.518  20.909  0.00  0.00    +0.000 A 
ATOM     24 BR   UNL     1      10.040  15.030  22.028  0.00  0.00    +0.000 Br
ATOM     25  C   UNL     1       9.993  13.657  19.531  0.00  0.00    +0.000 A 
ATOM     26  C   UNL     1       9.862  12.532  18.710  0.00  0.00    +0.000 A 
ENDBRANCH  19  20
ENDBRANCH  18  19
ENDBRANCH   4  18
TORSDOF 7
ENDMDL
MODEL 4
REMARK VINA RESULT:      -7.9      1.294      1.684
REMARK  Name = 
REMARK  7 active torsions:
REMARK  status: ('A' for Active; 'I' for Inactive)
REMARK    1  A    between atoms: C_2  and  C_3
REMARK    2  A    between atoms: C_3  and  S_4
REMARK    3  A    between atoms: S_4  and  C_5
REMARK    4  A    between atoms: C_8  and  C_9
REMARK    5  A    between atoms: C_9  and  O_10
REMARK    6  A    between atoms: O_10  and  C_11
REMARK    7  A    between atoms: N_19  and  C_20
REMARK                            x       y       z     vdW  Elec       q    Type
REMARK                         _______ _______ _______ _____ _____    ______ ____
ROOT
ATOM      1  C   UNL     1       7.143   6.316  17.009  0.00  0.00    +0.000 A 
ATOM      2  N   UNL     1       7.658   5.962  18.172  0.00  0.00    +0.000 NA
ATOM      3  N   UNL     1       8.119   7.111  18.767  0.00  0.00    +0.000 NA
ATOM      4  C   UNL     1       7.869   8.092  17.922  0.00  0.00    +0.000 A 
ATOM      5  O   UNL     1       7.258   7.657  16.777  0.00  0.00    +0.000 OA
ENDROOT
BRANCH   1   6
ATOM      6  S   UNL     1       6.342   5.238  15.914  0.00  0.00    +0.000 S 
BRANCH   6   7
ATOM      7  C   UNL     1       5.460   4.167  17.082  0.00  0.00    +0.000 C 
BRANCH   7   9
ATOM      8  O   UNL     1       3.805   5.909  17.147  0.00  0.00    +0.000 OA
ATOM      9  C   UNL     1       4.131   4.777  17.501  0.00  0.00    +0.000 C 
ATOM     10  N   UNL     1       3.329   3.960  18.276  0.00  0.00    +0.000 N 
ATOM     11  H   UNL     1       3.697   3.055  18.558  0.00  0.00    +0.000 HD
BRANCH  10  12
ATOM     12  C   UNL     1       1.958   4.295  18.649  0.00  0.00    +0.000 C 
ATOM     13  C   UNL     1       1.121   3.029  18.869  0.00  0.00    +0.000 C 
ATOM     14  C   UNL     1       1.382   2.306  20.190  0.00  0.00    +0.000 C 
ATOM     15  C   UNL     1       1.532   3.216  21.409  0.00  0.00    +0.000 C 
ATOM     16  C   UNL     1       2.340   4.478  21.143  0.00  0.00    +0.000 C 
ATOM     17  C   UNL     1       1.859   5.194  19.889  0.00  0.00    +0.000 C 
ENDBRANCH  10  12
ENDBRANCH   7   9
ENDBRANCH   6   7
ENDBRANCH   1   6
BRANCH   4  18
ATOM     18  C   UNL     1       8.067   9.551  18.079  0.00  0.00    +0.000 C 
BRANCH  18  19
ATOM     19  O   UNL     1       9.349   9.744  18.669  0.00  0.00    +0.000 OA
BRANCH  19  20
ATOM     20  C   UNL     1       9.559  10.941  19.294  0.00  0.00    +0.000 A 
ATOM     21  C   UNL     1      10.041  12.108  18.698  0.00  0.00    +0.000 A 
ATOM     22  C   UNL     1      10.208  13.272  19.457  0.00  0.00    +0.000 A 
ATOM     23  C   UNL     1       9.896  13.266  20.813  0.00  0.00    +0.000 A 
ATOM     24 BR   UNL     1      10.117  14.841  21.833  0.00  0.00    +0.000 Br
ATOM     25  C   UNL     1       9.421  12.108  21.422  0.00  0.00    +0.000 A 
ATOM     26  C   UNL     1       9.256  10.947  20.660  0.00  0.00    +0.000 A 
ENDBRANCH  19  20
ENDBRANCH  18  19
ENDBRANCH   4  18
TORSDOF 7
ENDMDL
MODEL 5
REMARK VINA RESULT:      -7.9      4.823      6.977
REMARK  Name = 
REMARK  7 active torsions:
REMARK  status: ('A' for Active; 'I' for Inactive)
REMARK    1  A    between atoms: C_2  and  C_3
REMARK    2  A    between atoms: C_3  and  S_4
REMARK    3  A    between atoms: S_4  and  C_5
REMARK    4  A    between atoms: C_8  and  C_9
REMARK    5  A    between atoms: C_9  and  O_10
REMARK    6  A    between atoms: O_10  and  C_11
REMARK    7  A    between atoms: N_19  and  C_20
REMARK                            x       y       z     vdW  Elec       q    Type
REMARK                         _______ _______ _______ _____ _____    ______ ____
ROOT
ATOM      1  C   UNL     1       3.011   3.772  20.402  0.00  0.00    +0.000 A 
ATOM      2  N   UNL     1       1.753   3.715  20.800  0.00  0.00    +0.000 NA
ATOM      3  N   UNL     1       1.248   4.988  20.700  0.00  0.00    +0.000 NA
ATOM      4  C   UNL     1       2.235   5.745  20.262  0.00  0.00    +0.000 A 
ATOM      5  O   UNL     1       3.390   5.039  20.060  0.00  0.00    +0.000 OA
ENDROOT
BRANCH   1   6
ATOM      6  S   UNL     1       4.063   2.403  20.252  0.00  0.00    +0.000 S 
BRANCH   6   7
ATOM      7  C   UNL     1       3.392   1.627  18.756  0.00  0.00    +0.000 C 
BRANCH   7   9
ATOM      8  O   UNL     1       2.326   2.902  17.019  0.00  0.00    +0.000 OA
ATOM      9  C   UNL     1       3.375   2.599  17.586  0.00  0.00    +0.000 C 
ATOM     10  N   UNL     1       4.608   3.120  17.239  0.00  0.00    +0.000 N 
ATOM     11  H   UNL     1       5.429   2.781  17.734  0.00  0.00    +0.000 HD
BRANCH  10  12
ATOM     12  C   UNL     1       4.786   4.181  16.252  0.00  0.00    +0.000 C 
ATOM     13  C   UNL     1       4.523   5.560  16.870  0.00  0.00    +0.000 C 
ATOM     14  C   UNL     1       5.649   6.094  17.755  0.00  0.00    +0.000 C 
ATOM     15  C   UNL     1       7.061   5.875  17.211  0.00  0.00    +0.000 C 
ATOM     16  C   UNL     1       7.273   4.508  16.576  0.00  0.00    +0.000 C 
ATOM     17  C   UNL     1       6.167   4.177  15.584  0.00  0.00    +0.000 C 
ENDBRANCH  10  12
ENDBRANCH   7   9
ENDBRANCH   6   7
ENDBRANCH   1   6
BRANCH   4  18
ATOM     18  C   UNL     1       2.235   7.177  19.885  0.00  0.00    +0.000 C 
BRANCH  18  19
ATOM     19  O   UNL     1       1.280   7.833  20.713  0.00  0.00    +0.000 OA
BRANCH  19  20
ATOM     20  C   UNL     1       1.031   9.148  20.433  0.00  0.00    +0.000 A 
ATOM     21  C   UNL     1       0.694  10.137  21.359  0.00  0.00    +0.000 A 
ATOM     22  C   UNL     1       0.466  11.452  20.936  0.00  0.00    +0.000 A 
ATOM     23  C   UNL     1       0.572  11.774  19.586  0.00  0.00    +0.000 A 
ATOM     24 BR   UNL     1       0.269  13.552  19.021  0.00  0.00    +0.000 Br
ATOM     25  C   UNL     1       0.900  10.796  18.651  0.00  0.00    +0.000 A 
ATOM     26  C   UNL     1       1.127   9.484  19.078  0.00  0.00    +0.000 A 
ENDBRANCH  19  20
ENDBRANCH  18  19
ENDBRANCH   4  18
TORSDOF 7
ENDMDL
MODEL 6
REMARK VINA RESULT:      -7.8      5.060      7.480
REMARK  Name = 
REMARK  7 active torsions:
REMARK  status: ('A' for Active; 'I' for Inactive)
REMARK    1  A    between atoms: C_2  and  C_3
REMARK    2  A    between atoms: C_3  and  S_4
REMARK    3  A    between atoms: S_4  and  C_5
REMARK    4  A    between atoms: C_8  and  C_9
REMARK    5  A    between atoms: C_9  and  O_10
REMARK    6  A    between atoms: O_10  and  C_11
REMARK    7  A    between atoms: N_19  and  C_20
REMARK                            x       y       z     vdW  Elec       q    Type
REMARK                         _______ _______ _______ _____ _____    ______ ____
ROOT
ATOM      1  C   UNL     1       2.796   3.795  20.349  0.00  0.00    +0.000 A 
ATOM      2  N   UNL     1       1.512   3.689  20.639  0.00  0.00    +0.000 NA
ATOM      3  N   UNL     1       0.995   4.962  20.615  0.00  0.00    +0.000 NA
ATOM      4  C   UNL     1       2.001   5.765  20.327  0.00  0.00    +0.000 A 
ATOM      5  O   UNL     1       3.179   5.091  20.155  0.00  0.00    +0.000 OA
ENDROOT
BRANCH   1   6
ATOM      6  S   UNL     1       3.879   2.455  20.159  0.00  0.00    +0.000 S 
BRANCH   6   7
ATOM      7  C   UNL     1       3.332   1.805  18.557  0.00  0.00    +0.000 C 
BRANCH   7   9
ATOM      8  O   UNL     1       2.199   3.122  16.897  0.00  0.00    +0.000 OA
ATOM      9  C   UNL     1       3.242   2.907  17.513  0.00  0.00    +0.000 C 
ATOM     10  N   UNL     1       4.398   3.644  17.337  0.00  0.00    +0.000 N 
ATOM     11  H   UNL     1       5.227   3.368  17.857  0.00  0.00    +0.000 HD
BRANCH  10  12
ATOM     12  C   UNL     1       4.474   4.838  16.500  0.00  0.00    +0.000 C 
ATOM     13  C   UNL     1       4.747   6.088  17.345  0.00  0.00    +0.000 C 
ATOM     14  C   UNL     1       6.193   6.240  17.820  0.00  0.00    +0.000 C 
ATOM     15  C   UNL     1       7.257   5.905  16.775  0.00  0.00    +0.000 C 
ATOM     16  C   UNL     1       6.933   4.678  15.933  0.00  0.00    +0.000 C 
ATOM     17  C   UNL     1       5.517   4.741  15.380  0.00  0.00    +0.000 C 
ENDBRANCH  10  12
ENDBRANCH   7   9
ENDBRANCH   6   7
ENDBRANCH   1   6
BRANCH   4  18
ATOM     18  C   UNL     1       2.006   7.225  20.083  0.00  0.00    +0.000 C 
BRANCH  18  19
ATOM     19  O   UNL     1       1.823   7.866  21.341  0.00  0.00    +0.000 OA
BRANCH  19  20
ATOM     20  C   UNL     1       0.974   8.937  21.363  0.00  0.00    +0.000 A 
ATOM     21  C   UNL     1       0.743   9.825  20.311  0.00  0.00    +0.000 A 
ATOM     22  C   UNL     1      -0.158  10.885  20.467  0.00  0.00    +0.000 A 
ATOM     23  C   UNL     1      -0.825  11.056  21.676  0.00  0.00    +0.000 A 
ATOM     24 BR   UNL     1      -2.046  12.484  21.880  0.00  0.00    +0.000 Br
ATOM     25  C   UNL     1      -0.599  10.182  22.736  0.00  0.00    +0.000 A 
ATOM     26  C   UNL     1       0.303   9.125  22.576  0.00  0.00    +0.000 A 
ENDBRANCH  19  20
ENDBRANCH  18  19
ENDBRANCH   4  18
TORSDOF 7
ENDMDL
MODEL 7
REMARK VINA RESULT:      -7.7      5.437      7.374
REMARK  Name = 
REMARK  7 active torsions:
REMARK  status: ('A' for Active; 'I' for Inactive)
REMARK    1  A    between atoms: C_2  and  C_3
REMARK    2  A    between atoms: C_3  and  S_4
REMARK    3  A    between atoms: S_4  and  C_5
REMARK    4  A    between atoms: C_8  and  C_9
REMARK    5  A    between atoms: C_9  and  O_10
REMARK    6  A    between atoms: O_10  and  C_11
REMARK    7  A    between atoms: N_19  and  C_20
REMARK                            x       y       z     vdW  Elec       q    Type
REMARK                         _______ _______ _______ _____ _____    ______ ____
ROOT
ATOM      1  C   UNL     1       1.780   3.612  18.771  0.00  0.00    +0.000 A 
ATOM      2  N   UNL     1       1.547   4.274  17.653  0.00  0.00    +0.000 NA
ATOM      3  N   UNL     1       1.706   5.607  17.942  0.00  0.00    +0.000 NA
ATOM      4  C   UNL     1       2.010   5.675  19.223  0.00  0.00    +0.000 A 
ATOM      5  O   UNL     1       2.064   4.443  19.816  0.00  0.00    +0.000 OA
ENDROOT
BRANCH   1   6
ATOM      6  S   UNL     1       1.800   1.884  18.911  0.00  0.00    +0.000 S 
BRANCH   6   7
ATOM      7  C   UNL     1       3.516   1.530  18.446  0.00  0.00    +0.000 C 
BRANCH   7   9
ATOM      8  O   UNL     1       4.939   2.616  20.050  0.00  0.00    +0.000 OA
ATOM      9  C   UNL     1       4.458   2.627  18.918  0.00  0.00    +0.000 C 
ATOM     10  N   UNL     1       4.738   3.603  17.979  0.00  0.00    +0.000 N 
ATOM     11  H   UNL     1       4.261   3.557  17.083  0.00  0.00    +0.000 HD
BRANCH  10  12
ATOM     12  C   UNL     1       5.733   4.652  18.179  0.00  0.00    +0.000 C 
ATOM     13  C   UNL     1       7.037   4.324  17.441  0.00  0.00    +0.000 C 
ATOM     14  C   UNL     1       6.995   4.551  15.930  0.00  0.00    +0.000 C 
ATOM     15  C   UNL     1       6.290   5.833  15.486  0.00  0.00    +0.000 C 
ATOM     16  C   UNL     1       5.019   6.142  16.265  0.00  0.00    +0.000 C 
ATOM     17  C   UNL     1       5.250   6.048  17.766  0.00  0.00    +0.000 C 
ENDBRANCH  10  12
ENDBRANCH   7   9
ENDBRANCH   6   7
ENDBRANCH   1   6
BRANCH   4  18
ATOM     18  C   UNL     1       2.377   6.848  20.049  0.00  0.00    +0.000 C 
BRANCH  18  19
ATOM     19  O   UNL     1       1.916   8.009  19.365  0.00  0.00    +0.000 OA
BRANCH  19  20
ATOM     20  C   UNL     1       1.133   8.870  20.082  0.00  0.00    +0.000 A 
ATOM     21  C   UNL     1       0.409   9.946  19.568  0.00  0.00    +0.000 A 
ATOM     22  C   UNL     1      -0.358  10.751  20.418  0.00  0.00    +0.000 A 
ATOM     23  C   UNL     1      -0.397  10.479  21.782  0.00  0.00    +0.000 A 
ATOM     24 BR   UNL     1      -1.439  11.565  22.925  0.00  0.00    +0.000 Br
ATOM     25  C   UNL     1       0.326   9.413  22.310  0.00  0.00    +0.000 A 
ATOM     26  C   UNL     1       1.091   8.611  21.457  0.00  0.00    +0.000 A 
ENDBRANCH  19  20
ENDBRANCH  18  19
ENDBRANCH   4  18
TORSDOF 7
ENDMDL
MODEL 8
REMARK VINA RESULT:      -7.7      1.527      2.018
REMARK  Name = 
REMARK  7 active torsions:
REMARK  status: ('A' for Active; 'I' for Inactive)
REMARK    1  A    between atoms: C_2  and  C_3
REMARK    2  A    between atoms: C_3  and  S_4
REMARK    3  A    between atoms: S_4  and  C_5
REMARK    4  A    between atoms: C_8  and  C_9
REMARK    5  A    between atoms: C_9  and  O_10
REMARK    6  A    between atoms: O_10  and  C_11
REMARK    7  A    between atoms: N_19  and  C_20
REMARK                            x       y       z     vdW  Elec       q    Type
REMARK                         _______ _______ _______ _____ _____    ______ ____
ROOT
ATOM      1  C   UNL     1       7.325   5.264  17.074  0.00  0.00    +0.000 A 
ATOM      2  N   UNL     1       7.384   4.573  18.198  0.00  0.00    +0.000 NA
ATOM      3  N   UNL     1       7.865   5.426  19.162  0.00  0.00    +0.000 NA
ATOM      4  C   UNL     1       8.084   6.579  18.560  0.00  0.00    +0.000 A 
ATOM      5  O   UNL     1       7.771   6.545  17.228  0.00  0.00    +0.000 OA
ENDROOT
BRANCH   1   6
ATOM      6  S   UNL     1       6.691   4.662  15.577  0.00  0.00    +0.000 S 
BRANCH   6   7
ATOM      7  C   UNL     1       5.169   5.638  15.442  0.00  0.00    +0.000 C 
BRANCH   7   9
ATOM      8  O   UNL     1       4.321   7.004  17.228  0.00  0.00    +0.000 OA
ATOM      9  C   UNL     1       4.534   5.869  16.805  0.00  0.00    +0.000 C 
ATOM     10  N   UNL     1       4.203   4.721  17.499  0.00  0.00    +0.000 N 
ATOM     11  H   UNL     1       4.456   3.824  17.092  0.00  0.00    +0.000 HD
BRANCH  10  12
ATOM     12  C   UNL     1       3.448   4.724  18.749  0.00  0.00    +0.000 C 
ATOM     13  C   UNL     1       1.938   4.730  18.482  0.00  0.00    +0.000 C 
ATOM     14  C   UNL     1       1.355   3.385  18.048  0.00  0.00    +0.000 C 
ATOM     15  C   UNL     1       1.884   2.172  18.814  0.00  0.00    +0.000 C 
ATOM     16  C   UNL     1       3.381   2.219  19.090  0.00  0.00    +0.000 C 
ATOM     17  C   UNL     1       3.796   3.558  19.683  0.00  0.00    +0.000 C 
ENDBRANCH  10  12
ENDBRANCH   7   9
ENDBRANCH   6   7
ENDBRANCH   1   6
BRANCH   4  18
ATOM     18  C   UNL     1       8.514   7.877  19.128  0.00  0.00    +0.000 C 
BRANCH  18  19
ATOM     19  O   UNL     1       8.376   8.855  18.103  0.00  0.00    +0.000 OA
BRANCH  19  20
ATOM     20  C   UNL     1       8.779  10.125  18.412  0.00  0.00    +0.000 A 
ATOM     21  C   UNL     1       8.543  11.271  17.652  0.00  0.00    +0.000 A 
ATOM     22  C   UNL     1       9.011  12.516  18.087  0.00  0.00    +0.000 A 
ATOM     23  C   UNL     1       9.717  12.612  19.283  0.00  0.00    +0.000 A 
ATOM     24 BR   UNL     1      10.342  14.296  19.870  0.00  0.00    +0.000 Br
ATOM     25  C   UNL     1       9.965  11.476  20.048  0.00  0.00    +0.000 A 
ATOM     26  C   UNL     1       9.496  10.234  19.609  0.00  0.00    +0.000 A 
ENDBRANCH  19  20
ENDBRANCH  18  19
ENDBRANCH   4  18
TORSDOF 7
ENDMDL
MODEL 9
REMARK VINA RESULT:      -7.7      5.626      6.943
REMARK  Name = 
REMARK  7 active torsions:
REMARK  status: ('A' for Active; 'I' for Inactive)
REMARK    1  A    between atoms: C_2  and  C_3
REMARK    2  A    between atoms: C_3  and  S_4
REMARK    3  A    between atoms: S_4  and  C_5
REMARK    4  A    between atoms: C_8  and  C_9
REMARK    5  A    between atoms: C_9  and  O_10
REMARK    6  A    between atoms: O_10  and  C_11
REMARK    7  A    between atoms: N_19  and  C_20
REMARK                            x       y       z     vdW  Elec       q    Type
REMARK                         _______ _______ _______ _____ _____    ______ ____
ROOT
ATOM      1  C   UNL     1       3.209   7.597  17.769  0.00  0.00    +0.000 A 
ATOM      2  N   UNL     1       2.527   8.687  17.468  0.00  0.00    +0.000 NA
ATOM      3  N   UNL     1       1.688   8.935  18.527  0.00  0.00    +0.000 NA
ATOM      4  C   UNL     1       1.901   7.971  19.402  0.00  0.00    +0.000 A 
ATOM      5  O   UNL     1       2.850   7.079  18.980  0.00  0.00    +0.000 OA
ENDROOT
BRANCH   1   6
ATOM      6  S   UNL     1       4.472   6.921  16.794  0.00  0.00    +0.000 S 
BRANCH   6   7
ATOM      7  C   UNL     1       5.254   5.801  17.987  0.00  0.00    +0.000 C 
BRANCH   7   9
ATOM      8  O   UNL     1       5.052   3.611  17.016  0.00  0.00    +0.000 OA
ATOM      9  C   UNL     1       4.680   4.395  17.888  0.00  0.00    +0.000 C 
ATOM     10  N   UNL     1       3.745   4.075  18.855  0.00  0.00    +0.000 N 
ATOM     11  H   UNL     1       3.464   4.800  19.510  0.00  0.00    +0.000 HD
BRANCH  10  12
ATOM     12  C   UNL     1       3.192   2.735  19.028  0.00  0.00    +0.000 C 
ATOM     13  C   UNL     1       3.504   2.187  20.427  0.00  0.00    +0.000 C 
ATOM     14  C   UNL     1       2.644   2.766  21.551  0.00  0.00    +0.000 C 
ATOM     15  C   UNL     1       1.160   2.921  21.219  0.00  0.00    +0.000 C 
ATOM     16  C   UNL     1       0.892   3.435  19.811  0.00  0.00    +0.000 C 
ATOM     17  C   UNL     1       1.682   2.652  18.772  0.00  0.00    +0.000 C 
ENDBRANCH  10  12
ENDBRANCH   7   9
ENDBRANCH   6   7
ENDBRANCH   1   6
BRANCH   4  18
ATOM     18  C   UNL     1       1.344   7.786  20.761  0.00  0.00    +0.000 C 
BRANCH  18  19
ATOM     19  O   UNL     1       1.752   8.904  21.542  0.00  0.00    +0.000 OA
BRANCH  19  20
ATOM     20  C   UNL     1       0.789   9.830  21.832  0.00  0.00    +0.000 A 
ATOM     21  C   UNL     1       0.596  11.048  21.179  0.00  0.00    +0.000 A 
ATOM     22  C   UNL     1      -0.434  11.907  21.577  0.00  0.00    +0.000 A 
ATOM     23  C   UNL     1      -1.269  11.547  22.631  0.00  0.00    +0.000 A 
ATOM     24 BR   UNL     1      -2.663  12.707  23.161  0.00  0.00    +0.000 Br
ATOM     25  C   UNL     1      -1.083  10.338  23.296  0.00  0.00    +0.000 A 
ATOM     26  C   UNL     1      -0.052   9.483  22.895  0.00  0.00    +0.000 A 
ENDBRANCH  19  20
ENDBRANCH  18  19
ENDBRANCH   4  18
TORSDOF 7
ENDMDL
