MODEL 1
REMARK VINA RESULT:      -7.3      0.000      0.000
REMARK  Name = 
REMARK  2 active torsions:
REMARK  status: ('A' for Active; 'I' for Inactive)
REMARK    1  A    between atoms: C_1  and  N_2
REMARK    2  A    between atoms: N_10  and  C_11
REMARK                            x       y       z     vdW  Elec       q    Type
REMARK                         _______ _______ _______ _____ _____    ______ ____
ROOT
ATOM      1  C   UNL     1       7.933   5.063  12.921  0.00  0.00    +0.000 C 
ATOM      2  N   UNL     1       6.623   4.766  13.445  0.00  0.00    +0.000 N 
ATOM      3  C   UNL     1       6.513   4.736  14.823  0.00  0.00    +0.000 A 
ATOM      4  N   UNL     1       7.333   5.494  15.591  0.00  0.00    +0.000 NA
ATOM      5  C   UNL     1       7.106   5.520  16.924  0.00  0.00    +0.000 A 
ATOM      6  C   UNL     1       6.099   4.797  17.473  0.00  0.00    +0.000 A 
ATOM      7  C   UNL     1       5.343   4.027  16.629  0.00  0.00    +0.000 A 
ATOM      8  N   UNL     1       5.522   3.962  15.301  0.00  0.00    +0.000 NA
ATOM      9  C   UNL     1       4.234   3.376  17.402  0.00  0.00    +0.000 C 
ATOM     10  N   UNL     1       4.435   3.890  18.755  0.00  0.00    +0.000 N 
ATOM     11  C   UNL     1       5.527   4.750  18.809  0.00  0.00    +0.000 C 
ATOM     12  O   UNL     1       5.927   5.423  19.737  0.00  0.00    +0.000 OA
ATOM     13  H   UNL     1       6.164   3.940  13.081  0.00  0.00    +0.000 HD
ENDROOT
BRANCH  10  14
ATOM     14  C   UNL     1       3.385   3.901  19.762  0.00  0.00    +0.000 C 
ATOM     15  C   UNL     1       2.220   4.845  19.471  0.00  0.00    +0.000 C 
ATOM     16  C   UNL     1       1.125   4.377  20.417  0.00  0.00    +0.000 C 
ATOM     17  C   UNL     1       1.341   2.875  20.582  0.00  0.00    +0.000 C 
ATOM     18  C   UNL     1       2.685   2.553  19.931  0.00  0.00    +0.000 C 
ENDBRANCH  10  14
TORSDOF 1
ENDMDL
MODEL 2
REMARK VINA RESULT:      -7.1      1.356      1.382
REMARK  Name = 
REMARK  2 active torsions:
REMARK  status: ('A' for Active; 'I' for Inactive)
REMARK    1  A    between atoms: C_1  and  N_2
REMARK    2  A    between atoms: N_10  and  C_11
REMARK                            x       y       z     vdW  Elec       q    Type
REMARK                         _______ _______ _______ _____ _____    ______ ____
ROOT
ATOM      1  C   UNL     1       7.263   4.394  12.682  0.00  0.00    +0.000 C 
ATOM      2  N   UNL     1       6.421   3.619  13.560  0.00  0.00    +0.000 N 
ATOM      3  C   UNL     1       5.957   4.271  14.687  0.00  0.00    +0.000 A 
ATOM      4  N   UNL     1       5.771   5.614  14.672  0.00  0.00    +0.000 NA
ATOM      5  C   UNL     1       5.202   6.186  15.758  0.00  0.00    +0.000 A 
ATOM      6  C   UNL     1       4.845   5.439  16.831  0.00  0.00    +0.000 A 
ATOM      7  C   UNL     1       5.105   4.095  16.779  0.00  0.00    +0.000 A 
ATOM      8  N   UNL     1       5.666   3.474  15.731  0.00  0.00    +0.000 NA
ATOM      9  C   UNL     1       4.564   3.431  18.011  0.00  0.00    +0.000 C 
ATOM     10  N   UNL     1       3.950   4.541  18.736  0.00  0.00    +0.000 N 
ATOM     11  C   UNL     1       4.091   5.736  18.039  0.00  0.00    +0.000 C 
ATOM     12  O   UNL     1       3.631   6.831  18.294  0.00  0.00    +0.000 OA
ATOM     13  H   UNL     1       6.777   2.717  13.851  0.00  0.00    +0.000 HD
ENDROOT
BRANCH  10  14
ATOM     14  C   UNL     1       2.932   4.352  19.759  0.00  0.00    +0.000 C 
ATOM     15  C   UNL     1       1.514   4.149  19.229  0.00  0.00    +0.000 C 
ATOM     16  C   UNL     1       0.755   3.588  20.422  0.00  0.00    +0.000 C 
ATOM     17  C   UNL     1       1.782   2.791  21.222  0.00  0.00    +0.000 C 
ATOM     18  C   UNL     1       3.149   3.105  20.615  0.00  0.00    +0.000 C 
ENDBRANCH  10  14
TORSDOF 1
ENDMDL
MODEL 3
REMARK VINA RESULT:      -6.7      0.572      1.113
REMARK  Name = 
REMARK  2 active torsions:
REMARK  status: ('A' for Active; 'I' for Inactive)
REMARK    1  A    between atoms: C_1  and  N_2
REMARK    2  A    between atoms: N_10  and  C_11
REMARK                            x       y       z     vdW  Elec       q    Type
REMARK                         _______ _______ _______ _____ _____    ______ ____
ROOT
ATOM      1  C   UNL     1       8.330   5.450  13.132  0.00  0.00    +0.000 C 
ATOM      2  N   UNL     1       6.977   5.089  13.477  0.00  0.00    +0.000 N 
ATOM      3  C   UNL     1       6.718   4.922  14.824  0.00  0.00    +0.000 A 
ATOM      4  N   UNL     1       7.432   5.610  15.748  0.00  0.00    +0.000 NA
ATOM      5  C   UNL     1       7.060   5.503  17.045  0.00  0.00    +0.000 A 
ATOM      6  C   UNL     1       6.015   4.718  17.405  0.00  0.00    +0.000 A 
ATOM      7  C   UNL     1       5.373   4.026  16.412  0.00  0.00    +0.000 A 
ATOM      8  N   UNL     1       5.697   4.094  15.113  0.00  0.00    +0.000 NA
ATOM      9  C   UNL     1       4.200   3.290  16.991  0.00  0.00    +0.000 C 
ATOM     10  N   UNL     1       4.241   3.670  18.401  0.00  0.00    +0.000 N 
ATOM     11  C   UNL     1       5.301   4.534  18.659  0.00  0.00    +0.000 C 
ATOM     12  O   UNL     1       5.582   5.116  19.687  0.00  0.00    +0.000 OA
ATOM     13  H   UNL     1       6.579   4.297  12.987  0.00  0.00    +0.000 HD
ENDROOT
BRANCH  10  14
ATOM     14  C   UNL     1       3.087   3.571  19.282  0.00  0.00    +0.000 C 
ATOM     15  C   UNL     1       3.351   2.876  20.617  0.00  0.00    +0.000 C 
ATOM     16  C   UNL     1       2.153   3.258  21.471  0.00  0.00    +0.000 C 
ATOM     17  C   UNL     1       1.732   4.644  20.989  0.00  0.00    +0.000 C 
ATOM     18  C   UNL     1       2.532   4.927  19.718  0.00  0.00    +0.000 C 
ENDBRANCH  10  14
TORSDOF 1
ENDMDL
MODEL 4
REMARK VINA RESULT:      -6.3      1.170      1.332
REMARK  Name = 
REMARK  2 active torsions:
REMARK  status: ('A' for Active; 'I' for Inactive)
REMARK    1  A    between atoms: C_1  and  N_2
REMARK    2  A    between atoms: N_10  and  C_11
REMARK                            x       y       z     vdW  Elec       q    Type
REMARK                         _______ _______ _______ _____ _____    ______ ____
ROOT
ATOM      1  C   UNL     1       6.959   3.556  12.041  0.00  0.00    +0.000 C 
ATOM      2  N   UNL     1       5.759   3.715  12.824  0.00  0.00    +0.000 N 
ATOM      3  C   UNL     1       5.941   4.011  14.162  0.00  0.00    +0.000 A 
ATOM      4  N   UNL     1       7.044   4.689  14.568  0.00  0.00    +0.000 NA
ATOM      5  C   UNL     1       7.116   5.058  15.867  0.00  0.00    +0.000 A 
ATOM      6  C   UNL     1       6.123   4.745  16.736  0.00  0.00    +0.000 A 
ATOM      7  C   UNL     1       5.064   4.023  16.251  0.00  0.00    +0.000 A 
ATOM      8  N   UNL     1       4.939   3.631  14.974  0.00  0.00    +0.000 NA
ATOM      9  C   UNL     1       4.037   3.853  17.331  0.00  0.00    +0.000 C 
ATOM     10  N   UNL     1       4.622   4.579  18.454  0.00  0.00    +0.000 N 
ATOM     11  C   UNL     1       5.851   5.132  18.111  0.00  0.00    +0.000 C 
ATOM     12  O   UNL     1       6.569   5.867  18.758  0.00  0.00    +0.000 OA
ATOM     13  H   UNL     1       5.075   2.971  12.764  0.00  0.00    +0.000 HD
ENDROOT
BRANCH  10  14
ATOM     14  C   UNL     1       3.835   5.069  19.577  0.00  0.00    +0.000 C 
ATOM     15  C   UNL     1       2.927   6.256  19.260  0.00  0.00    +0.000 C 
ATOM     16  C   UNL     1       1.960   6.299  20.432  0.00  0.00    +0.000 C 
ATOM     17  C   UNL     1       1.800   4.850  20.885  0.00  0.00    +0.000 C 
ATOM     18  C   UNL     1       2.852   4.038  20.131  0.00  0.00    +0.000 C 
ENDBRANCH  10  14
TORSDOF 1
ENDMDL
MODEL 5
REMARK VINA RESULT:      -6.3      1.538      6.253
REMARK  Name = 
REMARK  2 active torsions:
REMARK  status: ('A' for Active; 'I' for Inactive)
REMARK    1  A    between atoms: C_1  and  N_2
REMARK    2  A    between atoms: N_10  and  C_11
REMARK                            x       y       z     vdW  Elec       q    Type
REMARK                         _______ _______ _______ _____ _____    ______ ____
ROOT
ATOM      1  C   UNL     1       1.222   3.678  20.674  0.00  0.00    +0.000 C 
ATOM      2  N   UNL     1       1.499   3.380  19.290  0.00  0.00    +0.000 N 
ATOM      3  C   UNL     1       2.747   3.752  18.827  0.00  0.00    +0.000 A 
ATOM      4  N   UNL     1       3.803   3.806  19.675  0.00  0.00    +0.000 NA
ATOM      5  C   UNL     1       5.024   4.058  19.149  0.00  0.00    +0.000 A 
ATOM      6  C   UNL     1       5.179   4.266  17.819  0.00  0.00    +0.000 A 
ATOM      7  C   UNL     1       4.053   4.234  17.039  0.00  0.00    +0.000 A 
ATOM      8  N   UNL     1       2.819   3.989  17.505  0.00  0.00    +0.000 NA
ATOM      9  C   UNL     1       4.435   4.397  15.598  0.00  0.00    +0.000 C 
ATOM     10  N   UNL     1       5.892   4.492  15.656  0.00  0.00    +0.000 N 
ATOM     11  C   UNL     1       6.350   4.396  16.966  0.00  0.00    +0.000 C 
ATOM     12  O   UNL     1       7.492   4.344  17.377  0.00  0.00    +0.000 OA
ATOM     13  H   UNL     1       0.813   3.690  18.613  0.00  0.00    +0.000 HD
ENDROOT
BRANCH  10  14
ATOM     14  C   UNL     1       6.750   4.227  14.511  0.00  0.00    +0.000 C 
ATOM     15  C   UNL     1       6.027   3.711  13.268  0.00  0.00    +0.000 C 
ATOM     16  C   UNL     1       7.039   3.906  12.150  0.00  0.00    +0.000 C 
ATOM     17  C   UNL     1       7.858   5.131  12.547  0.00  0.00    +0.000 C 
ATOM     18  C   UNL     1       7.468   5.470  13.985  0.00  0.00    +0.000 C 
ENDBRANCH  10  14
TORSDOF 1
ENDMDL
MODEL 6
REMARK VINA RESULT:      -6.3      1.088      1.345
REMARK  Name = 
REMARK  2 active torsions:
REMARK  status: ('A' for Active; 'I' for Inactive)
REMARK    1  A    between atoms: C_1  and  N_2
REMARK    2  A    between atoms: N_10  and  C_11
REMARK                            x       y       z     vdW  Elec       q    Type
REMARK                         _______ _______ _______ _____ _____    ______ ____
ROOT
ATOM      1  C   UNL     1       7.888   5.390  13.004  0.00  0.00    +0.000 C 
ATOM      2  N   UNL     1       6.904   4.441  13.462  0.00  0.00    +0.000 N 
ATOM      3  C   UNL     1       6.346   4.695  14.701  0.00  0.00    +0.000 A 
ATOM      4  N   UNL     1       6.242   5.969  15.155  0.00  0.00    +0.000 NA
ATOM      5  C   UNL     1       5.581   6.173  16.318  0.00  0.00    +0.000 A 
ATOM      6  C   UNL     1       5.055   5.134  17.012  0.00  0.00    +0.000 A 
ATOM      7  C   UNL     1       5.242   3.876  16.502  0.00  0.00    +0.000 A 
ATOM      8  N   UNL     1       5.887   3.613  15.355  0.00  0.00    +0.000 NA
ATOM      9  C   UNL     1       4.519   2.876  17.356  0.00  0.00    +0.000 C 
ATOM     10  N   UNL     1       3.888   3.713  18.373  0.00  0.00    +0.000 N 
ATOM     11  C   UNL     1       4.181   5.058  18.171  0.00  0.00    +0.000 C 
ATOM     12  O   UNL     1       3.758   6.031  18.761  0.00  0.00    +0.000 OA
ATOM     13  H   UNL     1       7.169   3.464  13.439  0.00  0.00    +0.000 HD
ENDROOT
BRANCH  10  14
ATOM     14  C   UNL     1       2.746   3.276  19.162  0.00  0.00    +0.000 C 
ATOM     15  C   UNL     1       2.995   3.189  20.667  0.00  0.00    +0.000 C 
ATOM     16  C   UNL     1       1.599   3.118  21.265  0.00  0.00    +0.000 C 
ATOM     17  C   UNL     1       0.706   3.915  20.317  0.00  0.00    +0.000 C 
ATOM     18  C   UNL     1       1.547   4.220  19.078  0.00  0.00    +0.000 C 
ENDBRANCH  10  14
TORSDOF 1
ENDMDL
MODEL 7
REMARK VINA RESULT:      -6.2      1.525      2.061
REMARK  Name = 
REMARK  2 active torsions:
REMARK  status: ('A' for Active; 'I' for Inactive)
REMARK    1  A    between atoms: C_1  and  N_2
REMARK    2  A    between atoms: N_10  and  C_11
REMARK                            x       y       z     vdW  Elec       q    Type
REMARK                         _______ _______ _______ _____ _____    ______ ____
ROOT
ATOM      1  C   UNL     1       7.977   5.362  13.069  0.00  0.00    +0.000 C 
ATOM      2  N   UNL     1       7.876   5.524  14.499  0.00  0.00    +0.000 N 
ATOM      3  C   UNL     1       6.699   5.090  15.078  0.00  0.00    +0.000 A 
ATOM      4  N   UNL     1       5.993   4.078  14.515  0.00  0.00    +0.000 NA
ATOM      5  C   UNL     1       4.913   3.611  15.184  0.00  0.00    +0.000 A 
ATOM      6  C   UNL     1       4.544   4.151  16.371  0.00  0.00    +0.000 A 
ATOM      7  C   UNL     1       5.290   5.197  16.849  0.00  0.00    +0.000 A 
ATOM      8  N   UNL     1       6.368   5.700  16.230  0.00  0.00    +0.000 NA
ATOM      9  C   UNL     1       4.783   5.598  18.203  0.00  0.00    +0.000 C 
ATOM     10  N   UNL     1       3.700   4.647  18.440  0.00  0.00    +0.000 N 
ATOM     11  C   UNL     1       3.558   3.769  17.370  0.00  0.00    +0.000 C 
ATOM     12  O   UNL     1       2.830   2.803  17.262  0.00  0.00    +0.000 OA
ATOM     13  H   UNL     1       8.079   6.445  14.867  0.00  0.00    +0.000 HD
ENDROOT
BRANCH  10  14
ATOM     14  C   UNL     1       3.188   4.343  19.768  0.00  0.00    +0.000 C 
ATOM     15  C   UNL     1       1.665   4.325  19.885  0.00  0.00    +0.000 C 
ATOM     16  C   UNL     1       1.408   3.609  21.202  0.00  0.00    +0.000 C 
ATOM     17  C   UNL     1       2.560   2.620  21.362  0.00  0.00    +0.000 C 
ATOM     18  C   UNL     1       3.576   2.952  20.269  0.00  0.00    +0.000 C 
ENDBRANCH  10  14
TORSDOF 1
ENDMDL
MODEL 8
REMARK VINA RESULT:      -6.1      2.636      6.186
REMARK  Name = 
REMARK  2 active torsions:
REMARK  status: ('A' for Active; 'I' for Inactive)
REMARK    1  A    between atoms: C_1  and  N_2
REMARK    2  A    between atoms: N_10  and  C_11
REMARK                            x       y       z     vdW  Elec       q    Type
REMARK                         _______ _______ _______ _____ _____    ______ ____
ROOT
ATOM      1  C   UNL     1       1.374   8.528  20.153  0.00  0.00    +0.000 C 
ATOM      2  N   UNL     1       1.962   8.478  18.837  0.00  0.00    +0.000 N 
ATOM      3  C   UNL     1       2.681   7.336  18.536  0.00  0.00    +0.000 A 
ATOM      4  N   UNL     1       2.365   6.155  19.122  0.00  0.00    +0.000 NA
ATOM      5  C   UNL     1       3.019   5.047  18.705  0.00  0.00    +0.000 A 
ATOM      6  C   UNL     1       3.971   5.122  17.743  0.00  0.00    +0.000 A 
ATOM      7  C   UNL     1       4.257   6.361  17.233  0.00  0.00    +0.000 A 
ATOM      8  N   UNL     1       3.641   7.492  17.607  0.00  0.00    +0.000 NA
ATOM      9  C   UNL     1       5.264   6.229  16.129  0.00  0.00    +0.000 C 
ATOM     10  N   UNL     1       5.484   4.786  16.060  0.00  0.00    +0.000 N 
ATOM     11  C   UNL     1       4.709   4.114  16.998  0.00  0.00    +0.000 C 
ATOM     12  O   UNL     1       4.569   2.918  17.162  0.00  0.00    +0.000 OA
ATOM     13  H   UNL     1       2.519   9.275  18.557  0.00  0.00    +0.000 HD
ENDROOT
BRANCH  10  14
ATOM     14  C   UNL     1       6.032   4.124  14.885  0.00  0.00    +0.000 C 
ATOM     15  C   UNL     1       5.033   3.879  13.756  0.00  0.00    +0.000 C 
ATOM     16  C   UNL     1       5.910   3.572  12.552  0.00  0.00    +0.000 C 
ATOM     17  C   UNL     1       7.192   4.372  12.765  0.00  0.00    +0.000 C 
ATOM     18  C   UNL     1       7.131   4.926  14.188  0.00  0.00    +0.000 C 
ENDBRANCH  10  14
TORSDOF 1
ENDMDL
MODEL 9
REMARK VINA RESULT:      -6.1      4.724      6.721
REMARK  Name = 
REMARK  2 active torsions:
REMARK  status: ('A' for Active; 'I' for Inactive)
REMARK    1  A    between atoms: C_1  and  N_2
REMARK    2  A    between atoms: N_10  and  C_11
REMARK                            x       y       z     vdW  Elec       q    Type
REMARK                         _______ _______ _______ _____ _____    ______ ____
ROOT
ATOM      1  C   UNL     1      -0.253  12.649  19.161  0.00  0.00    +0.000 C 
ATOM      2  N   UNL     1       0.165  11.604  18.259  0.00  0.00    +0.000 N 
ATOM      3  C   UNL     1       0.693  10.470  18.847  0.00  0.00    +0.000 A 
ATOM      4  N   UNL     1       0.299  10.098  20.090  0.00  0.00    +0.000 NA
ATOM      5  C   UNL     1       0.754   8.918  20.571  0.00  0.00    +0.000 A 
ATOM      6  C   UNL     1       1.589   8.143  19.837  0.00  0.00    +0.000 A 
ATOM      7  C   UNL     1       1.969   8.613  18.607  0.00  0.00    +0.000 A 
ATOM      8  N   UNL     1       1.550   9.773  18.080  0.00  0.00    +0.000 NA
ATOM      9  C   UNL     1       2.815   7.584  17.916  0.00  0.00    +0.000 C 
ATOM     10  N   UNL     1       2.840   6.485  18.877  0.00  0.00    +0.000 N 
ATOM     11  C   UNL     1       2.100   6.793  20.014  0.00  0.00    +0.000 C 
ATOM     12  O   UNL     1       1.829   6.090  20.967  0.00  0.00    +0.000 OA
ATOM     13  H   UNL     1       0.783  11.876  17.505  0.00  0.00    +0.000 HD
ENDROOT
BRANCH  10  14
ATOM     14  C   UNL     1       3.158   5.114  18.505  0.00  0.00    +0.000 C 
ATOM     15  C   UNL     1       2.041   4.365  17.782  0.00  0.00    +0.000 C 
ATOM     16  C   UNL     1       2.743   3.164  17.167  0.00  0.00    +0.000 C 
ATOM     17  C   UNL     1       4.164   3.634  16.862  0.00  0.00    +0.000 C 
ATOM     18  C   UNL     1       4.323   5.003  17.521  0.00  0.00    +0.000 C 
ENDBRANCH  10  14
TORSDOF 1
ENDMDL
