MODEL 1
REMARK VINA RESULT:      -7.4      0.000      0.000
REMARK  Name = 
REMARK  7 active torsions:
REMARK  status: ('A' for Active; 'I' for Inactive)
REMARK    1  A    between atoms: CB_1  and  CA_2
REMARK    2  A    between atoms: CA_2  and  N_3
REMARK    3  A    between atoms: CA_2  and  C_17
REMARK    4  A    between atoms: N_3  and  C_4
REMARK    5  A    between atoms: C_4  and  C_5
REMARK    6  A    between atoms: C_6  and  O_7
REMARK    7  A    between atoms: C_17  and  OXT_19
REMARK                            x       y       z     vdW  Elec       q    Type
REMARK                         _______ _______ _______ _____ _____    ______ ____
ROOT
ATOM      1  C   UNK A   0       3.005   3.527  18.231  0.00  0.00    +0.000 A 
ATOM      2  C   UNK A   0       2.629   2.383  18.950  0.00  0.00    +0.000 A 
ATOM      3  C   UNK A   0       1.956   2.481  20.168  0.00  0.00    +0.000 A 
ATOM      4  C   UNK A   0       1.650   3.731  20.708  0.00  0.00    +0.000 A 
ATOM      5  C   UNK A   0       2.005   4.889  20.016  0.00  0.00    +0.000 A 
ATOM      6  C   UNK A   0       1.709   6.211  20.546  0.00  0.00    +0.000 A 
ATOM      7  C   UNK A   0       2.061   7.297  19.855  0.00  0.00    +0.000 A 
ATOM      8  C   UNK A   0       2.747   7.217  18.558  0.00  0.00    +0.000 A 
ATOM      9  O   UNK A   0       3.058   8.234  17.945  0.00  0.00    +0.000 OA
ATOM     10  O   UNK A   0       3.023   5.946  18.078  0.00  0.00    +0.000 OA
ATOM     11  C   UNK A   0       2.666   4.773  18.790  0.00  0.00    +0.000 A 
ENDROOT
BRANCH   2  12
ATOM     12  O   UNK A   0       2.890   1.109  18.522  0.00  0.00    +0.000 OA
ATOM     13  H   UNK A   0       3.428   1.133  17.717  0.00  0.00    +0.000 HD
ENDBRANCH   2  12
BRANCH   1  14
ATOM     14  C   UNK A   0       3.761   3.444  16.929  0.00  0.00    +0.000 C 
BRANCH  14  15
ATOM     15  N   ALA A   1       5.202   3.675  17.129  0.00  0.00    +0.000 NA
ATOM     16  H   ALA A   1       5.357   4.051  18.066  0.00  0.00    +0.000 HD
BRANCH  15  18
ATOM     17  CB  ALA A   1       5.747   4.125  14.689  0.00  0.00    +0.000 C 
ATOM     18  CA  ALA A   1       5.792   4.614  16.133  0.00  0.00    +0.000 C 
BRANCH  18  19
ATOM     19  C   ALA A   1       7.211   5.016  16.572  0.00  0.00    +0.000 C 
ATOM     20  O   ALA A   1       8.022   4.277  17.105  0.00  0.00    +0.000 OA
BRANCH  19  21
ATOM     21  OXT ALA A   1       7.482   6.307  16.247  0.00  0.00    +0.000 OA
ATOM     22  HXT ALA A   1       8.452   6.447  16.367  0.00  0.00    +0.000 HD
ENDBRANCH  19  21
ENDBRANCH  18  19
ENDBRANCH  15  18
ENDBRANCH  14  15
ENDBRANCH   1  14
TORSDOF 6
ENDMDL
MODEL 2
REMARK VINA RESULT:      -7.4      1.614      3.825
REMARK  Name = 
REMARK  7 active torsions:
REMARK  status: ('A' for Active; 'I' for Inactive)
REMARK    1  A    between atoms: CB_1  and  CA_2
REMARK    2  A    between atoms: CA_2  and  N_3
REMARK    3  A    between atoms: CA_2  and  C_17
REMARK    4  A    between atoms: N_3  and  C_4
REMARK    5  A    between atoms: C_4  and  C_5
REMARK    6  A    between atoms: C_6  and  O_7
REMARK    7  A    between atoms: C_17  and  OXT_19
REMARK                            x       y       z     vdW  Elec       q    Type
REMARK                         _______ _______ _______ _____ _____    ______ ____
ROOT
ATOM      1  C   UNK A   0       3.526   5.896  18.219  0.00  0.00    +0.000 A 
ATOM      2  C   UNK A   0       2.892   7.126  18.445  0.00  0.00    +0.000 A 
ATOM      3  C   UNK A   0       2.080   7.330  19.562  0.00  0.00    +0.000 A 
ATOM      4  C   UNK A   0       1.870   6.300  20.480  0.00  0.00    +0.000 A 
ATOM      5  C   UNK A   0       2.490   5.065  20.287  0.00  0.00    +0.000 A 
ATOM      6  C   UNK A   0       2.292   3.964  21.217  0.00  0.00    +0.000 A 
ATOM      7  C   UNK A   0       2.904   2.797  21.003  0.00  0.00    +0.000 A 
ATOM      8  C   UNK A   0       3.785   2.569  19.848  0.00  0.00    +0.000 A 
ATOM      9  O   UNK A   0       4.334   1.485  19.678  0.00  0.00    +0.000 OA
ATOM     10  O   UNK A   0       3.950   3.633  18.974  0.00  0.00    +0.000 OA
ATOM     11  C   UNK A   0       3.311   4.883  19.171  0.00  0.00    +0.000 A 
ENDROOT
BRANCH   2  12
ATOM     12  O   UNK A   0       3.016   8.200  17.605  0.00  0.00    +0.000 OA
ATOM     13  H   UNK A   0       2.770   9.014  18.067  0.00  0.00    +0.000 HD
ENDBRANCH   2  12
BRANCH   1  14
ATOM     14  C   UNK A   0       4.380   5.646  17.002  0.00  0.00    +0.000 C 
BRANCH  14  15
ATOM     15  N   ALA A   1       5.479   6.622  16.908  0.00  0.00    +0.000 NA
ATOM     16  H   ALA A   1       5.828   6.647  15.948  0.00  0.00    +0.000 HD
BRANCH  15  18
ATOM     17  CB  ALA A   1       7.731   7.360  17.826  0.00  0.00    +0.000 C 
ATOM     18  CA  ALA A   1       6.617   6.318  17.822  0.00  0.00    +0.000 C 
BRANCH  18  19
ATOM     19  C   ALA A   1       7.144   4.898  17.543  0.00  0.00    +0.000 C 
ATOM     20  O   ALA A   1       7.817   4.570  16.579  0.00  0.00    +0.000 OA
BRANCH  19  21
ATOM     21  OXT ALA A   1       6.806   4.041  18.541  0.00  0.00    +0.000 OA
ATOM     22  HXT ALA A   1       6.963   3.124  18.211  0.00  0.00    +0.000 HD
ENDBRANCH  19  21
ENDBRANCH  18  19
ENDBRANCH  15  18
ENDBRANCH  14  15
ENDBRANCH   1  14
TORSDOF 6
ENDMDL
MODEL 3
REMARK VINA RESULT:      -7.3      1.670      2.177
REMARK  Name = 
REMARK  7 active torsions:
REMARK  status: ('A' for Active; 'I' for Inactive)
REMARK    1  A    between atoms: CB_1  and  CA_2
REMARK    2  A    between atoms: CA_2  and  N_3
REMARK    3  A    between atoms: CA_2  and  C_17
REMARK    4  A    between atoms: N_3  and  C_4
REMARK    5  A    between atoms: C_4  and  C_5
REMARK    6  A    between atoms: C_6  and  O_7
REMARK    7  A    between atoms: C_17  and  OXT_19
REMARK                            x       y       z     vdW  Elec       q    Type
REMARK                         _______ _______ _______ _____ _____    ______ ____
ROOT
ATOM      1  C   UNK A   0       3.818   5.267  17.972  0.00  0.00    +0.000 A 
ATOM      2  C   UNK A   0       3.894   4.113  18.765  0.00  0.00    +0.000 A 
ATOM      3  C   UNK A   0       3.258   4.042  20.006  0.00  0.00    +0.000 A 
ATOM      4  C   UNK A   0       2.536   5.132  20.493  0.00  0.00    +0.000 A 
ATOM      5  C   UNK A   0       2.436   6.294  19.726  0.00  0.00    +0.000 A 
ATOM      6  C   UNK A   0       1.697   7.454  20.200  0.00  0.00    +0.000 A 
ATOM      7  C   UNK A   0       1.619   8.547  19.438  0.00  0.00    +0.000 A 
ATOM      8  C   UNK A   0       2.258   8.634  18.117  0.00  0.00    +0.000 A 
ATOM      9  O   UNK A   0       2.169   9.653  17.439  0.00  0.00    +0.000 OA
ATOM     10  O   UNK A   0       2.962   7.517  17.692  0.00  0.00    +0.000 OA
ATOM     11  C   UNK A   0       3.066   6.342  18.480  0.00  0.00    +0.000 A 
ENDROOT
BRANCH   2  12
ATOM     12  O   UNK A   0       4.585   2.992  18.393  0.00  0.00    +0.000 OA
ATOM     13  H   UNK A   0       5.496   3.225  18.161  0.00  0.00    +0.000 HD
ENDBRANCH   2  12
BRANCH   1  14
ATOM     14  C   UNK A   0       4.524   5.375  16.644  0.00  0.00    +0.000 C 
BRANCH  14  15
ATOM     15  N   ALA A   1       5.483   6.493  16.635  0.00  0.00    +0.000 NA
ATOM     16  H   ALA A   1       5.826   6.636  15.683  0.00  0.00    +0.000 HD
BRANCH  15  18
ATOM     17  CB  ALA A   1       7.631   7.440  17.606  0.00  0.00    +0.000 C 
ATOM     18  CA  ALA A   1       6.649   6.275  17.537  0.00  0.00    +0.000 C 
BRANCH  18  19
ATOM     19  C   ALA A   1       7.340   4.946  17.182  0.00  0.00    +0.000 C 
ATOM     20  O   ALA A   1       7.824   4.668  16.098  0.00  0.00    +0.000 OA
BRANCH  19  21
ATOM     21  OXT ALA A   1       7.394   4.116  18.257  0.00  0.00    +0.000 OA
ATOM     22  HXT ALA A   1       6.465   3.871  18.488  0.00  0.00    +0.000 HD
ENDBRANCH  19  21
ENDBRANCH  18  19
ENDBRANCH  15  18
ENDBRANCH  14  15
ENDBRANCH   1  14
TORSDOF 6
ENDMDL
MODEL 4
REMARK VINA RESULT:      -7.3      2.193      5.191
REMARK  Name = 
REMARK  7 active torsions:
REMARK  status: ('A' for Active; 'I' for Inactive)
REMARK    1  A    between atoms: CB_1  and  CA_2
REMARK    2  A    between atoms: CA_2  and  N_3
REMARK    3  A    between atoms: CA_2  and  C_17
REMARK    4  A    between atoms: N_3  and  C_4
REMARK    5  A    between atoms: C_4  and  C_5
REMARK    6  A    between atoms: C_6  and  O_7
REMARK    7  A    between atoms: C_17  and  OXT_19
REMARK                            x       y       z     vdW  Elec       q    Type
REMARK                         _______ _______ _______ _____ _____    ______ ____
ROOT
ATOM      1  C   UNK A   0       3.541   4.268  17.634  0.00  0.00    +0.000 A 
ATOM      2  C   UNK A   0       2.374   5.034  17.772  0.00  0.00    +0.000 A 
ATOM      3  C   UNK A   0       2.420   6.429  17.799  0.00  0.00    +0.000 A 
ATOM      4  C   UNK A   0       3.642   7.097  17.699  0.00  0.00    +0.000 A 
ATOM      5  C   UNK A   0       4.821   6.365  17.556  0.00  0.00    +0.000 A 
ATOM      6  C   UNK A   0       6.114   7.023  17.454  0.00  0.00    +0.000 A 
ATOM      7  C   UNK A   0       7.221   6.290  17.314  0.00  0.00    +0.000 A 
ATOM      8  C   UNK A   0       7.193   4.822  17.257  0.00  0.00    +0.000 A 
ATOM      9  O   UNK A   0       8.228   4.176  17.127  0.00  0.00    +0.000 OA
ATOM     10  O   UNK A   0       5.948   4.220  17.363  0.00  0.00    +0.000 OA
ATOM     11  C   UNK A   0       4.755   4.970  17.516  0.00  0.00    +0.000 A 
ENDROOT
BRANCH   2  12
ATOM     12  O   UNK A   0       1.126   4.485  17.891  0.00  0.00    +0.000 OA
ATOM     13  H   UNK A   0       1.153   3.726  18.493  0.00  0.00    +0.000 HD
ENDBRANCH   2  12
BRANCH   1  14
ATOM     14  C   UNK A   0       3.515   2.761  17.636  0.00  0.00    +0.000 C 
BRANCH  14  15
ATOM     15  N   ALA A   1       2.703   2.238  18.748  0.00  0.00    +0.000 NA
ATOM     16  H   ALA A   1       1.722   2.475  18.590  0.00  0.00    +0.000 HD
BRANCH  15  18
ATOM     17  CB  ALA A   1       4.354   2.109  20.676  0.00  0.00    +0.000 C 
ATOM     18  CA  ALA A   1       3.116   2.770  20.078  0.00  0.00    +0.000 C 
BRANCH  18  19
ATOM     19  C   ALA A   1       1.916   2.748  21.043  0.00  0.00    +0.000 C 
ATOM     20  O   ALA A   1       1.985   2.622  22.254  0.00  0.00    +0.000 OA
BRANCH  19  21
ATOM     21  OXT ALA A   1       0.746   2.938  20.379  0.00  0.00    +0.000 OA
ATOM     22  HXT ALA A   1       0.057   3.162  21.050  0.00  0.00    +0.000 HD
ENDBRANCH  19  21
ENDBRANCH  18  19
ENDBRANCH  15  18
ENDBRANCH  14  15
ENDBRANCH   1  14
TORSDOF 6
ENDMDL
MODEL 5
REMARK VINA RESULT:      -7.2      1.833      2.531
REMARK  Name = 
REMARK  7 active torsions:
REMARK  status: ('A' for Active; 'I' for Inactive)
REMARK    1  A    between atoms: CB_1  and  CA_2
REMARK    2  A    between atoms: CA_2  and  N_3
REMARK    3  A    between atoms: CA_2  and  C_17
REMARK    4  A    between atoms: N_3  and  C_4
REMARK    5  A    between atoms: C_4  and  C_5
REMARK    6  A    between atoms: C_6  and  O_7
REMARK    7  A    between atoms: C_17  and  OXT_19
REMARK                            x       y       z     vdW  Elec       q    Type
REMARK                         _______ _______ _______ _____ _____    ______ ____
ROOT
ATOM      1  C   UNK A   0       4.139   5.036  17.650  0.00  0.00    +0.000 A 
ATOM      2  C   UNK A   0       4.435   3.671  17.518  0.00  0.00    +0.000 A 
ATOM      3  C   UNK A   0       3.874   2.721  18.372  0.00  0.00    +0.000 A 
ATOM      4  C   UNK A   0       3.008   3.113  19.393  0.00  0.00    +0.000 A 
ATOM      5  C   UNK A   0       2.688   4.462  19.549  0.00  0.00    +0.000 A 
ATOM      6  C   UNK A   0       1.793   4.912  20.603  0.00  0.00    +0.000 A 
ATOM      7  C   UNK A   0       1.506   6.210  20.720  0.00  0.00    +0.000 A 
ATOM      8  C   UNK A   0       2.064   7.226  19.816  0.00  0.00    +0.000 A 
ATOM      9  O   UNK A   0       1.782   8.412  19.948  0.00  0.00    +0.000 OA
ATOM     10  O   UNK A   0       2.919   6.770  18.823  0.00  0.00    +0.000 OA
ATOM     11  C   UNK A   0       3.246   5.399  18.676  0.00  0.00    +0.000 A 
ENDROOT
BRANCH   2  12
ATOM     12  O   UNK A   0       5.281   3.177  16.562  0.00  0.00    +0.000 OA
ATOM     13  H   UNK A   0       6.177   3.097  16.921  0.00  0.00    +0.000 HD
ENDBRANCH   2  12
BRANCH   1  14
ATOM     14  C   UNK A   0       4.759   6.081  16.758  0.00  0.00    +0.000 C 
BRANCH  14  15
ATOM     15  N   ALA A   1       6.228   5.982  16.754  0.00  0.00    +0.000 NA
ATOM     16  H   ALA A   1       6.500   5.000  16.670  0.00  0.00    +0.000 HD
BRANCH  15  18
ATOM     17  CB  ALA A   1       7.841   7.689  17.724  0.00  0.00    +0.000 C 
ATOM     18  CA  ALA A   1       6.860   6.550  17.980  0.00  0.00    +0.000 C 
BRANCH  18  19
ATOM     19  C   ALA A   1       7.481   5.417  18.818  0.00  0.00    +0.000 C 
ATOM     20  O   ALA A   1       7.624   5.431  20.029  0.00  0.00    +0.000 OA
BRANCH  19  21
ATOM     21  OXT ALA A   1       7.817   4.355  18.040  0.00  0.00    +0.000 OA
ATOM     22  HXT ALA A   1       7.099   4.238  17.372  0.00  0.00    +0.000 HD
ENDBRANCH  19  21
ENDBRANCH  18  19
ENDBRANCH  15  18
ENDBRANCH  14  15
ENDBRANCH   1  14
TORSDOF 6
ENDMDL
MODEL 6
REMARK VINA RESULT:      -7.2      1.097      1.294
REMARK  Name = 
REMARK  7 active torsions:
REMARK  status: ('A' for Active; 'I' for Inactive)
REMARK    1  A    between atoms: CB_1  and  CA_2
REMARK    2  A    between atoms: CA_2  and  N_3
REMARK    3  A    between atoms: CA_2  and  C_17
REMARK    4  A    between atoms: N_3  and  C_4
REMARK    5  A    between atoms: C_4  and  C_5
REMARK    6  A    between atoms: C_6  and  O_7
REMARK    7  A    between atoms: C_17  and  OXT_19
REMARK                            x       y       z     vdW  Elec       q    Type
REMARK                         _______ _______ _______ _____ _____    ______ ____
ROOT
ATOM      1  C   UNK A   0       2.515   3.644  18.342  0.00  0.00    +0.000 A 
ATOM      2  C   UNK A   0       2.113   2.544  19.113  0.00  0.00    +0.000 A 
ATOM      3  C   UNK A   0       1.552   2.711  20.379  0.00  0.00    +0.000 A 
ATOM      4  C   UNK A   0       1.389   3.989  20.916  0.00  0.00    +0.000 A 
ATOM      5  C   UNK A   0       1.774   5.105  20.174  0.00  0.00    +0.000 A 
ATOM      6  C   UNK A   0       1.626   6.454  20.700  0.00  0.00    +0.000 A 
ATOM      7  C   UNK A   0       2.001   7.499  19.960  0.00  0.00    +0.000 A 
ATOM      8  C   UNK A   0       2.570   7.348  18.613  0.00  0.00    +0.000 A 
ATOM      9  O   UNK A   0       2.906   8.328  17.956  0.00  0.00    +0.000 OA
ATOM     10  O   UNK A   0       2.706   6.051  18.138  0.00  0.00    +0.000 OA
ATOM     11  C   UNK A   0       2.320   4.921  18.902  0.00  0.00    +0.000 A 
ENDROOT
BRANCH   2  12
ATOM     12  O   UNK A   0       2.239   1.247  18.691  0.00  0.00    +0.000 OA
ATOM     13  H   UNK A   0       2.045   0.641  19.421  0.00  0.00    +0.000 HD
ENDBRANCH   2  12
BRANCH   1  14
ATOM     14  C   UNK A   0       3.153   3.483  16.985  0.00  0.00    +0.000 C 
BRANCH  14  15
ATOM     15  N   ALA A   1       4.581   3.843  17.016  0.00  0.00    +0.000 NA
ATOM     16  H   ALA A   1       4.756   4.464  17.809  0.00  0.00    +0.000 HD
BRANCH  15  18
ATOM     17  CB  ALA A   1       6.219   3.835  15.074  0.00  0.00    +0.000 C 
ATOM     18  CA  ALA A   1       5.045   4.516  15.770  0.00  0.00    +0.000 C 
BRANCH  18  19
ATOM     19  C   ALA A   1       5.316   6.006  16.052  0.00  0.00    +0.000 C 
ATOM     20  O   ALA A   1       5.220   6.908  15.237  0.00  0.00    +0.000 OA
BRANCH  19  21
ATOM     21  OXT ALA A   1       5.634   6.210  17.357  0.00  0.00    +0.000 OA
ATOM     22  HXT ALA A   1       6.268   5.502  17.623  0.00  0.00    +0.000 HD
ENDBRANCH  19  21
ENDBRANCH  18  19
ENDBRANCH  15  18
ENDBRANCH  14  15
ENDBRANCH   1  14
TORSDOF 6
ENDMDL
MODEL 7
REMARK VINA RESULT:      -7.2      0.907      1.004
REMARK  Name = 
REMARK  7 active torsions:
REMARK  status: ('A' for Active; 'I' for Inactive)
REMARK    1  A    between atoms: CB_1  and  CA_2
REMARK    2  A    between atoms: CA_2  and  N_3
REMARK    3  A    between atoms: CA_2  and  C_17
REMARK    4  A    between atoms: N_3  and  C_4
REMARK    5  A    between atoms: C_4  and  C_5
REMARK    6  A    between atoms: C_6  and  O_7
REMARK    7  A    between atoms: C_17  and  OXT_19
REMARK                            x       y       z     vdW  Elec       q    Type
REMARK                         _______ _______ _______ _____ _____    ______ ____
ROOT
ATOM      1  C   UNK A   0       3.026   3.770  18.273  0.00  0.00    +0.000 A 
ATOM      2  C   UNK A   0       2.758   2.589  18.980  0.00  0.00    +0.000 A 
ATOM      3  C   UNK A   0       2.117   2.613  20.220  0.00  0.00    +0.000 A 
ATOM      4  C   UNK A   0       1.736   3.827  20.793  0.00  0.00    +0.000 A 
ATOM      5  C   UNK A   0       1.983   5.021  20.115  0.00  0.00    +0.000 A 
ATOM      6  C   UNK A   0       1.607   6.307  20.680  0.00  0.00    +0.000 A 
ATOM      7  C   UNK A   0       1.856   7.429  20.001  0.00  0.00    +0.000 A 
ATOM      8  C   UNK A   0       2.506   7.424  18.683  0.00  0.00    +0.000 A 
ATOM      9  O   UNK A   0       2.722   8.472  18.082  0.00  0.00    +0.000 OA
ATOM     10  O   UNK A   0       2.860   6.185  18.169  0.00  0.00    +0.000 OA
ATOM     11  C   UNK A   0       2.613   4.977  18.868  0.00  0.00    +0.000 A 
ENDROOT
BRANCH   2  12
ATOM     12  O   UNK A   0       3.099   1.346  18.519  0.00  0.00    +0.000 OA
ATOM     13  H   UNK A   0       3.783   0.958  19.084  0.00  0.00    +0.000 HD
ENDBRANCH   2  12
BRANCH   1  14
ATOM     14  C   UNK A   0       3.746   3.767  16.949  0.00  0.00    +0.000 C 
BRANCH  14  15
ATOM     15  N   ALA A   1       5.202   3.641  17.129  0.00  0.00    +0.000 NA
ATOM     16  H   ALA A   1       5.392   3.022  17.920  0.00  0.00    +0.000 HD
BRANCH  15  18
ATOM     17  CB  ALA A   1       5.760   5.950  16.226  0.00  0.00    +0.000 C 
ATOM     18  CA  ALA A   1       5.880   4.947  17.369  0.00  0.00    +0.000 C 
BRANCH  18  19
ATOM     19  C   ALA A   1       7.343   4.705  17.786  0.00  0.00    +0.000 C 
ATOM     20  O   ALA A   1       7.825   4.988  18.870  0.00  0.00    +0.000 OA
BRANCH  19  21
ATOM     21  OXT ALA A   1       8.039   4.081  16.801  0.00  0.00    +0.000 OA
ATOM     22  HXT ALA A   1       8.903   4.551  16.705  0.00  0.00    +0.000 HD
ENDBRANCH  19  21
ENDBRANCH  18  19
ENDBRANCH  15  18
ENDBRANCH  14  15
ENDBRANCH   1  14
TORSDOF 6
ENDMDL
MODEL 8
REMARK VINA RESULT:      -7.1      1.546      3.683
REMARK  Name = 
REMARK  7 active torsions:
REMARK  status: ('A' for Active; 'I' for Inactive)
REMARK    1  A    between atoms: CB_1  and  CA_2
REMARK    2  A    between atoms: CA_2  and  N_3
REMARK    3  A    between atoms: CA_2  and  C_17
REMARK    4  A    between atoms: N_3  and  C_4
REMARK    5  A    between atoms: C_4  and  C_5
REMARK    6  A    between atoms: C_6  and  O_7
REMARK    7  A    between atoms: C_17  and  OXT_19
REMARK                            x       y       z     vdW  Elec       q    Type
REMARK                         _______ _______ _______ _____ _____    ______ ____
ROOT
ATOM      1  C   UNK A   0       3.469   5.962  18.402  0.00  0.00    +0.000 A 
ATOM      2  C   UNK A   0       2.787   7.165  18.637  0.00  0.00    +0.000 A 
ATOM      3  C   UNK A   0       1.939   7.316  19.736  0.00  0.00    +0.000 A 
ATOM      4  C   UNK A   0       1.741   6.259  20.625  0.00  0.00    +0.000 A 
ATOM      5  C   UNK A   0       2.408   5.050  20.422  0.00  0.00    +0.000 A 
ATOM      6  C   UNK A   0       2.224   3.922  21.323  0.00  0.00    +0.000 A 
ATOM      7  C   UNK A   0       2.882   2.783  21.100  0.00  0.00    +0.000 A 
ATOM      8  C   UNK A   0       3.799   2.610  19.965  0.00  0.00    +0.000 A 
ATOM      9  O   UNK A   0       4.390   1.550  19.786  0.00  0.00    +0.000 OA
ATOM     10  O   UNK A   0       3.951   3.699  19.118  0.00  0.00    +0.000 OA
ATOM     11  C   UNK A   0       3.264   4.921  19.326  0.00  0.00    +0.000 A 
ENDROOT
BRANCH   2  12
ATOM     12  O   UNK A   0       2.896   8.261  17.824  0.00  0.00    +0.000 OA
ATOM     13  H   UNK A   0       2.495   9.032  18.250  0.00  0.00    +0.000 HD
ENDBRANCH   2  12
BRANCH   1  14
ATOM     14  C   UNK A   0       4.363   5.769  17.204  0.00  0.00    +0.000 C 
BRANCH  14  15
ATOM     15  N   ALA A   1       5.620   6.524  17.344  0.00  0.00    +0.000 NA
ATOM     16  H   ALA A   1       5.563   7.381  16.791  0.00  0.00    +0.000 HD
BRANCH  15  18
ATOM     17  CB  ALA A   1       6.602   4.863  15.690  0.00  0.00    +0.000 C 
ATOM     18  CA  ALA A   1       6.820   5.754  16.909  0.00  0.00    +0.000 C 
BRANCH  18  19
ATOM     19  C   ALA A   1       7.403   4.979  18.105  0.00  0.00    +0.000 C 
ATOM     20  O   ALA A   1       7.105   5.156  19.275  0.00  0.00    +0.000 OA
BRANCH  19  21
ATOM     21  OXT ALA A   1       8.272   4.019  17.694  0.00  0.00    +0.000 OA
ATOM     22  HXT ALA A   1       8.150   3.905  16.721  0.00  0.00    +0.000 HD
ENDBRANCH  19  21
ENDBRANCH  18  19
ENDBRANCH  15  18
ENDBRANCH  14  15
ENDBRANCH   1  14
TORSDOF 6
ENDMDL
MODEL 9
REMARK VINA RESULT:      -7.1      2.330      5.276
REMARK  Name = 
REMARK  7 active torsions:
REMARK  status: ('A' for Active; 'I' for Inactive)
REMARK    1  A    between atoms: CB_1  and  CA_2
REMARK    2  A    between atoms: CA_2  and  N_3
REMARK    3  A    between atoms: CA_2  and  C_17
REMARK    4  A    between atoms: N_3  and  C_4
REMARK    5  A    between atoms: C_4  and  C_5
REMARK    6  A    between atoms: C_6  and  O_7
REMARK    7  A    between atoms: C_17  and  OXT_19
REMARK                            x       y       z     vdW  Elec       q    Type
REMARK                         _______ _______ _______ _____ _____    ______ ____
ROOT
ATOM      1  C   UNK A   0       4.113   4.860  17.784  0.00  0.00    +0.000 A 
ATOM      2  C   UNK A   0       4.555   5.236  19.061  0.00  0.00    +0.000 A 
ATOM      3  C   UNK A   0       5.902   5.497  19.316  0.00  0.00    +0.000 A 
ATOM      4  C   UNK A   0       6.849   5.375  18.299  0.00  0.00    +0.000 A 
ATOM      5  C   UNK A   0       6.443   5.007  17.015  0.00  0.00    +0.000 A 
ATOM      6  C   UNK A   0       7.400   4.864  15.929  0.00  0.00    +0.000 A 
ATOM      7  C   UNK A   0       6.975   4.515  14.713  0.00  0.00    +0.000 A 
ATOM      8  C   UNK A   0       5.558   4.262  14.416  0.00  0.00    +0.000 A 
ATOM      9  O   UNK A   0       5.197   3.942  13.287  0.00  0.00    +0.000 OA
ATOM     10  O   UNK A   0       4.668   4.399  15.471  0.00  0.00    +0.000 OA
ATOM     11  C   UNK A   0       5.089   4.765  16.774  0.00  0.00    +0.000 A 
ENDROOT
BRANCH   2  12
ATOM     12  O   UNK A   0       3.715   5.373  20.134  0.00  0.00    +0.000 OA
ATOM     13  H   UNK A   0       4.047   6.060  20.730  0.00  0.00    +0.000 HD
ENDBRANCH   2  12
BRANCH   1  14
ATOM     14  C   UNK A   0       2.668   4.544  17.496  0.00  0.00    +0.000 C 
BRANCH  14  15
ATOM     15  N   ALA A   1       2.495   3.136  17.097  0.00  0.00    +0.000 NA
ATOM     16  H   ALA A   1       1.788   3.078  16.362  0.00  0.00    +0.000 HD
BRANCH  15  18
ATOM     17  CB  ALA A   1       1.036   2.846  19.158  0.00  0.00    +0.000 C 
ATOM     18  CA  ALA A   1       2.086   2.251  18.225  0.00  0.00    +0.000 C 
BRANCH  18  19
ATOM     19  C   ALA A   1       3.335   1.764  18.983  0.00  0.00    +0.000 C 
ATOM     20  O   ALA A   1       3.713   2.183  20.065  0.00  0.00    +0.000 OA
BRANCH  19  21
ATOM     21  OXT ALA A   1       3.955   0.757  18.316  0.00  0.00    +0.000 OA
ATOM     22  HXT ALA A   1       4.546   0.294  18.958  0.00  0.00    +0.000 HD
ENDBRANCH  19  21
ENDBRANCH  18  19
ENDBRANCH  15  18
ENDBRANCH  14  15
ENDBRANCH   1  14
TORSDOF 6
ENDMDL
