MODEL 1
REMARK VINA RESULT:      -7.4      0.000      0.000
REMARK  Name = 
REMARK  4 active torsions:
REMARK  status: ('A' for Active; 'I' for Inactive)
REMARK    1  A    between atoms: C_1  and  C_2
REMARK    2  A    between atoms: C_2  and  N_3
REMARK    3  A    between atoms: N_16  and  C_17
REMARK    4  A    between atoms: C_20  and  C_21
REMARK                            x       y       z     vdW  Elec       q    Type
REMARK                         _______ _______ _______ _____ _____    ______ ____
ROOT
ATOM      1  N   UNL     1       3.467   3.781  19.789  0.00  0.00    +0.000 N 
ATOM      2  C   UNL     1       2.553   4.702  20.356  0.00  0.00    +0.000 A 
ATOM      3  O   UNL     1       1.977   4.559  21.425  0.00  0.00    +0.000 OA
ATOM      4  C   UNL     1       2.447   5.905  19.440  0.00  0.00    +0.000 A 
ATOM      5  C   UNL     1       2.004   7.174  19.636  0.00  0.00    +0.000 C 
ATOM      6  S   UNL     1       1.124   7.610  21.137  0.00  0.00    +0.000 S 
ATOM      7  C   UNL     1       0.814   9.245  20.466  0.00  0.00    +0.000 A 
ATOM      8  C   UNL     1       0.059  10.253  21.059  0.00  0.00    +0.000 A 
ATOM      9  C   UNL     1      -0.038  11.489  20.410  0.00  0.00    +0.000 A 
ATOM     10  C   UNL     1       0.613  11.685  19.195  0.00  0.00    +0.000 A 
ATOM     11  F   UNL     1       0.531  12.878  18.588  0.00  0.00    +0.000 F 
ATOM     12  C   UNL     1       1.346  10.669  18.590  0.00  0.00    +0.000 A 
ATOM     13  C   UNL     1       1.450   9.431  19.221  0.00  0.00    +0.000 A 
ATOM     14  N   UNL     1       2.120   8.286  18.746  0.00  0.00    +0.000 N 
ATOM     15  C   UNL     1       3.012   8.416  17.598  0.00  0.00    +0.000 C 
ATOM     16  S   UNL     1       3.026   5.403  17.887  0.00  0.00    +0.000 S 
ATOM     17  C   UNL     1       4.009   4.173  18.585  0.00  0.00    +0.000 A 
ATOM     18  C   UNL     1       5.149   3.756  18.002  0.00  0.00    +0.000 C 
ENDROOT
BRANCH  18  19
ATOM     19  C   UNL     1       5.722   4.521  16.869  0.00  0.00    +0.000 A 
ATOM     20  C   UNL     1       5.696   3.946  15.594  0.00  0.00    +0.000 A 
ATOM     21  C   UNL     1       6.498   4.495  14.605  0.00  0.00    +0.000 A 
ATOM     22  N   UNL     1       7.301   5.562  14.798  0.00  0.00    +0.000 NA
ATOM     23  C   UNL     1       7.285   6.119  16.028  0.00  0.00    +0.000 A 
ATOM     24  C   UNL     1       6.508   5.656  17.079  0.00  0.00    +0.000 A 
ENDBRANCH  18  19
BRANCH   1  26
ATOM     25  C   UNL     1       3.708   1.307  19.485  0.00  0.00    +0.000 C 
ATOM     26  C   UNL     1       3.770   2.504  20.420  0.00  0.00    +0.000 C 
ENDBRANCH   1  26
TORSDOF 2
ENDMDL
MODEL 2
REMARK VINA RESULT:      -7.2      2.256      4.463
REMARK  Name = 
REMARK  4 active torsions:
REMARK  status: ('A' for Active; 'I' for Inactive)
REMARK    1  A    between atoms: C_1  and  C_2
REMARK    2  A    between atoms: C_2  and  N_3
REMARK    3  A    between atoms: N_16  and  C_17
REMARK    4  A    between atoms: C_20  and  C_21
REMARK                            x       y       z     vdW  Elec       q    Type
REMARK                         _______ _______ _______ _____ _____    ______ ____
ROOT
ATOM      1  N   UNL     1       4.349   5.400  16.978  0.00  0.00    +0.000 N 
ATOM      2  C   UNL     1       3.979   6.766  17.018  0.00  0.00    +0.000 A 
ATOM      3  O   UNL     1       4.193   7.583  16.134  0.00  0.00    +0.000 OA
ATOM      4  C   UNL     1       3.241   7.030  18.316  0.00  0.00    +0.000 A 
ATOM      5  C   UNL     1       2.407   8.026  18.713  0.00  0.00    +0.000 C 
ATOM      6  S   UNL     1       2.226   9.512  17.725  0.00  0.00    +0.000 S 
ATOM      7  C   UNL     1       1.197  10.226  19.009  0.00  0.00    +0.000 A 
ATOM      8  C   UNL     1       0.665  11.512  19.023  0.00  0.00    +0.000 A 
ATOM      9  C   UNL     1      -0.159  11.887  20.090  0.00  0.00    +0.000 A 
ATOM     10  C   UNL     1      -0.426  10.977  21.109  0.00  0.00    +0.000 A 
ATOM     11  F   UNL     1      -1.232  11.337  22.119  0.00  0.00    +0.000 F 
ATOM     12  C   UNL     1       0.127   9.701  21.109  0.00  0.00    +0.000 A 
ATOM     13  C   UNL     1       0.952   9.313  20.054  0.00  0.00    +0.000 A 
ATOM     14  N   UNL     1       1.618   8.080  19.903  0.00  0.00    +0.000 N 
ATOM     15  C   UNL     1       1.259   6.972  20.783  0.00  0.00    +0.000 C 
ATOM     16  S   UNL     1       3.649   5.738  19.395  0.00  0.00    +0.000 S 
ATOM     17  C   UNL     1       3.979   4.669  18.085  0.00  0.00    +0.000 A 
ATOM     18  C   UNL     1       3.818   3.337  18.196  0.00  0.00    +0.000 C 
ENDROOT
BRANCH  18  19
ATOM     19  C   UNL     1       3.111   2.773  19.371  0.00  0.00    +0.000 A 
ATOM     20  C   UNL     1       1.720   2.897  19.436  0.00  0.00    +0.000 A 
ATOM     21  C   UNL     1       1.092   2.668  20.651  0.00  0.00    +0.000 A 
ATOM     22  N   UNL     1       1.747   2.322  21.779  0.00  0.00    +0.000 NA
ATOM     23  C   UNL     1       3.086   2.178  21.684  0.00  0.00    +0.000 A 
ATOM     24  C   UNL     1       3.805   2.369  20.514  0.00  0.00    +0.000 A 
ENDBRANCH  18  19
BRANCH   1  26
ATOM     25  C   UNL     1       6.588   4.681  16.120  0.00  0.00    +0.000 C 
ATOM     26  C   UNL     1       5.097   4.834  15.864  0.00  0.00    +0.000 C 
ENDBRANCH   1  26
TORSDOF 2
ENDMDL
MODEL 3
REMARK VINA RESULT:      -6.8      0.710      1.194
REMARK  Name = 
REMARK  4 active torsions:
REMARK  status: ('A' for Active; 'I' for Inactive)
REMARK    1  A    between atoms: C_1  and  C_2
REMARK    2  A    between atoms: C_2  and  N_3
REMARK    3  A    between atoms: N_16  and  C_17
REMARK    4  A    between atoms: C_20  and  C_21
REMARK                            x       y       z     vdW  Elec       q    Type
REMARK                         _______ _______ _______ _____ _____    ______ ____
ROOT
ATOM      1  N   UNL     1       3.102   3.943  20.082  0.00  0.00    +0.000 N 
ATOM      2  C   UNL     1       2.258   4.987  20.531  0.00  0.00    +0.000 A 
ATOM      3  O   UNL     1       1.628   4.987  21.579  0.00  0.00    +0.000 OA
ATOM      4  C   UNL     1       2.302   6.115  19.518  0.00  0.00    +0.000 A 
ATOM      5  C   UNL     1       1.974   7.430  19.592  0.00  0.00    +0.000 C 
ATOM      6  S   UNL     1       1.079   8.069  21.010  0.00  0.00    +0.000 S 
ATOM      7  C   UNL     1       0.953   9.663  20.198  0.00  0.00    +0.000 A 
ATOM      8  C   UNL     1       0.274  10.782  20.672  0.00  0.00    +0.000 A 
ATOM      9  C   UNL     1       0.319  11.962  19.924  0.00  0.00    +0.000 A 
ATOM     10  C   UNL     1       1.033  11.997  18.728  0.00  0.00    +0.000 A 
ATOM     11  F   UNL     1       1.088  13.137  18.026  0.00  0.00    +0.000 F 
ATOM     12  C   UNL     1       1.690  10.871  18.241  0.00  0.00    +0.000 A 
ATOM     13  C   UNL     1       1.651   9.686  18.974  0.00  0.00    +0.000 A 
ATOM     14  N   UNL     1       2.229   8.449  18.623  0.00  0.00    +0.000 N 
ATOM     15  C   UNL     1       3.173   8.402  17.511  0.00  0.00    +0.000 C 
ATOM     16  S   UNL     1       2.892   5.435  18.038  0.00  0.00    +0.000 S 
ATOM     17  C   UNL     1       3.725   4.182  18.877  0.00  0.00    +0.000 A 
ATOM     18  C   UNL     1       4.843   3.616  18.384  0.00  0.00    +0.000 C 
ENDROOT
BRANCH  18  19
ATOM     19  C   UNL     1       5.530   4.229  17.222  0.00  0.00    +0.000 A 
ATOM     20  C   UNL     1       6.498   5.210  17.461  0.00  0.00    +0.000 A 
ATOM     21  C   UNL     1       6.910   6.004  16.401  0.00  0.00    +0.000 A 
ATOM     22  N   UNL     1       6.435   5.880  15.144  0.00  0.00    +0.000 NA
ATOM     23  C   UNL     1       5.526   4.905  14.931  0.00  0.00    +0.000 A 
ATOM     24  C   UNL     1       5.061   4.050  15.919  0.00  0.00    +0.000 A 
ENDBRANCH  18  19
BRANCH   1  26
ATOM     25  C   UNL     1       1.973   2.168  21.439  0.00  0.00    +0.000 C 
ATOM     26  C   UNL     1       3.258   2.701  20.827  0.00  0.00    +0.000 C 
ENDBRANCH   1  26
TORSDOF 2
ENDMDL
MODEL 4
REMARK VINA RESULT:      -6.6      8.251     10.338
REMARK  Name = 
REMARK  4 active torsions:
REMARK  status: ('A' for Active; 'I' for Inactive)
REMARK    1  A    between atoms: C_1  and  C_2
REMARK    2  A    between atoms: C_2  and  N_3
REMARK    3  A    between atoms: N_16  and  C_17
REMARK    4  A    between atoms: C_20  and  C_21
REMARK                            x       y       z     vdW  Elec       q    Type
REMARK                         _______ _______ _______ _____ _____    ______ ____
ROOT
ATOM      1  N   UNL     1      -6.722  11.256  20.515  0.00  0.00    +0.000 N 
ATOM      2  C   UNL     1      -6.417  12.032  21.659  0.00  0.00    +0.000 A 
ATOM      3  O   UNL     1      -7.068  12.053  22.694  0.00  0.00    +0.000 OA
ATOM      4  C   UNL     1      -5.131  12.792  21.399  0.00  0.00    +0.000 A 
ATOM      5  C   UNL     1      -4.236  13.394  22.225  0.00  0.00    +0.000 C 
ATOM      6  S   UNL     1      -4.615  13.634  23.962  0.00  0.00    +0.000 S 
ATOM      7  C   UNL     1      -3.097  14.570  24.152  0.00  0.00    +0.000 A 
ATOM      8  C   UNL     1      -2.663  15.216  25.306  0.00  0.00    +0.000 A 
ATOM      9  C   UNL     1      -1.423  15.864  25.286  0.00  0.00    +0.000 A 
ATOM     10  C   UNL     1      -0.654  15.852  24.125  0.00  0.00    +0.000 A 
ATOM     11  F   UNL     1       0.541  16.458  24.120  0.00  0.00    +0.000 F 
ATOM     12  C   UNL     1      -1.100  15.228  22.964  0.00  0.00    +0.000 A 
ATOM     13  C   UNL     1      -2.335  14.581  22.966  0.00  0.00    +0.000 A 
ATOM     14  N   UNL     1      -2.955  13.927  21.883  0.00  0.00    +0.000 N 
ATOM     15  C   UNL     1      -2.174  13.661  20.678  0.00  0.00    +0.000 C 
ATOM     16  S   UNL     1      -4.906  12.823  19.682  0.00  0.00    +0.000 S 
ATOM     17  C   UNL     1      -5.825  11.381  19.477  0.00  0.00    +0.000 A 
ATOM     18  C   UNL     1      -5.597  10.530  18.458  0.00  0.00    +0.000 C 
ENDROOT
BRANCH  18  19
ATOM     19  C   UNL     1      -4.380  10.684  17.625  0.00  0.00    +0.000 A 
ATOM     20  C   UNL     1      -4.505  11.278  16.365  0.00  0.00    +0.000 A 
ATOM     21  C   UNL     1      -3.460  11.140  15.463  0.00  0.00    +0.000 A 
ATOM     22  N   UNL     1      -2.321  10.470  15.734  0.00  0.00    +0.000 NA
ATOM     23  C   UNL     1      -2.211   9.933  16.967  0.00  0.00    +0.000 A 
ATOM     24  C   UNL     1      -3.190  10.028  17.944  0.00  0.00    +0.000 A 
ENDBRANCH  18  19
BRANCH   1  26
ATOM     25  C   UNL     1      -7.688   8.962  20.780  0.00  0.00    +0.000 C 
ATOM     26  C   UNL     1      -7.916  10.425  20.440  0.00  0.00    +0.000 C 
ENDBRANCH   1  26
TORSDOF 2
ENDMDL
MODEL 5
REMARK VINA RESULT:      -6.5      7.074      9.442
REMARK  Name = 
REMARK  4 active torsions:
REMARK  status: ('A' for Active; 'I' for Inactive)
REMARK    1  A    between atoms: C_1  and  C_2
REMARK    2  A    between atoms: C_2  and  N_3
REMARK    3  A    between atoms: N_16  and  C_17
REMARK    4  A    between atoms: C_20  and  C_21
REMARK                            x       y       z     vdW  Elec       q    Type
REMARK                         _______ _______ _______ _____ _____    ______ ____
ROOT
ATOM      1  N   UNL     1      -3.186  10.492  17.197  0.00  0.00    +0.000 N 
ATOM      2  C   UNL     1      -4.367  11.168  17.587  0.00  0.00    +0.000 A 
ATOM      3  O   UNL     1      -5.461  11.044  17.055  0.00  0.00    +0.000 OA
ATOM      4  C   UNL     1      -4.056  12.029  18.795  0.00  0.00    +0.000 A 
ATOM      5  C   UNL     1      -4.842  12.600  19.745  0.00  0.00    +0.000 C 
ATOM      6  S   UNL     1      -6.625  12.641  19.549  0.00  0.00    +0.000 S 
ATOM      7  C   UNL     1      -6.752  13.646  21.029  0.00  0.00    +0.000 A 
ATOM      8  C   UNL     1      -7.915  14.200  21.555  0.00  0.00    +0.000 A 
ATOM      9  C   UNL     1      -7.834  14.922  22.751  0.00  0.00    +0.000 A 
ATOM     10  C   UNL     1      -6.604  15.075  23.385  0.00  0.00    +0.000 A 
ATOM     11  F   UNL     1      -6.537  15.752  24.540  0.00  0.00    +0.000 F 
ATOM     12  C   UNL     1      -5.437  14.544  22.845  0.00  0.00    +0.000 A 
ATOM     13  C   UNL     1      -5.500  13.824  21.653  0.00  0.00    +0.000 A 
ATOM     14  N   UNL     1      -4.425  13.244  20.950  0.00  0.00    +0.000 N 
ATOM     15  C   UNL     1      -3.124  13.149  21.605  0.00  0.00    +0.000 C 
ATOM     16  S   UNL     1      -2.338  12.245  18.825  0.00  0.00    +0.000 S 
ATOM     17  C   UNL     1      -2.078  10.776  17.965  0.00  0.00    +0.000 A 
ATOM     18  C   UNL     1      -0.957  10.048  18.121  0.00  0.00    +0.000 C 
ENDROOT
BRANCH  18  19
ATOM     19  C   UNL     1      -0.021  10.360  19.228  0.00  0.00    +0.000 A 
ATOM     20  C   UNL     1      -0.226   9.747  20.468  0.00  0.00    +0.000 A 
ATOM     21  C   UNL     1       0.429  10.261  21.576  0.00  0.00    +0.000 A 
ATOM     22  N   UNL     1       1.264  11.321  21.528  0.00  0.00    +0.000 NA
ATOM     23  C   UNL     1       1.471  11.876  20.315  0.00  0.00    +0.000 A 
ATOM     24  C   UNL     1       0.876  11.427  19.146  0.00  0.00    +0.000 A 
ENDBRANCH  18  19
BRANCH   1  26
ATOM     25  C   UNL     1      -2.958  10.302  14.711  0.00  0.00    +0.000 C 
ATOM     26  C   UNL     1      -3.150   9.600  16.046  0.00  0.00    +0.000 C 
ENDBRANCH   1  26
TORSDOF 2
ENDMDL
MODEL 6
REMARK VINA RESULT:      -6.2      6.982     11.869
REMARK  Name = 
REMARK  4 active torsions:
REMARK  status: ('A' for Active; 'I' for Inactive)
REMARK    1  A    between atoms: C_1  and  C_2
REMARK    2  A    between atoms: C_2  and  N_3
REMARK    3  A    between atoms: N_16  and  C_17
REMARK    4  A    between atoms: C_20  and  C_21
REMARK                            x       y       z     vdW  Elec       q    Type
REMARK                         _______ _______ _______ _____ _____    ______ ____
ROOT
ATOM      1  N   UNL     1      -5.884  14.307  22.872  0.00  0.00    +0.000 N 
ATOM      2  C   UNL     1      -4.641  13.727  23.221  0.00  0.00    +0.000 A 
ATOM      3  O   UNL     1      -4.241  13.545  24.362  0.00  0.00    +0.000 OA
ATOM      4  C   UNL     1      -3.916  13.333  21.949  0.00  0.00    +0.000 A 
ATOM      5  C   UNL     1      -2.892  12.475  21.702  0.00  0.00    +0.000 C 
ATOM      6  S   UNL     1      -1.944  11.773  23.054  0.00  0.00    +0.000 S 
ATOM      7  C   UNL     1      -0.830  11.021  21.866  0.00  0.00    +0.000 A 
ATOM      8  C   UNL     1       0.320  10.294  22.157  0.00  0.00    +0.000 A 
ATOM      9  C   UNL     1       1.048   9.737  21.100  0.00  0.00    +0.000 A 
ATOM     10  C   UNL     1       0.614   9.921  19.789  0.00  0.00    +0.000 A 
ATOM     11  F   UNL     1       1.306   9.368  18.783  0.00  0.00    +0.000 F 
ATOM     12  C   UNL     1      -0.521  10.670  19.497  0.00  0.00    +0.000 A 
ATOM     13  C   UNL     1      -1.255  11.234  20.539  0.00  0.00    +0.000 A 
ATOM     14  N   UNL     1      -2.406  12.041  20.431  0.00  0.00    +0.000 N 
ATOM     15  C   UNL     1      -3.081  12.136  19.140  0.00  0.00    +0.000 C 
ATOM     16  S   UNL     1      -4.637  14.240  20.662  0.00  0.00    +0.000 S 
ATOM     17  C   UNL     1      -6.124  14.386  21.518  0.00  0.00    +0.000 A 
ATOM     18  C   UNL     1      -7.304  14.500  20.881  0.00  0.00    +0.000 C 
ENDROOT
BRANCH  18  19
ATOM     19  C   UNL     1      -7.383  14.250  19.422  0.00  0.00    +0.000 A 
ATOM     20  C   UNL     1      -7.442  12.926  18.973  0.00  0.00    +0.000 A 
ATOM     21  C   UNL     1      -7.197  12.670  17.633  0.00  0.00    +0.000 A 
ATOM     22  N   UNL     1      -6.910  13.629  16.728  0.00  0.00    +0.000 NA
ATOM     23  C   UNL     1      -6.890  14.902  17.177  0.00  0.00    +0.000 A 
ATOM     24  C   UNL     1      -7.137  15.263  18.493  0.00  0.00    +0.000 A 
ENDBRANCH  18  19
BRANCH   1  26
ATOM     25  C   UNL     1      -7.838  13.802  24.353  0.00  0.00    +0.000 C 
ATOM     26  C   UNL     1      -6.809  14.815  23.876  0.00  0.00    +0.000 C 
ENDBRANCH   1  26
TORSDOF 2
ENDMDL
MODEL 7
REMARK VINA RESULT:      -6.2      2.976      5.350
REMARK  Name = 
REMARK  4 active torsions:
REMARK  status: ('A' for Active; 'I' for Inactive)
REMARK    1  A    between atoms: C_1  and  C_2
REMARK    2  A    between atoms: C_2  and  N_3
REMARK    3  A    between atoms: N_16  and  C_17
REMARK    4  A    between atoms: C_20  and  C_21
REMARK                            x       y       z     vdW  Elec       q    Type
REMARK                         _______ _______ _______ _____ _____    ______ ____
ROOT
ATOM      1  N   UNL     1       2.866   7.712  17.803  0.00  0.00    +0.000 N 
ATOM      2  C   UNL     1       2.382   9.009  18.104  0.00  0.00    +0.000 A 
ATOM      3  O   UNL     1       2.496   9.990  17.384  0.00  0.00    +0.000 OA
ATOM      4  C   UNL     1       1.666   8.960  19.439  0.00  0.00    +0.000 A 
ATOM      5  C   UNL     1       0.764   9.786  20.029  0.00  0.00    +0.000 C 
ATOM      6  S   UNL     1       0.424  11.407  19.339  0.00  0.00    +0.000 S 
ATOM      7  C   UNL     1      -0.620  11.776  20.750  0.00  0.00    +0.000 A 
ATOM      8  C   UNL     1      -1.260  12.984  21.013  0.00  0.00    +0.000 A 
ATOM      9  C   UNL     1      -2.077  13.079  22.144  0.00  0.00    +0.000 A 
ATOM     10  C   UNL     1      -2.233  11.976  22.980  0.00  0.00    +0.000 A 
ATOM     11  F   UNL     1      -3.033  12.069  24.051  0.00  0.00    +0.000 F 
ATOM     12  C   UNL     1      -1.573  10.777  22.731  0.00  0.00    +0.000 A 
ATOM     13  C   UNL     1      -0.752  10.667  21.610  0.00  0.00    +0.000 A 
ATOM     14  N   UNL     1       0.012   9.548  21.220  0.00  0.00    +0.000 N 
ATOM     15  C   UNL     1      -0.222   8.269  21.884  0.00  0.00    +0.000 C 
ATOM     16  S   UNL     1       2.219   7.534  20.251  0.00  0.00    +0.000 S 
ATOM     17  C   UNL     1       2.596   6.759  18.760  0.00  0.00    +0.000 A 
ATOM     18  C   UNL     1       2.553   5.421  18.622  0.00  0.00    +0.000 C 
ENDROOT
BRANCH  18  19
ATOM     19  C   UNL     1       1.936   4.588  19.682  0.00  0.00    +0.000 A 
ATOM     20  C   UNL     1       2.575   4.508  20.924  0.00  0.00    +0.000 A 
ATOM     21  C   UNL     1       2.194   3.502  21.800  0.00  0.00    +0.000 A 
ATOM     22  N   UNL     1       1.232   2.596  21.526  0.00  0.00    +0.000 NA
ATOM     23  C   UNL     1       0.608   2.713  20.335  0.00  0.00    +0.000 A 
ATOM     24  C   UNL     1       0.904   3.691  19.398  0.00  0.00    +0.000 A 
ENDBRANCH  18  19
BRANCH   1  26
ATOM     25  C   UNL     1       5.009   6.854  16.834  0.00  0.00    +0.000 C 
ATOM     26  C   UNL     1       3.624   7.432  16.591  0.00  0.00    +0.000 C 
ENDBRANCH   1  26
TORSDOF 2
ENDMDL
MODEL 8
REMARK VINA RESULT:      -6.1      6.639     11.877
REMARK  Name = 
REMARK  4 active torsions:
REMARK  status: ('A' for Active; 'I' for Inactive)
REMARK    1  A    between atoms: C_1  and  C_2
REMARK    2  A    between atoms: C_2  and  N_3
REMARK    3  A    between atoms: N_16  and  C_17
REMARK    4  A    between atoms: C_20  and  C_21
REMARK                            x       y       z     vdW  Elec       q    Type
REMARK                         _______ _______ _______ _____ _____    ______ ____
ROOT
ATOM      1  N   UNL     1      -4.935  14.695  23.008  0.00  0.00    +0.000 N 
ATOM      2  C   UNL     1      -3.831  13.884  23.362  0.00  0.00    +0.000 A 
ATOM      3  O   UNL     1      -3.515  13.577  24.502  0.00  0.00    +0.000 OA
ATOM      4  C   UNL     1      -3.139  13.428  22.092  0.00  0.00    +0.000 A 
ATOM      5  C   UNL     1      -2.276  12.412  21.829  0.00  0.00    +0.000 C 
ATOM      6  S   UNL     1      -1.522  11.486  23.168  0.00  0.00    +0.000 S 
ATOM      7  C   UNL     1      -0.515  10.604  21.975  0.00  0.00    +0.000 A 
ATOM      8  C   UNL     1       0.475   9.668  22.259  0.00  0.00    +0.000 A 
ATOM      9  C   UNL     1       1.132   9.041  21.195  0.00  0.00    +0.000 A 
ATOM     10  C   UNL     1       0.790   9.363  19.885  0.00  0.00    +0.000 A 
ATOM     11  F   UNL     1       1.412   8.745  18.870  0.00  0.00    +0.000 F 
ATOM     12  C   UNL     1      -0.180  10.318  19.600  0.00  0.00    +0.000 A 
ATOM     13  C   UNL     1      -0.843  10.954  20.649  0.00  0.00    +0.000 A 
ATOM     14  N   UNL     1      -1.825  11.960  20.551  0.00  0.00    +0.000 N 
ATOM     15  C   UNL     1      -2.422  12.238  19.248  0.00  0.00    +0.000 C 
ATOM     16  S   UNL     1      -3.635  14.511  20.836  0.00  0.00    +0.000 S 
ATOM     17  C   UNL     1      -5.105  14.882  21.654  0.00  0.00    +0.000 A 
ATOM     18  C   UNL     1      -6.220  15.237  20.989  0.00  0.00    +0.000 C 
ENDROOT
BRANCH  18  19
ATOM     19  C   UNL     1      -6.285  15.076  19.516  0.00  0.00    +0.000 A 
ATOM     20  C   UNL     1      -6.400  16.223  18.724  0.00  0.00    +0.000 A 
ATOM     21  C   UNL     1      -6.778  16.076  17.398  0.00  0.00    +0.000 A 
ATOM     22  N   UNL     1      -7.035  14.884  16.821  0.00  0.00    +0.000 NA
ATOM     23  C   UNL     1      -6.887  13.789  17.597  0.00  0.00    +0.000 A 
ATOM     24  C   UNL     1      -6.499  13.828  18.927  0.00  0.00    +0.000 A 
ENDBRANCH  18  19
BRANCH   1  26
ATOM     25  C   UNL     1      -5.296  16.650  24.529  0.00  0.00    +0.000 C 
ATOM     26  C   UNL     1      -5.794  15.311  24.010  0.00  0.00    +0.000 C 
ENDBRANCH   1  26
TORSDOF 2
ENDMDL
MODEL 9
REMARK VINA RESULT:      -6.0      7.076     10.311
REMARK  Name = 
REMARK  4 active torsions:
REMARK  status: ('A' for Active; 'I' for Inactive)
REMARK    1  A    between atoms: C_1  and  C_2
REMARK    2  A    between atoms: C_2  and  N_3
REMARK    3  A    between atoms: N_16  and  C_17
REMARK    4  A    between atoms: C_20  and  C_21
REMARK                            x       y       z     vdW  Elec       q    Type
REMARK                         _______ _______ _______ _____ _____    ______ ____
ROOT
ATOM      1  N   UNL     1      -0.318  11.045  22.424  0.00  0.00    +0.000 N 
ATOM      2  C   UNL     1       0.734  11.554  21.625  0.00  0.00    +0.000 A 
ATOM      3  O   UNL     1       1.726  10.928  21.278  0.00  0.00    +0.000 OA
ATOM      4  C   UNL     1       0.403  12.982  21.240  0.00  0.00    +0.000 A 
ATOM      5  C   UNL     1       0.862  13.800  20.257  0.00  0.00    +0.000 C 
ATOM      6  S   UNL     1       2.306  13.345  19.294  0.00  0.00    +0.000 S 
ATOM      7  C   UNL     1       2.256  14.947  18.487  0.00  0.00    +0.000 A 
ATOM      8  C   UNL     1       3.175  15.437  17.563  0.00  0.00    +0.000 A 
ATOM      9  C   UNL     1       2.953  16.697  16.998  0.00  0.00    +0.000 A 
ATOM     10  C   UNL     1       1.829  17.432  17.367  0.00  0.00    +0.000 A 
ATOM     11  F   UNL     1       1.612  18.630  16.807  0.00  0.00    +0.000 F 
ATOM     12  C   UNL     1       0.924  16.953  18.309  0.00  0.00    +0.000 A 
ATOM     13  C   UNL     1       1.133  15.701  18.884  0.00  0.00    +0.000 A 
ATOM     14  N   UNL     1       0.345  15.074  19.870  0.00  0.00    +0.000 N 
ATOM     15  C   UNL     1      -0.965  15.636  20.188  0.00  0.00    +0.000 C 
ATOM     16  S   UNL     1      -0.792  13.538  22.363  0.00  0.00    +0.000 S 
ATOM     17  C   UNL     1      -1.342  11.934  22.663  0.00  0.00    +0.000 A 
ATOM     18  C   UNL     1      -2.614  11.672  23.020  0.00  0.00    +0.000 C 
ENDROOT
BRANCH  18  19
ATOM     19  C   UNL     1      -3.643  12.735  22.920  0.00  0.00    +0.000 A 
ATOM     20  C   UNL     1      -4.042  13.390  24.089  0.00  0.00    +0.000 A 
ATOM     21  C   UNL     1      -5.206  14.143  24.061  0.00  0.00    +0.000 A 
ATOM     22  N   UNL     1      -5.978  14.288  22.964  0.00  0.00    +0.000 NA
ATOM     23  C   UNL     1      -5.556  13.673  21.839  0.00  0.00    +0.000 A 
ATOM     24  C   UNL     1      -4.400  12.911  21.759  0.00  0.00    +0.000 A 
ENDBRANCH  18  19
BRANCH   1  26
ATOM     25  C   UNL     1      -0.511   8.593  21.957  0.00  0.00    +0.000 C 
ATOM     26  C   UNL     1      -0.287   9.698  22.977  0.00  0.00    +0.000 C 
ENDBRANCH   1  26
TORSDOF 2
ENDMDL
