MODEL 1
REMARK VINA RESULT:      -8.6      0.000      0.000
REMARK  Name = 
REMARK  11 active torsions:
REMARK  status: ('A' for Active; 'I' for Inactive)
REMARK    1  A    between atoms: C_1  and  O_2
REMARK    2  A    between atoms: O_2  and  C_3
REMARK    3  A    between atoms: C_8  and  C_9
REMARK    4  A    between atoms: C_9  and  C_10
REMARK    5  A    between atoms: C_10  and  C_11
REMARK    6  A    between atoms: C_11  and  C_13
REMARK    7  A    between atoms: C_13  and  C_14
REMARK    8  A    between atoms: C_14  and  N_15
REMARK    9  A    between atoms: C_14  and  C_22
REMARK   10  A    between atoms: C_18  and  C_19
REMARK   11  A    between atoms: C_26  and  C_27
REMARK                            x       y       z     vdW  Elec       q    Type
REMARK                         _______ _______ _______ _____ _____    ______ ____
ROOT
ATOM      1  C   UNL     1       4.834   6.418  18.185  0.00  0.00    +0.000 C 
ENDROOT
BRANCH   1   2
ATOM      2  C   UNL     1       3.768   7.176  17.407  0.00  0.00    +0.000 C 
ATOM      3  O   UNL     1       4.024   7.547  16.254  0.00  0.00    +0.000 OA
BRANCH   2   4
ATOM      4  C   UNL     1       2.391   7.422  17.983  0.00  0.00    +0.000 C 
BRANCH   4   5
ATOM      5  C   UNL     1       1.954   8.872  17.851  0.00  0.00    +0.000 C 
BRANCH   5  11
ATOM      6  C   UNL     1      -1.649  11.695  22.554  0.00  0.00    +0.000 A 
ATOM      7  C   UNL     1      -1.775  12.422  21.372  0.00  0.00    +0.000 A 
ATOM      8  C   UNL     1      -1.093  12.013  20.224  0.00  0.00    +0.000 A 
ATOM      9  C   UNL     1      -0.270  10.877  20.242  0.00  0.00    +0.000 A 
ATOM     10  C   UNL     1       0.426  10.462  19.096  0.00  0.00    +0.000 A 
ATOM     11  C   UNL     1       1.242   9.319  19.109  0.00  0.00    +0.000 A 
ATOM     12  C   UNL     1       1.357   8.587  20.294  0.00  0.00    +0.000 A 
ATOM     13  C   UNL     1       0.678   8.996  21.446  0.00  0.00    +0.000 A 
ATOM     14  C   UNL     1      -0.136  10.139  21.436  0.00  0.00    +0.000 A 
ATOM     15  C   UNL     1      -0.822  10.568  22.585  0.00  0.00    +0.000 A 
BRANCH   6  17
ATOM     16  C   UNL     1      -3.582  12.504  23.653  0.00  0.00    +0.000 C 
ATOM     17  O   UNL     1      -2.249  12.011  23.743  0.00  0.00    +0.000 OA
ENDBRANCH   6  17
ENDBRANCH   5  11
ENDBRANCH   4   5
ENDBRANCH   2   4
ENDBRANCH   1   2
BRANCH   1  18
ATOM     18  C   UNL     1       4.731   4.881  18.224  0.00  0.00    +0.000 C 
BRANCH  18  19
ATOM     19  N   UNL     1       4.582   4.376  16.864  0.00  0.00    +0.000 N 
ATOM     20  C   UNL     1       5.596   4.483  15.974  0.00  0.00    +0.000 A 
ATOM     21  C   UNL     1       5.398   4.364  14.583  0.00  0.00    +0.000 A 
ATOM     22  C   UNL     1       6.658   4.442  14.044  0.00  0.00    +0.000 A 
ATOM     23  C   UNL     1       7.204   4.339  12.680  0.00  0.00    +0.000 C 
ATOM     24  O   UNL     1       7.555   4.649  15.043  0.00  0.00    +0.000 OA
ATOM     25  N   UNL     1       6.892   4.682  16.255  0.00  0.00    +0.000 NA
ATOM     26  H   UNL     1       3.624   4.276  16.546  0.00  0.00    +0.000 HD
ENDBRANCH  18  19
BRANCH  18  27
ATOM     27  C   UNL     1       3.613   4.323  19.103  0.00  0.00    +0.000 A 
ATOM     28  C   UNL     1       3.279   5.020  20.279  0.00  0.00    +0.000 A 
ATOM     29  C   UNL     1       2.095   4.741  20.962  0.00  0.00    +0.000 A 
ATOM     30  C   UNL     1       1.223   3.768  20.476  0.00  0.00    +0.000 A 
ATOM     31  C   UNL     1       1.552   3.030  19.336  0.00  0.00    +0.000 A 
ATOM     32  C   UNL     1       0.544   2.116  18.704  0.00  0.00    +0.000 C 
ATOM     33  C   UNL     1       2.769   3.279  18.684  0.00  0.00    +0.000 A 
ENDBRANCH  18  27
ENDBRANCH   1  18
TORSDOF 8
ENDMDL
MODEL 2
REMARK VINA RESULT:      -8.4      1.027      1.628
REMARK  Name = 
REMARK  11 active torsions:
REMARK  status: ('A' for Active; 'I' for Inactive)
REMARK    1  A    between atoms: C_1  and  O_2
REMARK    2  A    between atoms: O_2  and  C_3
REMARK    3  A    between atoms: C_8  and  C_9
REMARK    4  A    between atoms: C_9  and  C_10
REMARK    5  A    between atoms: C_10  and  C_11
REMARK    6  A    between atoms: C_11  and  C_13
REMARK    7  A    between atoms: C_13  and  C_14
REMARK    8  A    between atoms: C_14  and  N_15
REMARK    9  A    between atoms: C_14  and  C_22
REMARK   10  A    between atoms: C_18  and  C_19
REMARK   11  A    between atoms: C_26  and  C_27
REMARK                            x       y       z     vdW  Elec       q    Type
REMARK                         _______ _______ _______ _____ _____    ______ ____
ROOT
ATOM      1  C   UNL     1       5.074   5.889  18.299  0.00  0.00    +0.000 C 
ENDROOT
BRANCH   1   2
ATOM      2  C   UNL     1       4.317   6.789  17.333  0.00  0.00    +0.000 C 
ATOM      3  O   UNL     1       4.794   6.988  16.208  0.00  0.00    +0.000 OA
BRANCH   2   4
ATOM      4  C   UNL     1       2.973   7.384  17.691  0.00  0.00    +0.000 C 
BRANCH   4   5
ATOM      5  C   UNL     1       2.579   7.109  19.133  0.00  0.00    +0.000 C 
BRANCH   5  11
ATOM      6  C   UNL     1      -1.208  11.306  22.467  0.00  0.00    +0.000 A 
ATOM      7  C   UNL     1      -0.741  10.315  23.328  0.00  0.00    +0.000 A 
ATOM      8  C   UNL     1       0.087   9.300  22.843  0.00  0.00    +0.000 A 
ATOM      9  C   UNL     1       0.455   9.257  21.490  0.00  0.00    +0.000 A 
ATOM     10  C   UNL     1       1.281   8.238  20.991  0.00  0.00    +0.000 A 
ATOM     11  C   UNL     1       1.659   8.198  19.639  0.00  0.00    +0.000 A 
ATOM     12  C   UNL     1       1.197   9.201  18.781  0.00  0.00    +0.000 A 
ATOM     13  C   UNL     1       0.366  10.216  19.263  0.00  0.00    +0.000 A 
ATOM     14  C   UNL     1      -0.016  10.255  20.613  0.00  0.00    +0.000 A 
ATOM     15  C   UNL     1      -0.856  11.264  21.114  0.00  0.00    +0.000 A 
BRANCH   6  17
ATOM     16  C   UNL     1      -1.398  13.532  23.242  0.00  0.00    +0.000 C 
ATOM     17  O   UNL     1      -2.040  12.333  22.822  0.00  0.00    +0.000 OA
ENDBRANCH   6  17
ENDBRANCH   5  11
ENDBRANCH   4   5
ENDBRANCH   2   4
ENDBRANCH   1   2
BRANCH   1  18
ATOM     18  C   UNL     1       5.091   4.377  18.002  0.00  0.00    +0.000 C 
BRANCH  18  19
ATOM     19  N   UNL     1       4.937   4.170  16.567  0.00  0.00    +0.000 N 
ATOM     20  C   UNL     1       5.964   4.414  15.720  0.00  0.00    +0.000 A 
ATOM     21  C   UNL     1       5.777   4.592  14.334  0.00  0.00    +0.000 A 
ATOM     22  C   UNL     1       7.046   4.726  13.826  0.00  0.00    +0.000 A 
ATOM     23  C   UNL     1       7.602   4.882  12.471  0.00  0.00    +0.000 C 
ATOM     24  O   UNL     1       7.939   4.684  14.849  0.00  0.00    +0.000 OA
ATOM     25  N   UNL     1       7.264   4.496  16.039  0.00  0.00    +0.000 NA
ATOM     26  H   UNL     1       3.980   4.177  16.232  0.00  0.00    +0.000 HD
ENDBRANCH  18  19
BRANCH  18  27
ATOM     27  C   UNL     1       4.049   3.552  18.754  0.00  0.00    +0.000 A 
ATOM     28  C   UNL     1       4.344   3.141  20.067  0.00  0.00    +0.000 A 
ATOM     29  C   UNL     1       3.343   2.650  20.904  0.00  0.00    +0.000 A 
ATOM     30  C   UNL     1       2.029   2.569  20.445  0.00  0.00    +0.000 A 
ATOM     31  C   UNL     1       1.716   2.928  19.131  0.00  0.00    +0.000 A 
ATOM     32  C   UNL     1       0.285   3.018  18.687  0.00  0.00    +0.000 C 
ATOM     33  C   UNL     1       2.738   3.370  18.278  0.00  0.00    +0.000 A 
ENDBRANCH  18  27
ENDBRANCH   1  18
TORSDOF 8
ENDMDL
MODEL 3
REMARK VINA RESULT:      -8.4      5.361      7.501
REMARK  Name = 
REMARK  11 active torsions:
REMARK  status: ('A' for Active; 'I' for Inactive)
REMARK    1  A    between atoms: C_1  and  O_2
REMARK    2  A    between atoms: O_2  and  C_3
REMARK    3  A    between atoms: C_8  and  C_9
REMARK    4  A    between atoms: C_9  and  C_10
REMARK    5  A    between atoms: C_10  and  C_11
REMARK    6  A    between atoms: C_11  and  C_13
REMARK    7  A    between atoms: C_13  and  C_14
REMARK    8  A    between atoms: C_14  and  N_15
REMARK    9  A    between atoms: C_14  and  C_22
REMARK   10  A    between atoms: C_18  and  C_19
REMARK   11  A    between atoms: C_26  and  C_27
REMARK                            x       y       z     vdW  Elec       q    Type
REMARK                         _______ _______ _______ _____ _____    ______ ____
ROOT
ATOM      1  C   UNL     1       7.432   5.386  17.893  0.00  0.00    +0.000 C 
ENDROOT
BRANCH   1   2
ATOM      2  C   UNL     1       7.918   6.095  19.149  0.00  0.00    +0.000 C 
ATOM      3  O   UNL     1       7.836   5.506  20.234  0.00  0.00    +0.000 OA
BRANCH   2   4
ATOM      4  C   UNL     1       8.556   7.466  19.088  0.00  0.00    +0.000 C 
BRANCH   4   5
ATOM      5  C   UNL     1       8.029   8.305  17.936  0.00  0.00    +0.000 C 
BRANCH   5  11
ATOM      6  C   UNL     1      10.841  14.063  19.354  0.00  0.00    +0.000 A 
ATOM      7  C   UNL     1      11.483  13.045  20.057  0.00  0.00    +0.000 A 
ATOM      8  C   UNL     1      11.056  11.723  19.919  0.00  0.00    +0.000 A 
ATOM      9  C   UNL     1       9.978  11.398  19.082  0.00  0.00    +0.000 A 
ATOM     10  C   UNL     1       9.536  10.073  18.941  0.00  0.00    +0.000 A 
ATOM     11  C   UNL     1       8.464   9.745  18.097  0.00  0.00    +0.000 A 
ATOM     12  C   UNL     1       7.830  10.768  17.385  0.00  0.00    +0.000 A 
ATOM     13  C   UNL     1       8.252  12.093  17.524  0.00  0.00    +0.000 A 
ATOM     14  C   UNL     1       9.322  12.423  18.370  0.00  0.00    +0.000 A 
ATOM     15  C   UNL     1       9.758  13.750  18.526  0.00  0.00    +0.000 A 
BRANCH   6  17
ATOM     16  C   UNL     1      10.770  16.182  18.305  0.00  0.00    +0.000 C 
ATOM     17  O   UNL     1      11.155  15.392  19.426  0.00  0.00    +0.000 OA
ENDBRANCH   6  17
ENDBRANCH   5  11
ENDBRANCH   4   5
ENDBRANCH   2   4
ENDBRANCH   1   2
BRANCH   1  18
ATOM     18  C   UNL     1       6.106   4.607  17.981  0.00  0.00    +0.000 C 
BRANCH  18  19
ATOM     19  N   UNL     1       5.877   3.906  16.723  0.00  0.00    +0.000 N 
ATOM     20  C   UNL     1       6.466   4.330  15.580  0.00  0.00    +0.000 A 
ATOM     21  C   UNL     1       6.009   3.944  14.304  0.00  0.00    +0.000 A 
ATOM     22  C   UNL     1       6.907   4.501  13.428  0.00  0.00    +0.000 A 
ATOM     23  C   UNL     1       7.080   4.465  11.966  0.00  0.00    +0.000 C 
ATOM     24  O   UNL     1       7.820   5.222  14.130  0.00  0.00    +0.000 OA
ATOM     25  N   UNL     1       7.543   5.123  15.480  0.00  0.00    +0.000 NA
ATOM     26  H   UNL     1       5.033   3.346  16.691  0.00  0.00    +0.000 HD
ENDBRANCH  18  19
BRANCH  18  27
ATOM     27  C   UNL     1       4.878   5.445  18.331  0.00  0.00    +0.000 A 
ATOM     28  C   UNL     1       4.525   6.502  17.471  0.00  0.00    +0.000 A 
ATOM     29  C   UNL     1       3.273   7.109  17.562  0.00  0.00    +0.000 A 
ATOM     30  C   UNL     1       2.351   6.665  18.509  0.00  0.00    +0.000 A 
ATOM     31  C   UNL     1       2.691   5.647  19.404  0.00  0.00    +0.000 A 
ATOM     32  C   UNL     1       1.650   5.040  20.298  0.00  0.00    +0.000 C 
ATOM     33  C   UNL     1       3.972   5.078  19.342  0.00  0.00    +0.000 A 
ENDBRANCH  18  27
ENDBRANCH   1  18
TORSDOF 8
ENDMDL
MODEL 4
REMARK VINA RESULT:      -8.4      0.897      1.843
REMARK  Name = 
REMARK  11 active torsions:
REMARK  status: ('A' for Active; 'I' for Inactive)
REMARK    1  A    between atoms: C_1  and  O_2
REMARK    2  A    between atoms: O_2  and  C_3
REMARK    3  A    between atoms: C_8  and  C_9
REMARK    4  A    between atoms: C_9  and  C_10
REMARK    5  A    between atoms: C_10  and  C_11
REMARK    6  A    between atoms: C_11  and  C_13
REMARK    7  A    between atoms: C_13  and  C_14
REMARK    8  A    between atoms: C_14  and  N_15
REMARK    9  A    between atoms: C_14  and  C_22
REMARK   10  A    between atoms: C_18  and  C_19
REMARK   11  A    between atoms: C_26  and  C_27
REMARK                            x       y       z     vdW  Elec       q    Type
REMARK                         _______ _______ _______ _____ _____    ______ ____
ROOT
ATOM      1  C   UNL     1       5.122   5.746  18.055  0.00  0.00    +0.000 C 
ENDROOT
BRANCH   1   2
ATOM      2  C   UNL     1       4.689   6.882  17.139  0.00  0.00    +0.000 C 
ATOM      3  O   UNL     1       5.265   7.023  16.053  0.00  0.00    +0.000 OA
BRANCH   2   4
ATOM      4  C   UNL     1       3.533   7.791  17.496  0.00  0.00    +0.000 C 
BRANCH   4   5
ATOM      5  C   UNL     1       2.669   7.227  18.613  0.00  0.00    +0.000 C 
BRANCH   5  11
ATOM      6  C   UNL     1      -1.118  11.332  22.058  0.00  0.00    +0.000 A 
ATOM      7  C   UNL     1      -0.619  10.341  22.901  0.00  0.00    +0.000 A 
ATOM      8  C   UNL     1       0.216   9.345  22.390  0.00  0.00    +0.000 A 
ATOM      9  C   UNL     1       0.558   9.319  21.030  0.00  0.00    +0.000 A 
ATOM     10  C   UNL     1       1.391   8.318  20.506  0.00  0.00    +0.000 A 
ATOM     11  C   UNL     1       1.742   8.297  19.147  0.00  0.00    +0.000 A 
ATOM     12  C   UNL     1       1.248   9.299  18.307  0.00  0.00    +0.000 A 
ATOM     13  C   UNL     1       0.409  10.296  18.814  0.00  0.00    +0.000 A 
ATOM     14  C   UNL     1       0.054  10.317  20.171  0.00  0.00    +0.000 A 
ATOM     15  C   UNL     1      -0.792  11.308  20.698  0.00  0.00    +0.000 A 
BRANCH   6  17
ATOM     16  C   UNL     1      -2.798  12.063  23.554  0.00  0.00    +0.000 C 
ATOM     17  O   UNL     1      -1.959  12.342  22.438  0.00  0.00    +0.000 OA
ENDBRANCH   6  17
ENDBRANCH   5  11
ENDBRANCH   4   5
ENDBRANCH   2   4
ENDBRANCH   1   2
BRANCH   1  18
ATOM     18  C   UNL     1       4.505   4.356  17.808  0.00  0.00    +0.000 C 
BRANCH  18  19
ATOM     19  N   UNL     1       4.298   4.172  16.376  0.00  0.00    +0.000 N 
ATOM     20  C   UNL     1       5.350   4.144  15.525  0.00  0.00    +0.000 A 
ATOM     21  C   UNL     1       5.206   4.341  14.136  0.00  0.00    +0.000 A 
ATOM     22  C   UNL     1       6.466   4.152  13.625  0.00  0.00    +0.000 A 
ATOM     23  C   UNL     1       7.037   4.147  12.268  0.00  0.00    +0.000 C 
ATOM     24  O   UNL     1       7.326   3.908  14.648  0.00  0.00    +0.000 OA
ATOM     25  N   UNL     1       6.631   3.908  15.842  0.00  0.00    +0.000 NA
ATOM     26  H   UNL     1       3.370   4.409  16.043  0.00  0.00    +0.000 HD
ENDBRANCH  18  19
BRANCH  18  27
ATOM     27  C   UNL     1       3.202   4.077  18.554  0.00  0.00    +0.000 A 
ATOM     28  C   UNL     1       2.073   3.697  17.805  0.00  0.00    +0.000 A 
ATOM     29  C   UNL     1       0.953   3.148  18.429  0.00  0.00    +0.000 A 
ATOM     30  C   UNL     1       0.946   2.964  19.811  0.00  0.00    +0.000 A 
ATOM     31  C   UNL     1       2.036   3.374  20.584  0.00  0.00    +0.000 A 
ATOM     32  C   UNL     1       2.115   3.014  22.039  0.00  0.00    +0.000 C 
ATOM     33  C   UNL     1       3.137   3.973  19.955  0.00  0.00    +0.000 A 
ENDBRANCH  18  27
ENDBRANCH   1  18
TORSDOF 8
ENDMDL
MODEL 5
REMARK VINA RESULT:      -8.4      2.796      5.175
REMARK  Name = 
REMARK  11 active torsions:
REMARK  status: ('A' for Active; 'I' for Inactive)
REMARK    1  A    between atoms: C_1  and  O_2
REMARK    2  A    between atoms: O_2  and  C_3
REMARK    3  A    between atoms: C_8  and  C_9
REMARK    4  A    between atoms: C_9  and  C_10
REMARK    5  A    between atoms: C_10  and  C_11
REMARK    6  A    between atoms: C_11  and  C_13
REMARK    7  A    between atoms: C_13  and  C_14
REMARK    8  A    between atoms: C_14  and  N_15
REMARK    9  A    between atoms: C_14  and  C_22
REMARK   10  A    between atoms: C_18  and  C_19
REMARK   11  A    between atoms: C_26  and  C_27
REMARK                            x       y       z     vdW  Elec       q    Type
REMARK                         _______ _______ _______ _____ _____    ______ ____
ROOT
ATOM      1  C   UNL     1       3.441   7.765  17.701  0.00  0.00    +0.000 C 
ENDROOT
BRANCH   1   2
ATOM      2  C   UNL     1       2.220   8.284  18.447  0.00  0.00    +0.000 C 
ATOM      3  O   UNL     1       2.025   7.900  19.608  0.00  0.00    +0.000 OA
BRANCH   2   4
ATOM      4  C   UNL     1       1.287   9.303  17.830  0.00  0.00    +0.000 C 
BRANCH   4   5
ATOM      5  C   UNL     1       1.271  10.617  18.594  0.00  0.00    +0.000 C 
BRANCH   5  11
ATOM      6  C   UNL     1      -5.202  11.691  18.686  0.00  0.00    +0.000 A 
ATOM      7  C   UNL     1      -4.916  10.652  17.804  0.00  0.00    +0.000 A 
ATOM      8  C   UNL     1      -3.594  10.242  17.612  0.00  0.00    +0.000 A 
ATOM      9  C   UNL     1      -2.540  10.869  18.293  0.00  0.00    +0.000 A 
ATOM     10  C   UNL     1      -1.208  10.469  18.103  0.00  0.00    +0.000 A 
ATOM     11  C   UNL     1      -0.153  11.089  18.791  0.00  0.00    +0.000 A 
ATOM     12  C   UNL     1      -0.446  12.124  19.683  0.00  0.00    +0.000 A 
ATOM     13  C   UNL     1      -1.767  12.538  19.875  0.00  0.00    +0.000 A 
ATOM     14  C   UNL     1      -2.823  11.923  19.186  0.00  0.00    +0.000 A 
ATOM     15  C   UNL     1      -4.157  12.330  19.361  0.00  0.00    +0.000 A 
BRANCH   6  17
ATOM     16  C   UNL     1      -6.595  13.601  18.789  0.00  0.00    +0.000 C 
ATOM     17  O   UNL     1      -6.450  12.192  18.938  0.00  0.00    +0.000 OA
ENDBRANCH   6  17
ENDBRANCH   5  11
ENDBRANCH   4   5
ENDBRANCH   2   4
ENDBRANCH   1   2
BRANCH   1  18
ATOM     18  C   UNL     1       3.724   6.251  17.760  0.00  0.00    +0.000 C 
BRANCH  18  19
ATOM     19  N   UNL     1       3.688   5.812  19.151  0.00  0.00    +0.000 N 
ATOM     20  C   UNL     1       2.947   4.740  19.517  0.00  0.00    +0.000 A 
ATOM     21  C   UNL     1       2.578   4.496  20.855  0.00  0.00    +0.000 A 
ATOM     22  C   UNL     1       1.922   3.290  20.821  0.00  0.00    +0.000 A 
ATOM     23  C   UNL     1       1.324   2.413  21.842  0.00  0.00    +0.000 C 
ATOM     24  O   UNL     1       1.854   2.860  19.534  0.00  0.00    +0.000 OA
ATOM     25  N   UNL     1       2.489   3.770  18.712  0.00  0.00    +0.000 NA
ATOM     26  H   UNL     1       3.944   6.519  19.831  0.00  0.00    +0.000 HD
ENDBRANCH  18  19
BRANCH  18  27
ATOM     27  C   UNL     1       5.035   5.806  17.116  0.00  0.00    +0.000 A 
ATOM     28  C   UNL     1       6.159   5.627  17.946  0.00  0.00    +0.000 A 
ATOM     29  C   UNL     1       7.286   4.949  17.484  0.00  0.00    +0.000 A 
ATOM     30  C   UNL     1       7.307   4.433  16.189  0.00  0.00    +0.000 A 
ATOM     31  C   UNL     1       6.224   4.635  15.329  0.00  0.00    +0.000 A 
ATOM     32  C   UNL     1       6.159   3.931  14.006  0.00  0.00    +0.000 C 
ATOM     33  C   UNL     1       5.114   5.364  15.784  0.00  0.00    +0.000 A 
ENDBRANCH  18  27
ENDBRANCH   1  18
TORSDOF 8
ENDMDL
MODEL 6
REMARK VINA RESULT:      -8.2      2.618      4.186
REMARK  Name = 
REMARK  11 active torsions:
REMARK  status: ('A' for Active; 'I' for Inactive)
REMARK    1  A    between atoms: C_1  and  O_2
REMARK    2  A    between atoms: O_2  and  C_3
REMARK    3  A    between atoms: C_8  and  C_9
REMARK    4  A    between atoms: C_9  and  C_10
REMARK    5  A    between atoms: C_10  and  C_11
REMARK    6  A    between atoms: C_11  and  C_13
REMARK    7  A    between atoms: C_13  and  C_14
REMARK    8  A    between atoms: C_14  and  N_15
REMARK    9  A    between atoms: C_14  and  C_22
REMARK   10  A    between atoms: C_18  and  C_19
REMARK   11  A    between atoms: C_26  and  C_27
REMARK                            x       y       z     vdW  Elec       q    Type
REMARK                         _______ _______ _______ _____ _____    ______ ____
ROOT
ATOM      1  C   UNL     1       3.241   5.403  17.881  0.00  0.00    +0.000 C 
ENDROOT
BRANCH   1   2
ATOM      2  C   UNL     1       2.506   6.581  18.503  0.00  0.00    +0.000 C 
ATOM      3  O   UNL     1       2.287   6.570  19.720  0.00  0.00    +0.000 OA
BRANCH   2   4
ATOM      4  C   UNL     1       2.102   7.787  17.681  0.00  0.00    +0.000 C 
BRANCH   4   5
ATOM      5  C   UNL     1       2.304   9.096  18.427  0.00  0.00    +0.000 C 
BRANCH   5  11
ATOM      6  C   UNL     1      -3.796  11.490  18.089  0.00  0.00    +0.000 A 
ATOM      7  C   UNL     1      -3.617  10.530  17.095  0.00  0.00    +0.000 A 
ATOM      8  C   UNL     1      -2.389   9.878  16.966  0.00  0.00    +0.000 A 
ATOM      9  C   UNL     1      -1.320  10.180  17.823  0.00  0.00    +0.000 A 
ATOM     10  C   UNL     1      -0.080   9.536  17.698  0.00  0.00    +0.000 A 
ATOM     11  C   UNL     1       0.988   9.829  18.561  0.00  0.00    +0.000 A 
ATOM     12  C   UNL     1       0.800  10.784  19.564  0.00  0.00    +0.000 A 
ATOM     13  C   UNL     1      -0.427  11.441  19.694  0.00  0.00    +0.000 A 
ATOM     14  C   UNL     1      -1.494  11.152  18.830  0.00  0.00    +0.000 A 
ATOM     15  C   UNL     1      -2.733  11.806  18.941  0.00  0.00    +0.000 A 
BRANCH   6  17
ATOM     16  C   UNL     1      -5.862  12.235  17.210  0.00  0.00    +0.000 C 
ATOM     17  O   UNL     1      -4.942  12.208  18.297  0.00  0.00    +0.000 OA
ENDBRANCH   6  17
ENDBRANCH   5  11
ENDBRANCH   4   5
ENDBRANCH   2   4
ENDBRANCH   1   2
BRANCH   1  18
ATOM     18  C   UNL     1       4.488   5.710  17.029  0.00  0.00    +0.000 C 
BRANCH  18  19
ATOM     19  N   UNL     1       4.840   4.527  16.252  0.00  0.00    +0.000 N 
ATOM     20  C   UNL     1       5.569   4.638  15.117  0.00  0.00    +0.000 A 
ATOM     21  C   UNL     1       5.623   3.616  14.147  0.00  0.00    +0.000 A 
ATOM     22  C   UNL     1       6.521   4.069  13.213  0.00  0.00    +0.000 A 
ATOM     23  C   UNL     1       7.097   3.507  11.979  0.00  0.00    +0.000 C 
ATOM     24  O   UNL     1       6.942   5.311  13.570  0.00  0.00    +0.000 OA
ATOM     25  N   UNL     1       6.343   5.674  14.760  0.00  0.00    +0.000 NA
ATOM     26  H   UNL     1       4.246   3.720  16.406  0.00  0.00    +0.000 HD
ENDBRANCH  18  19
BRANCH  18  27
ATOM     27  C   UNL     1       5.710   6.192  17.808  0.00  0.00    +0.000 A 
ATOM     28  C   UNL     1       6.402   5.261  18.605  0.00  0.00    +0.000 A 
ATOM     29  C   UNL     1       7.673   5.551  19.100  0.00  0.00    +0.000 A 
ATOM     30  C   UNL     1       8.276   6.772  18.799  0.00  0.00    +0.000 A 
ATOM     31  C   UNL     1       7.593   7.732  18.048  0.00  0.00    +0.000 A 
ATOM     32  C   UNL     1       8.299   8.966  17.567  0.00  0.00    +0.000 C 
ATOM     33  C   UNL     1       6.293   7.454  17.599  0.00  0.00    +0.000 A 
ENDBRANCH  18  27
ENDBRANCH   1  18
TORSDOF 8
ENDMDL
MODEL 7
REMARK VINA RESULT:      -8.1      2.054      4.113
REMARK  Name = 
REMARK  11 active torsions:
REMARK  status: ('A' for Active; 'I' for Inactive)
REMARK    1  A    between atoms: C_1  and  O_2
REMARK    2  A    between atoms: O_2  and  C_3
REMARK    3  A    between atoms: C_8  and  C_9
REMARK    4  A    between atoms: C_9  and  C_10
REMARK    5  A    between atoms: C_10  and  C_11
REMARK    6  A    between atoms: C_11  and  C_13
REMARK    7  A    between atoms: C_13  and  C_14
REMARK    8  A    between atoms: C_14  and  N_15
REMARK    9  A    between atoms: C_14  and  C_22
REMARK   10  A    between atoms: C_18  and  C_19
REMARK   11  A    between atoms: C_26  and  C_27
REMARK                            x       y       z     vdW  Elec       q    Type
REMARK                         _______ _______ _______ _____ _____    ______ ____
ROOT
ATOM      1  C   UNL     1       4.004   3.535  18.174  0.00  0.00    +0.000 C 
ENDROOT
BRANCH   1   2
ATOM      2  C   UNL     1       2.508   3.807  18.233  0.00  0.00    +0.000 C 
ATOM      3  O   UNL     1       1.789   3.379  17.322  0.00  0.00    +0.000 OA
BRANCH   2   4
ATOM      4  C   UNL     1       1.879   4.524  19.408  0.00  0.00    +0.000 C 
BRANCH   4   5
ATOM      5  C   UNL     1       2.783   5.599  19.988  0.00  0.00    +0.000 C 
BRANCH   5  11
ATOM      6  C   UNL     1       0.198  11.620  19.621  0.00  0.00    +0.000 A 
ATOM      7  C   UNL     1      -0.011  11.101  20.897  0.00  0.00    +0.000 A 
ATOM      8  C   UNL     1       0.451   9.821  21.216  0.00  0.00    +0.000 A 
ATOM      9  C   UNL     1       1.122   9.040  20.263  0.00  0.00    +0.000 A 
ATOM     10  C   UNL     1       1.584   7.751  20.571  0.00  0.00    +0.000 A 
ATOM     11  C   UNL     1       2.265   6.972  19.622  0.00  0.00    +0.000 A 
ATOM     12  C   UNL     1       2.482   7.502  18.346  0.00  0.00    +0.000 A 
ATOM     13  C   UNL     1       2.018   8.780  18.023  0.00  0.00    +0.000 A 
ATOM     14  C   UNL     1       1.335   9.560  18.969  0.00  0.00    +0.000 A 
ATOM     15  C   UNL     1       0.856  10.844  18.661  0.00  0.00    +0.000 A 
BRANCH   6  17
ATOM     16  C   UNL     1       0.774  13.682  18.614  0.00  0.00    +0.000 C 
ATOM     17  O   UNL     1      -0.226  12.847  19.188  0.00  0.00    +0.000 OA
ENDBRANCH   6  17
ENDBRANCH   5  11
ENDBRANCH   4   5
ENDBRANCH   2   4
ENDBRANCH   1   2
BRANCH   1  18
ATOM     18  C   UNL     1       4.862   4.454  17.284  0.00  0.00    +0.000 C 
BRANCH  18  19
ATOM     19  N   UNL     1       5.535   3.648  16.272  0.00  0.00    +0.000 N 
ATOM     20  C   UNL     1       5.977   4.211  15.123  0.00  0.00    +0.000 A 
ATOM     21  C   UNL     1       6.287   3.450  13.977  0.00  0.00    +0.000 A 
ATOM     22  C   UNL     1       6.774   4.363  13.074  0.00  0.00    +0.000 A 
ATOM     23  C   UNL     1       7.331   4.270  11.714  0.00  0.00    +0.000 C 
ATOM     24  O   UNL     1       6.712   5.604  13.623  0.00  0.00    +0.000 OA
ATOM     25  N   UNL     1       6.206   5.514  14.905  0.00  0.00    +0.000 NA
ATOM     26  H   UNL     1       5.345   2.653  16.319  0.00  0.00    +0.000 HD
ENDBRANCH  18  19
BRANCH  18  27
ATOM     27  C   UNL     1       5.889   5.309  18.024  0.00  0.00    +0.000 A 
ATOM     28  C   UNL     1       6.724   4.680  18.967  0.00  0.00    +0.000 A 
ATOM     29  C   UNL     1       7.861   5.323  19.454  0.00  0.00    +0.000 A 
ATOM     30  C   UNL     1       8.186   6.602  19.002  0.00  0.00    +0.000 A 
ATOM     31  C   UNL     1       7.350   7.267  18.101  0.00  0.00    +0.000 A 
ATOM     32  C   UNL     1       7.783   8.558  17.471  0.00  0.00    +0.000 C 
ATOM     33  C   UNL     1       6.180   6.634  17.655  0.00  0.00    +0.000 A 
ENDBRANCH  18  27
ENDBRANCH   1  18
TORSDOF 8
ENDMDL
MODEL 8
REMARK VINA RESULT:      -8.1      3.194      5.679
REMARK  Name = 
REMARK  11 active torsions:
REMARK  status: ('A' for Active; 'I' for Inactive)
REMARK    1  A    between atoms: C_1  and  O_2
REMARK    2  A    between atoms: O_2  and  C_3
REMARK    3  A    between atoms: C_8  and  C_9
REMARK    4  A    between atoms: C_9  and  C_10
REMARK    5  A    between atoms: C_10  and  C_11
REMARK    6  A    between atoms: C_11  and  C_13
REMARK    7  A    between atoms: C_13  and  C_14
REMARK    8  A    between atoms: C_14  and  N_15
REMARK    9  A    between atoms: C_14  and  C_22
REMARK   10  A    between atoms: C_18  and  C_19
REMARK   11  A    between atoms: C_26  and  C_27
REMARK                            x       y       z     vdW  Elec       q    Type
REMARK                         _______ _______ _______ _____ _____    ______ ____
ROOT
ATOM      1  C   UNL     1       3.181   6.936  18.797  0.00  0.00    +0.000 C 
ENDROOT
BRANCH   1   2
ATOM      2  C   UNL     1       2.801   7.921  17.701  0.00  0.00    +0.000 C 
ATOM      3  O   UNL     1       3.568   8.067  16.741  0.00  0.00    +0.000 OA
BRANCH   2   4
ATOM      4  C   UNL     1       1.485   8.666  17.726  0.00  0.00    +0.000 C 
BRANCH   4   5
ATOM      5  C   UNL     1       1.625  10.081  18.263  0.00  0.00    +0.000 C 
BRANCH   5  11
ATOM      6  C   UNL     1      -4.713  11.703  18.780  0.00  0.00    +0.000 A 
ATOM      7  C   UNL     1      -4.567  10.691  17.834  0.00  0.00    +0.000 A 
ATOM      8  C   UNL     1      -3.299  10.180  17.547  0.00  0.00    +0.000 A 
ATOM      9  C   UNL     1      -2.159  10.676  18.195  0.00  0.00    +0.000 A 
ATOM     10  C   UNL     1      -0.880  10.174  17.909  0.00  0.00    +0.000 A 
ATOM     11  C   UNL     1       0.261  10.663  18.564  0.00  0.00    +0.000 A 
ATOM     12  C   UNL     1       0.110  11.671  19.521  0.00  0.00    +0.000 A 
ATOM     13  C   UNL     1      -1.157  12.187  19.808  0.00  0.00    +0.000 A 
ATOM     14  C   UNL     1      -2.299  11.703  19.152  0.00  0.00    +0.000 A 
ATOM     15  C   UNL     1      -3.580  12.213  19.424  0.00  0.00    +0.000 A 
BRANCH   6  17
ATOM     16  C   UNL     1      -6.820  11.471  19.830  0.00  0.00    +0.000 C 
ATOM     17  O   UNL     1      -5.896  12.296  19.127  0.00  0.00    +0.000 OA
ENDBRANCH   6  17
ENDBRANCH   5  11
ENDBRANCH   4   5
ENDBRANCH   2   4
ENDBRANCH   1   2
BRANCH   1  18
ATOM     18  C   UNL     1       2.083   6.521  19.795  0.00  0.00    +0.000 C 
BRANCH  18  19
ATOM     19  N   UNL     1       2.137   7.397  20.960  0.00  0.00    +0.000 N 
ATOM     20  C   UNL     1       1.050   8.107  21.340  0.00  0.00    +0.000 A 
ATOM     21  C   UNL     1       1.136   9.223  22.199  0.00  0.00    +0.000 A 
ATOM     22  C   UNL     1      -0.166   9.602  22.408  0.00  0.00    +0.000 A 
ATOM     23  C   UNL     1      -0.819  10.637  23.229  0.00  0.00    +0.000 C 
ATOM     24  O   UNL     1      -0.984   8.798  21.680  0.00  0.00    +0.000 OA
ATOM     25  N   UNL     1      -0.225   7.864  21.003  0.00  0.00    +0.000 NA
ATOM     26  H   UNL     1       3.068   7.694  21.230  0.00  0.00    +0.000 HD
ENDBRANCH  18  19
BRANCH  18  27
ATOM     27  C   UNL     1       2.129   5.063  20.248  0.00  0.00    +0.000 A 
ATOM     28  C   UNL     1       0.911   4.405  20.504  0.00  0.00    +0.000 A 
ATOM     29  C   UNL     1       0.862   3.017  20.630  0.00  0.00    +0.000 A 
ATOM     30  C   UNL     1       2.027   2.264  20.496  0.00  0.00    +0.000 A 
ATOM     31  C   UNL     1       3.257   2.894  20.287  0.00  0.00    +0.000 A 
ATOM     32  C   UNL     1       4.480   2.089  19.959  0.00  0.00    +0.000 C 
ATOM     33  C   UNL     1       3.306   4.295  20.214  0.00  0.00    +0.000 A 
ENDBRANCH  18  27
ENDBRANCH   1  18
TORSDOF 8
ENDMDL
MODEL 9
REMARK VINA RESULT:      -8.1      5.554      8.559
REMARK  Name = 
REMARK  11 active torsions:
REMARK  status: ('A' for Active; 'I' for Inactive)
REMARK    1  A    between atoms: C_1  and  O_2
REMARK    2  A    between atoms: O_2  and  C_3
REMARK    3  A    between atoms: C_8  and  C_9
REMARK    4  A    between atoms: C_9  and  C_10
REMARK    5  A    between atoms: C_10  and  C_11
REMARK    6  A    between atoms: C_11  and  C_13
REMARK    7  A    between atoms: C_13  and  C_14
REMARK    8  A    between atoms: C_14  and  N_15
REMARK    9  A    between atoms: C_14  and  C_22
REMARK   10  A    between atoms: C_18  and  C_19
REMARK   11  A    between atoms: C_26  and  C_27
REMARK                            x       y       z     vdW  Elec       q    Type
REMARK                         _______ _______ _______ _____ _____    ______ ____
ROOT
ATOM      1  C   UNL     1       5.930   6.797  17.194  0.00  0.00    +0.000 C 
ENDROOT
BRANCH   1   2
ATOM      2  C   UNL     1       7.142   6.502  18.065  0.00  0.00    +0.000 C 
ATOM      3  O   UNL     1       7.260   5.373  18.558  0.00  0.00    +0.000 OA
BRANCH   2   4
ATOM      4  C   UNL     1       8.232   7.529  18.281  0.00  0.00    +0.000 C 
BRANCH   4   5
ATOM      5  C   UNL     1       7.900   8.873  17.655  0.00  0.00    +0.000 C 
BRANCH   5  11
ATOM      6  C   UNL     1      10.921  14.349  19.643  0.00  0.00    +0.000 A 
ATOM      7  C   UNL     1      10.416  14.537  18.358  0.00  0.00    +0.000 A 
ATOM      8  C   UNL     1       9.730  13.502  17.719  0.00  0.00    +0.000 A 
ATOM      9  C   UNL     1       9.545  12.263  18.350  0.00  0.00    +0.000 A 
ATOM     10  C   UNL     1       8.863  11.214  17.714  0.00  0.00    +0.000 A 
ATOM     11  C   UNL     1       8.668   9.977  18.348  0.00  0.00    +0.000 A 
ATOM     12  C   UNL     1       9.167   9.797  19.642  0.00  0.00    +0.000 A 
ATOM     13  C   UNL     1       9.857  10.830  20.283  0.00  0.00    +0.000 A 
ATOM     14  C   UNL     1      10.056  12.066  19.649  0.00  0.00    +0.000 A 
ATOM     15  C   UNL     1      10.751  13.114  20.276  0.00  0.00    +0.000 A 
BRANCH   6  17
ATOM     16  C   UNL     1      10.881  16.016  21.321  0.00  0.00    +0.000 C 
ATOM     17  O   UNL     1      11.626  15.279  20.358  0.00  0.00    +0.000 OA
ENDBRANCH   6  17
ENDBRANCH   5  11
ENDBRANCH   4   5
ENDBRANCH   2   4
ENDBRANCH   1   2
BRANCH   1  18
ATOM     18  C   UNL     1       5.178   5.597  16.587  0.00  0.00    +0.000 C 
BRANCH  18  19
ATOM     19  N   UNL     1       4.954   4.598  17.626  0.00  0.00    +0.000 N 
ATOM     20  C   UNL     1       3.739   4.469  18.208  0.00  0.00    +0.000 A 
ATOM     21  C   UNL     1       3.555   3.806  19.439  0.00  0.00    +0.000 A 
ATOM     22  C   UNL     1       2.197   3.813  19.640  0.00  0.00    +0.000 A 
ATOM     23  C   UNL     1       1.305   3.258  20.672  0.00  0.00    +0.000 C 
ATOM     24  O   UNL     1       1.603   4.485  18.619  0.00  0.00    +0.000 OA
ATOM     25  N   UNL     1       2.567   4.904  17.723  0.00  0.00    +0.000 NA
ATOM     26  H   UNL     1       5.790   4.277  18.100  0.00  0.00    +0.000 HD
ENDBRANCH  18  19
BRANCH  18  27
ATOM     27  C   UNL     1       5.854   4.942  15.384  0.00  0.00    +0.000 A 
ATOM     28  C   UNL     1       5.151   3.941  14.687  0.00  0.00    +0.000 A 
ATOM     29  C   UNL     1       5.574   3.518  13.428  0.00  0.00    +0.000 A 
ATOM     30  C   UNL     1       6.701   4.092  12.841  0.00  0.00    +0.000 A 
ATOM     31  C   UNL     1       7.443   5.056  13.530  0.00  0.00    +0.000 A 
ATOM     32  C   UNL     1       8.542   5.808  12.839  0.00  0.00    +0.000 C 
ATOM     33  C   UNL     1       7.042   5.438  14.819  0.00  0.00    +0.000 A 
ENDBRANCH  18  27
ENDBRANCH   1  18
TORSDOF 8
ENDMDL
