MODEL 1
REMARK VINA RESULT:      -7.6      0.000      0.000
REMARK  Name = 
REMARK  4 active torsions:
REMARK  status: ('A' for Active; 'I' for Inactive)
REMARK    1  A    between atoms: C_1  and  C_2
REMARK    2  A    between atoms: C_6  and  C_7
REMARK    3  A    between atoms: C_8  and  C_9
REMARK    4  A    between atoms: C_9  and  N_10
REMARK                            x       y       z     vdW  Elec       q    Type
REMARK                         _______ _______ _______ _____ _____    ______ ____
ROOT
ATOM      1  C   UNL     1       4.726   3.966  18.735  0.00  0.00    +0.000 C 
ENDROOT
BRANCH   1   2
ATOM      2  N   UNL     1       3.665   4.954  18.839  0.00  0.00    +0.000 NA
ATOM      3  C   UNL     1       4.116   6.333  18.525  0.00  0.00    +0.000 C 
ATOM      4  C   UNL     1       2.902   7.298  18.506  0.00  0.00    +0.000 C 
ATOM      5  N   UNL     1       2.310   7.265  19.848  0.00  0.00    +0.000 N 
ATOM      6  C   UNL     1       1.460   8.306  20.191  0.00  0.00    +0.000 A 
ATOM      7  C   UNL     1       1.309   8.597  21.548  0.00  0.00    +0.000 A 
ATOM      8  C   UNL     1       0.527   9.664  21.956  0.00  0.00    +0.000 A 
ATOM      9  C   UNL     1      -0.113  10.429  20.993  0.00  0.00    +0.000 A 
ATOM     10  C   UNL     1       0.081  10.086  19.664  0.00  0.00    +0.000 A 
ATOM     11  N   UNL     1       0.857   9.062  19.247  0.00  0.00    +0.000 NA
ATOM     12  C   UNL     1       1.833   5.921  20.224  0.00  0.00    +0.000 C 
ATOM     13  C   UNL     1       3.031   4.945  20.178  0.00  0.00    +0.000 C 
ENDBRANCH   1   2
BRANCH   1  21
ATOM     14  C   UNL     1       6.657   4.103  12.415  0.00  0.00    +0.000 C 
ATOM     15  C   UNL     1       6.410   4.270  13.890  0.00  0.00    +0.000 A 
ATOM     16  C   UNL     1       7.358   4.772  14.706  0.00  0.00    +0.000 A 
ATOM     17  C   UNL     1       7.081   4.868  16.085  0.00  0.00    +0.000 A 
ATOM     18  N   UNL     1       7.773   5.355  17.095  0.00  0.00    +0.000 NA
ATOM     19  C   UNL     1       6.995   5.145  18.207  0.00  0.00    +0.000 A 
ATOM     20  C   UNL     1       7.432   5.625  19.540  0.00  0.00    +0.000 C 
ATOM     21  C   UNL     1       5.831   4.477  17.878  0.00  0.00    +0.000 A 
ATOM     22  N   UNL     1       5.865   4.380  16.500  0.00  0.00    +0.000 N 
ATOM     23  C   UNL     1       4.912   3.915  15.593  0.00  0.00    +0.000 A 
ATOM     24  N   UNL     1       5.158   3.858  14.316  0.00  0.00    +0.000 NA
ENDBRANCH   1  21
TORSDOF 2
ENDMDL
MODEL 2
REMARK VINA RESULT:      -7.5      0.951      1.711
REMARK  Name = 
REMARK  4 active torsions:
REMARK  status: ('A' for Active; 'I' for Inactive)
REMARK    1  A    between atoms: C_1  and  C_2
REMARK    2  A    between atoms: C_6  and  C_7
REMARK    3  A    between atoms: C_8  and  C_9
REMARK    4  A    between atoms: C_9  and  N_10
REMARK                            x       y       z     vdW  Elec       q    Type
REMARK                         _______ _______ _______ _____ _____    ______ ____
ROOT
ATOM      1  C   UNL     1       4.471   4.624  18.468  0.00  0.00    +0.000 C 
ENDROOT
BRANCH   1   2
ATOM      2  N   UNL     1       3.894   5.905  18.839  0.00  0.00    +0.000 NA
ATOM      3  C   UNL     1       2.685   5.778  19.692  0.00  0.00    +0.000 C 
ATOM      4  C   UNL     1       2.223   7.178  20.170  0.00  0.00    +0.000 C 
ATOM      5  N   UNL     1       1.900   7.955  18.967  0.00  0.00    +0.000 N 
ATOM      6  C   UNL     1       1.118   9.089  19.137  0.00  0.00    +0.000 A 
ATOM      7  C   UNL     1       0.376   9.530  18.040  0.00  0.00    +0.000 A 
ATOM      8  C   UNL     1      -0.475  10.616  18.158  0.00  0.00    +0.000 A 
ATOM      9  C   UNL     1      -0.565  11.263  19.381  0.00  0.00    +0.000 A 
ATOM     10  C   UNL     1       0.199  10.772  20.429  0.00  0.00    +0.000 A 
ATOM     11  N   UNL     1       1.018   9.701  20.337  0.00  0.00    +0.000 NA
ATOM     12  C   UNL     1       3.062   8.126  18.075  0.00  0.00    +0.000 C 
ATOM     13  C   UNL     1       3.564   6.727  17.651  0.00  0.00    +0.000 C 
ENDBRANCH   1   2
BRANCH   1  21
ATOM     14  C   UNL     1       6.624   3.825  12.269  0.00  0.00    +0.000 C 
ATOM     15  C   UNL     1       6.362   4.164  13.712  0.00  0.00    +0.000 A 
ATOM     16  C   UNL     1       7.363   4.528  14.538  0.00  0.00    +0.000 A 
ATOM     17  C   UNL     1       7.060   4.796  15.890  0.00  0.00    +0.000 A 
ATOM     18  N   UNL     1       7.801   5.214  16.897  0.00  0.00    +0.000 NA
ATOM     19  C   UNL     1       6.954   5.263  17.977  0.00  0.00    +0.000 A 
ATOM     20  C   UNL     1       7.431   5.754  19.293  0.00  0.00    +0.000 C 
ATOM     21  C   UNL     1       5.689   4.822  17.636  0.00  0.00    +0.000 A 
ATOM     22  N   UNL     1       5.754   4.604  16.273  0.00  0.00    +0.000 N 
ATOM     23  C   UNL     1       4.760   4.270  15.353  0.00  0.00    +0.000 A 
ATOM     24  N   UNL     1       5.037   4.056  14.099  0.00  0.00    +0.000 NA
ENDBRANCH   1  21
TORSDOF 2
ENDMDL
MODEL 3
REMARK VINA RESULT:      -7.5      1.742      3.281
REMARK  Name = 
REMARK  4 active torsions:
REMARK  status: ('A' for Active; 'I' for Inactive)
REMARK    1  A    between atoms: C_1  and  C_2
REMARK    2  A    between atoms: C_6  and  C_7
REMARK    3  A    between atoms: C_8  and  C_9
REMARK    4  A    between atoms: C_9  and  N_10
REMARK                            x       y       z     vdW  Elec       q    Type
REMARK                         _______ _______ _______ _____ _____    ______ ____
ROOT
ATOM      1  C   UNL     1       3.239   6.037  19.771  0.00  0.00    +0.000 C 
ENDROOT
BRANCH   1   2
ATOM      2  N   UNL     1       2.210   7.037  19.540  0.00  0.00    +0.000 NA
ATOM      3  C   UNL     1       2.582   8.031  18.502  0.00  0.00    +0.000 C 
ATOM      4  C   UNL     1       1.380   8.964  18.205  0.00  0.00    +0.000 C 
ATOM      5  N   UNL     1       1.055   9.655  19.458  0.00  0.00    +0.000 N 
ATOM      6  C   UNL     1       0.278  10.801  19.366  0.00  0.00    +0.000 A 
ATOM      7  C   UNL     1       0.387  11.739  20.394  0.00  0.00    +0.000 A 
ATOM      8  C   UNL     1      -0.311  12.934  20.334  0.00  0.00    +0.000 A 
ATOM      9  C   UNL     1      -1.129  13.173  19.240  0.00  0.00    +0.000 A 
ATOM     10  C   UNL     1      -1.190  12.201  18.255  0.00  0.00    +0.000 A 
ATOM     11  N   UNL     1      -0.499  11.039  18.287  0.00  0.00    +0.000 NA
ATOM     12  C   UNL     1       0.669   8.724  20.534  0.00  0.00    +0.000 C 
ATOM     13  C   UNL     1       1.843   7.751  20.785  0.00  0.00    +0.000 C 
ENDBRANCH   1   2
BRANCH   1  21
ATOM     14  C   UNL     1       7.182   4.864  14.597  0.00  0.00    +0.000 C 
ATOM     15  C   UNL     1       6.174   4.883  15.715  0.00  0.00    +0.000 A 
ATOM     16  C   UNL     1       5.049   4.143  15.655  0.00  0.00    +0.000 A 
ATOM     17  C   UNL     1       4.125   4.232  16.716  0.00  0.00    +0.000 A 
ATOM     18  N   UNL     1       2.991   3.604  16.957  0.00  0.00    +0.000 NA
ATOM     19  C   UNL     1       2.524   4.133  18.135  0.00  0.00    +0.000 A 
ATOM     20  C   UNL     1       1.280   3.618  18.757  0.00  0.00    +0.000 C 
ATOM     21  C   UNL     1       3.360   5.133  18.596  0.00  0.00    +0.000 A 
ATOM     22  N   UNL     1       4.425   5.125  17.716  0.00  0.00    +0.000 N 
ATOM     23  C   UNL     1       5.631   5.826  17.735  0.00  0.00    +0.000 A 
ATOM     24  N   UNL     1       6.499   5.717  16.771  0.00  0.00    +0.000 NA
ENDBRANCH   1  21
TORSDOF 2
ENDMDL
MODEL 4
REMARK VINA RESULT:      -7.3      3.497      9.143
REMARK  Name = 
REMARK  4 active torsions:
REMARK  status: ('A' for Active; 'I' for Inactive)
REMARK    1  A    between atoms: C_1  and  C_2
REMARK    2  A    between atoms: C_6  and  C_7
REMARK    3  A    between atoms: C_8  and  C_9
REMARK    4  A    between atoms: C_9  and  N_10
REMARK                            x       y       z     vdW  Elec       q    Type
REMARK                         _______ _______ _______ _____ _____    ______ ____
ROOT
ATOM      1  C   UNL     1       1.375  10.386  18.565  0.00  0.00    +0.000 C 
ENDROOT
BRANCH   1   2
ATOM      2  N   UNL     1       1.441   8.950  18.781  0.00  0.00    +0.000 NA
ATOM      3  C   UNL     1       1.764   8.583  20.182  0.00  0.00    +0.000 C 
ATOM      4  C   UNL     1       1.664   7.047  20.366  0.00  0.00    +0.000 C 
ATOM      5  N   UNL     1       2.646   6.443  19.458  0.00  0.00    +0.000 N 
ATOM      6  C   UNL     1       3.010   5.127  19.703  0.00  0.00    +0.000 A 
ATOM      7  C   UNL     1       4.256   4.705  19.238  0.00  0.00    +0.000 A 
ATOM      8  C   UNL     1       4.710   3.424  19.505  0.00  0.00    +0.000 A 
ATOM      9  C   UNL     1       3.897   2.567  20.230  0.00  0.00    +0.000 A 
ATOM     10  C   UNL     1       2.673   3.051  20.663  0.00  0.00    +0.000 A 
ATOM     11  N   UNL     1       2.224   4.304  20.430  0.00  0.00    +0.000 NA
ATOM     12  C   UNL     1       2.380   6.763  18.043  0.00  0.00    +0.000 C 
ATOM     13  C   UNL     1       2.414   8.299  17.873  0.00  0.00    +0.000 C 
ENDBRANCH   1   2
BRANCH   1  21
ATOM     14  C   UNL     1      -1.246  14.044  23.407  0.00  0.00    +0.000 C 
ATOM     15  C   UNL     1      -0.892  13.253  22.176  0.00  0.00    +0.000 A 
ATOM     16  C   UNL     1      -1.848  12.720  21.389  0.00  0.00    +0.000 A 
ATOM     17  C   UNL     1      -1.454  11.956  20.271  0.00  0.00    +0.000 A 
ATOM     18  N   UNL     1      -2.143  11.370  19.312  0.00  0.00    +0.000 NA
ATOM     19  C   UNL     1      -1.209  10.751  18.517  0.00  0.00    +0.000 A 
ATOM     20  C   UNL     1      -1.618  10.031  17.287  0.00  0.00    +0.000 C 
ATOM     21  C   UNL     1       0.065  10.923  19.024  0.00  0.00    +0.000 A 
ATOM     22  N   UNL     1      -0.103  11.768  20.104  0.00  0.00    +0.000 N 
ATOM     23  C   UNL     1       0.832  12.388  20.933  0.00  0.00    +0.000 A 
ATOM     24  N   UNL     1       0.467  13.120  21.945  0.00  0.00    +0.000 NA
ENDBRANCH   1  21
TORSDOF 2
ENDMDL
MODEL 5
REMARK VINA RESULT:      -7.2      3.742      8.890
REMARK  Name = 
REMARK  4 active torsions:
REMARK  status: ('A' for Active; 'I' for Inactive)
REMARK    1  A    between atoms: C_1  and  C_2
REMARK    2  A    between atoms: C_6  and  C_7
REMARK    3  A    between atoms: C_8  and  C_9
REMARK    4  A    between atoms: C_9  and  N_10
REMARK                            x       y       z     vdW  Elec       q    Type
REMARK                         _______ _______ _______ _____ _____    ______ ____
ROOT
ATOM      1  C   UNL     1       1.584  10.638  18.248  0.00  0.00    +0.000 C 
ENDROOT
BRANCH   1   2
ATOM      2  N   UNL     1       2.085   9.380  18.776  0.00  0.00    +0.000 NA
ATOM      3  C   UNL     1       2.221   8.323  17.742  0.00  0.00    +0.000 C 
ATOM      4  C   UNL     1       2.902   7.070  18.349  0.00  0.00    +0.000 C 
ATOM      5  N   UNL     1       2.033   6.594  19.431  0.00  0.00    +0.000 N 
ATOM      6  C   UNL     1       2.226   5.293  19.873  0.00  0.00    +0.000 A 
ATOM      7  C   UNL     1       1.146   4.650  20.479  0.00  0.00    +0.000 A 
ATOM      8  C   UNL     1       1.250   3.329  20.883  0.00  0.00    +0.000 A 
ATOM      9  C   UNL     1       2.450   2.664  20.687  0.00  0.00    +0.000 A 
ATOM     10  C   UNL     1       3.482   3.362  20.078  0.00  0.00    +0.000 A 
ATOM     11  N   UNL     1       3.391   4.643  19.658  0.00  0.00    +0.000 NA
ATOM     12  C   UNL     1       1.859   7.595  20.500  0.00  0.00    +0.000 C 
ATOM     13  C   UNL     1       1.241   8.870  19.882  0.00  0.00    +0.000 C 
ENDBRANCH   1   2
BRANCH   1  21
ATOM     14  C   UNL     1      -1.084  13.816  23.394  0.00  0.00    +0.000 C 
ATOM     15  C   UNL     1      -0.735  13.097  22.118  0.00  0.00    +0.000 A 
ATOM     16  C   UNL     1      -1.669  12.425  21.416  0.00  0.00    +0.000 A 
ATOM     17  C   UNL     1      -1.273  11.738  20.249  0.00  0.00    +0.000 A 
ATOM     18  N   UNL     1      -1.954  11.057  19.349  0.00  0.00    +0.000 NA
ATOM     19  C   UNL     1      -1.018  10.596  18.456  0.00  0.00    +0.000 A 
ATOM     20  C   UNL     1      -1.429   9.827  17.256  0.00  0.00    +0.000 C 
ATOM     21  C   UNL     1       0.258  10.961  18.842  0.00  0.00    +0.000 A 
ATOM     22  N   UNL     1       0.068  11.764  19.950  0.00  0.00    +0.000 N 
ATOM     23  C   UNL     1       0.973  12.518  20.698  0.00  0.00    +0.000 A 
ATOM     24  N   UNL     1       0.599  13.178  21.756  0.00  0.00    +0.000 NA
ENDBRANCH   1  21
TORSDOF 2
ENDMDL
MODEL 6
REMARK VINA RESULT:      -7.2      1.659      3.510
REMARK  Name = 
REMARK  4 active torsions:
REMARK  status: ('A' for Active; 'I' for Inactive)
REMARK    1  A    between atoms: C_1  and  C_2
REMARK    2  A    between atoms: C_6  and  C_7
REMARK    3  A    between atoms: C_8  and  C_9
REMARK    4  A    between atoms: C_9  and  N_10
REMARK                            x       y       z     vdW  Elec       q    Type
REMARK                         _______ _______ _______ _____ _____    ______ ____
ROOT
ATOM      1  C   UNL     1       2.839   5.086  20.263  0.00  0.00    +0.000 C 
ENDROOT
BRANCH   1   2
ATOM      2  N   UNL     1       2.565   6.505  20.110  0.00  0.00    +0.000 NA
ATOM      3  C   UNL     1       1.566   7.016  21.083  0.00  0.00    +0.000 C 
ATOM      4  C   UNL     1       1.444   8.556  20.959  0.00  0.00    +0.000 C 
ATOM      5  N   UNL     1       0.993   8.840  19.592  0.00  0.00    +0.000 N 
ATOM      6  C   UNL     1       0.455  10.096  19.351  0.00  0.00    +0.000 A 
ATOM      7  C   UNL     1      -0.430  10.224  18.279  0.00  0.00    +0.000 A 
ATOM      8  C   UNL     1      -1.054  11.433  18.021  0.00  0.00    +0.000 A 
ATOM      9  C   UNL     1      -0.773  12.516  18.841  0.00  0.00    +0.000 A 
ATOM     10  C   UNL     1       0.114  12.319  19.888  0.00  0.00    +0.000 A 
ATOM     11  N   UNL     1       0.715  11.141  20.166  0.00  0.00    +0.000 NA
ATOM     12  C   UNL     1       1.945   8.364  18.571  0.00  0.00    +0.000 C 
ATOM     13  C   UNL     1       2.117   6.837  18.737  0.00  0.00    +0.000 C 
ENDBRANCH   1   2
BRANCH   1  21
ATOM     14  C   UNL     1       7.116   4.793  15.232  0.00  0.00    +0.000 C 
ATOM     15  C   UNL     1       6.027   4.636  16.258  0.00  0.00    +0.000 A 
ATOM     16  C   UNL     1       4.879   3.993  15.966  0.00  0.00    +0.000 A 
ATOM     17  C   UNL     1       3.879   3.912  16.958  0.00  0.00    +0.000 A 
ATOM     18  N   UNL     1       2.703   3.316  16.983  0.00  0.00    +0.000 NA
ATOM     19  C   UNL     1       2.170   3.613  18.214  0.00  0.00    +0.000 A 
ATOM     20  C   UNL     1       0.860   3.054  18.627  0.00  0.00    +0.000 C 
ATOM     21  C   UNL     1       3.011   4.442  18.932  0.00  0.00    +0.000 A 
ATOM     22  N   UNL     1       4.140   4.557  18.143  0.00  0.00    +0.000 N 
ATOM     23  C   UNL     1       5.370   5.165  18.393  0.00  0.00    +0.000 A 
ATOM     24  N   UNL     1       6.305   5.209  17.487  0.00  0.00    +0.000 NA
ENDBRANCH   1  21
TORSDOF 2
ENDMDL
MODEL 7
REMARK VINA RESULT:      -7.1      2.888      8.905
REMARK  Name = 
REMARK  4 active torsions:
REMARK  status: ('A' for Active; 'I' for Inactive)
REMARK    1  A    between atoms: C_1  and  C_2
REMARK    2  A    between atoms: C_6  and  C_7
REMARK    3  A    between atoms: C_8  and  C_9
REMARK    4  A    between atoms: C_9  and  N_10
REMARK                            x       y       z     vdW  Elec       q    Type
REMARK                         _______ _______ _______ _____ _____    ______ ____
ROOT
ATOM      1  C   UNL     1       0.587  10.049  20.493  0.00  0.00    +0.000 C 
ENDROOT
BRANCH   1   2
ATOM      2  N   UNL     1       1.058   8.951  19.665  0.00  0.00    +0.000 NA
ATOM      3  C   UNL     1       1.831   7.935  20.424  0.00  0.00    +0.000 C 
ATOM      4  C   UNL     1       2.163   6.728  19.509  0.00  0.00    +0.000 C 
ATOM      5  N   UNL     1       2.976   7.243  18.401  0.00  0.00    +0.000 N 
ATOM      6  C   UNL     1       3.703   6.317  17.666  0.00  0.00    +0.000 A 
ATOM      7  C   UNL     1       4.839   6.774  16.996  0.00  0.00    +0.000 A 
ATOM      8  C   UNL     1       5.647   5.892  16.298  0.00  0.00    +0.000 A 
ATOM      9  C   UNL     1       5.298   4.551  16.267  0.00  0.00    +0.000 A 
ATOM     10  C   UNL     1       4.158   4.164  16.955  0.00  0.00    +0.000 A 
ATOM     11  N   UNL     1       3.371   5.008  17.659  0.00  0.00    +0.000 NA
ATOM     12  C   UNL     1       2.264   8.255  17.599  0.00  0.00    +0.000 C 
ATOM     13  C   UNL     1       1.875   9.429  18.525  0.00  0.00    +0.000 C 
ENDBRANCH   1   2
BRANCH   1  21
ATOM     14  C   UNL     1       1.599  16.466  19.271  0.00  0.00    +0.000 C 
ATOM     15  C   UNL     1       1.219  15.010  19.314  0.00  0.00    +0.000 A 
ATOM     16  C   UNL     1       0.124  14.553  18.675  0.00  0.00    +0.000 A 
ATOM     17  C   UNL     1      -0.201  13.185  18.784  0.00  0.00    +0.000 A 
ATOM     18  N   UNL     1      -1.155  12.456  18.241  0.00  0.00    +0.000 NA
ATOM     19  C   UNL     1      -0.979  11.190  18.745  0.00  0.00    +0.000 A 
ATOM     20  C   UNL     1      -1.846  10.071  18.303  0.00  0.00    +0.000 C 
ATOM     21  C   UNL     1       0.069  11.156  19.645  0.00  0.00    +0.000 A 
ATOM     22  N   UNL     1       0.609  12.427  19.596  0.00  0.00    +0.000 N 
ATOM     23  C   UNL     1       1.754  12.957  20.192  0.00  0.00    +0.000 A 
ATOM     24  N   UNL     1       2.070  14.213  20.062  0.00  0.00    +0.000 NA
ENDBRANCH   1  21
TORSDOF 2
ENDMDL
MODEL 8
REMARK VINA RESULT:      -7.1      3.358      8.427
REMARK  Name = 
REMARK  4 active torsions:
REMARK  status: ('A' for Active; 'I' for Inactive)
REMARK    1  A    between atoms: C_1  and  C_2
REMARK    2  A    between atoms: C_6  and  C_7
REMARK    3  A    between atoms: C_8  and  C_9
REMARK    4  A    between atoms: C_9  and  N_10
REMARK                            x       y       z     vdW  Elec       q    Type
REMARK                         _______ _______ _______ _____ _____    ______ ____
ROOT
ATOM      1  C   UNL     1       0.526  10.991  19.035  0.00  0.00    +0.000 C 
ENDROOT
BRANCH   1   2
ATOM      2  N   UNL     1       1.367   9.830  19.269  0.00  0.00    +0.000 NA
ATOM      3  C   UNL     1       1.581   9.007  18.052  0.00  0.00    +0.000 C 
ATOM      4  C   UNL     1       2.607   7.882  18.344  0.00  0.00    +0.000 C 
ATOM      5  N   UNL     1       2.036   7.050  19.409  0.00  0.00    +0.000 N 
ATOM      6  C   UNL     1       2.578   5.784  19.584  0.00  0.00    +0.000 A 
ATOM      7  C   UNL     1       1.770   4.812  20.176  0.00  0.00    +0.000 A 
ATOM      8  C   UNL     1       2.224   3.512  20.320  0.00  0.00    +0.000 A 
ATOM      9  C   UNL     1       3.500   3.199  19.878  0.00  0.00    +0.000 A 
ATOM     10  C   UNL     1       4.249   4.211  19.298  0.00  0.00    +0.000 A 
ATOM     11  N   UNL     1       3.813   5.480  19.130  0.00  0.00    +0.000 NA
ATOM     12  C   UNL     1       1.803   7.805  20.655  0.00  0.00    +0.000 C 
ATOM     13  C   UNL     1       0.831   8.967  20.348  0.00  0.00    +0.000 C 
ENDBRANCH   1   2
BRANCH   1  21
ATOM     14  C   UNL     1       5.064  15.796  19.133  0.00  0.00    +0.000 C 
ATOM     15  C   UNL     1       3.907  14.850  19.312  0.00  0.00    +0.000 A 
ATOM     16  C   UNL     1       3.211  14.806  20.465  0.00  0.00    +0.000 A 
ATOM     17  C   UNL     1       2.162  13.871  20.586  0.00  0.00    +0.000 A 
ATOM     18  N   UNL     1       1.291  13.637  21.548  0.00  0.00    +0.000 NA
ATOM     19  C   UNL     1       0.530  12.584  21.103  0.00  0.00    +0.000 A 
ATOM     20  C   UNL     1      -0.606  12.076  21.909  0.00  0.00    +0.000 C 
ATOM     21  C   UNL     1       0.973  12.137  19.873  0.00  0.00    +0.000 A 
ATOM     22  N   UNL     1       1.969  13.028  19.519  0.00  0.00    +0.000 N 
ATOM     23  C   UNL     1       2.698  13.160  18.337  0.00  0.00    +0.000 A 
ATOM     24  N   UNL     1       3.644  14.046  18.216  0.00  0.00    +0.000 NA
ENDBRANCH   1  21
TORSDOF 2
ENDMDL
MODEL 9
REMARK VINA RESULT:      -7.1      2.870      8.793
REMARK  Name = 
REMARK  4 active torsions:
REMARK  status: ('A' for Active; 'I' for Inactive)
REMARK    1  A    between atoms: C_1  and  C_2
REMARK    2  A    between atoms: C_6  and  C_7
REMARK    3  A    between atoms: C_8  and  C_9
REMARK    4  A    between atoms: C_9  and  N_10
REMARK                            x       y       z     vdW  Elec       q    Type
REMARK                         _______ _______ _______ _____ _____    ______ ____
ROOT
ATOM      1  C   UNL     1       0.122   9.847  20.385  0.00  0.00    +0.000 C 
ENDROOT
BRANCH   1   2
ATOM      2  N   UNL     1       1.254   9.136  19.816  0.00  0.00    +0.000 NA
ATOM      3  C   UNL     1       1.256   9.131  18.331  0.00  0.00    +0.000 C 
ATOM      4  C   UNL     1       2.567   8.493  17.803  0.00  0.00    +0.000 C 
ATOM      5  N   UNL     1       2.600   7.113  18.302  0.00  0.00    +0.000 N 
ATOM      6  C   UNL     1       3.465   6.232  17.670  0.00  0.00    +0.000 A 
ATOM      7  C   UNL     1       3.163   4.871  17.737  0.00  0.00    +0.000 A 
ATOM      8  C   UNL     1       3.948   3.942  17.073  0.00  0.00    +0.000 A 
ATOM      9  C   UNL     1       5.045   4.390  16.353  0.00  0.00    +0.000 A 
ATOM     10  C   UNL     1       5.287   5.754  16.327  0.00  0.00    +0.000 A 
ATOM     11  N   UNL     1       4.520   6.675  16.951  0.00  0.00    +0.000 NA
ATOM     12  C   UNL     1       2.607   7.043  19.775  0.00  0.00    +0.000 C 
ATOM     13  C   UNL     1       1.332   7.739  20.304  0.00  0.00    +0.000 C 
ENDBRANCH   1   2
BRANCH   1  21
ATOM     14  C   UNL     1       1.821  16.159  19.403  0.00  0.00    +0.000 C 
ATOM     15  C   UNL     1       1.300  14.747  19.384  0.00  0.00    +0.000 A 
ATOM     16  C   UNL     1       0.206  14.415  18.671  0.00  0.00    +0.000 A 
ATOM     17  C   UNL     1      -0.256  13.084  18.723  0.00  0.00    +0.000 A 
ATOM     18  N   UNL     1      -1.243  12.464  18.106  0.00  0.00    +0.000 NA
ATOM     19  C   UNL     1      -1.220  11.176  18.583  0.00  0.00    +0.000 A 
ATOM     20  C   UNL     1      -2.164  10.158  18.062  0.00  0.00    +0.000 C 
ATOM     21  C   UNL     1      -0.236  11.019  19.540  0.00  0.00    +0.000 A 
ATOM     22  N   UNL     1       0.427  12.232  19.557  0.00  0.00    +0.000 N 
ATOM     23  C   UNL     1       1.580  12.633  20.232  0.00  0.00    +0.000 A 
ATOM     24  N   UNL     1       2.024  13.854  20.156  0.00  0.00    +0.000 NA
ENDBRANCH   1  21
TORSDOF 2
ENDMDL
