MODEL 1
REMARK VINA RESULT:      -8.3      0.000      0.000
REMARK  Name = 
REMARK  3 active torsions:
REMARK  status: ('A' for Active; 'I' for Inactive)
REMARK    1  A    between atoms: C_6  and  C_7
REMARK    2  A    between atoms: C_10  and  N_11
REMARK    3  A    between atoms: C_12  and  C_14
REMARK                            x       y       z     vdW  Elec       q    Type
REMARK                         _______ _______ _______ _____ _____    ______ ____
ROOT
ATOM      1  C   UNL     1      -0.828  10.913  22.418  0.00  0.00    +0.000 A 
ATOM      2  C   UNL     1      -0.519  10.918  21.052  0.00  0.00    +0.000 A 
ATOM      3  C   UNL     1       0.275   9.924  20.494  0.00  0.00    +0.000 A 
ATOM      4  C   UNL     1       0.785   8.866  21.282  0.00  0.00    +0.000 A 
ATOM      5  C   UNL     1       0.443   8.845  22.649  0.00  0.00    +0.000 A 
ATOM      6  C   UNL     1      -0.336   9.863  23.215  0.00  0.00    +0.000 A 
ENDROOT
BRANCH   1  12
ATOM      7  N   UNL     1      -4.869  12.344  24.709  0.00  0.00    +0.000 N 
ATOM      8  C   UNL     1      -3.633  12.680  24.120  0.00  0.00    +0.000 A 
ATOM      9  N   UNL     1      -3.196  13.969  24.154  0.00  0.00    +0.000 NA
ATOM     10  C   UNL     1      -1.994  14.308  23.625  0.00  0.00    +0.000 A 
ATOM     11  C   UNL     1      -1.183  13.330  23.057  0.00  0.00    +0.000 A 
ATOM     12  C   UNL     1      -1.644  12.004  23.014  0.00  0.00    +0.000 A 
ATOM     13  N   UNL     1      -2.866  11.720  23.542  0.00  0.00    +0.000 NA
ATOM     14  H   UNL     1      -5.447  13.068  25.160  0.00  0.00    +0.000 HD
ATOM     15  H   UNL     1      -5.190  11.364  24.723  0.00  0.00    +0.000 HD
ENDBRANCH   1  12
BRANCH   4  16
ATOM     16  N   UNL     1       1.616   7.813  20.762  0.00  0.00    +0.000 N 
ATOM     17  C   UNL     1       2.079   7.709  19.475  0.00  0.00    +0.000 C 
ATOM     18  O   UNL     1       1.823   8.573  18.653  0.00  0.00    +0.000 OA
ATOM     19  H   UNL     1       1.873   7.078  21.436  0.00  0.00    +0.000 HD
BRANCH  17  20
ATOM     20  C   UNL     1       2.909   6.557  19.008  0.00  0.00    +0.000 A 
ATOM     21  C   UNL     1       3.651   6.706  17.819  0.00  0.00    +0.000 A 
ATOM     22  C   UNL     1       4.425   5.660  17.319  0.00  0.00    +0.000 A 
ATOM     23 BR   UNL     1       5.387   5.890  15.685  0.00  0.00    +0.000 Br
ATOM     24  C   UNL     1       4.488   4.450  18.010  0.00  0.00    +0.000 A 
ATOM     25  C   UNL     1       3.774   4.285  19.199  0.00  0.00    +0.000 A 
ATOM     26 BR   UNL     1       3.884   2.632  20.149  0.00  0.00    +0.000 Br
ATOM     27  C   UNL     1       2.982   5.327  19.696  0.00  0.00    +0.000 A 
ENDBRANCH  17  20
ENDBRANCH   4  16
TORSDOF 3
ENDMDL
MODEL 2
REMARK VINA RESULT:      -8.2      0.992      1.950
REMARK  Name = 
REMARK  3 active torsions:
REMARK  status: ('A' for Active; 'I' for Inactive)
REMARK    1  A    between atoms: C_6  and  C_7
REMARK    2  A    between atoms: C_10  and  N_11
REMARK    3  A    between atoms: C_12  and  C_14
REMARK                            x       y       z     vdW  Elec       q    Type
REMARK                         _______ _______ _______ _____ _____    ______ ____
ROOT
ATOM      1  C   UNL     1      -0.489  10.825  21.955  0.00  0.00    +0.000 A 
ATOM      2  C   UNL     1       0.191  11.105  20.763  0.00  0.00    +0.000 A 
ATOM      3  C   UNL     1       0.953  10.132  20.128  0.00  0.00    +0.000 A 
ATOM      4  C   UNL     1       1.054   8.823  20.653  0.00  0.00    +0.000 A 
ATOM      5  C   UNL     1       0.340   8.535  21.833  0.00  0.00    +0.000 A 
ATOM      6  C   UNL     1      -0.405   9.525  22.487  0.00  0.00    +0.000 A 
ENDROOT
BRANCH   1  12
ATOM      7  N   UNL     1      -4.417  12.150  24.491  0.00  0.00    +0.000 N 
ATOM      8  C   UNL     1      -3.202  12.510  23.874  0.00  0.00    +0.000 A 
ATOM      9  N   UNL     1      -2.748  13.790  23.970  0.00  0.00    +0.000 NA
ATOM     10  C   UNL     1      -1.564  14.149  23.416  0.00  0.00    +0.000 A 
ATOM     11  C   UNL     1      -0.788  13.201  22.755  0.00  0.00    +0.000 A 
ATOM     12  C   UNL     1      -1.267  11.884  22.650  0.00  0.00    +0.000 A 
ATOM     13  N   UNL     1      -2.471  11.580  23.207  0.00  0.00    +0.000 NA
ATOM     14  H   UNL     1      -4.969  12.850  25.009  0.00  0.00    +0.000 HD
ATOM     15  H   UNL     1      -4.750  11.175  24.457  0.00  0.00    +0.000 HD
ENDBRANCH   1  12
BRANCH   4  16
ATOM     16  N   UNL     1       1.830   7.776  20.044  0.00  0.00    +0.000 N 
ATOM     17  C   UNL     1       2.197   7.705  18.724  0.00  0.00    +0.000 C 
ATOM     18  O   UNL     1       1.894   8.596  17.948  0.00  0.00    +0.000 OA
ATOM     19  H   UNL     1       2.126   7.018  20.676  0.00  0.00    +0.000 HD
BRANCH  17  20
ATOM     20  C   UNL     1       2.975   6.557  18.164  0.00  0.00    +0.000 A 
ATOM     21  C   UNL     1       2.412   5.267  18.241  0.00  0.00    +0.000 A 
ATOM     22  C   UNL     1       3.098   4.154  17.760  0.00  0.00    +0.000 A 
ATOM     23 BR   UNL     1       2.316   2.418  17.917  0.00  0.00    +0.000 Br
ATOM     24  C   UNL     1       4.354   4.311  17.173  0.00  0.00    +0.000 A 
ATOM     25  C   UNL     1       4.923   5.583  17.071  0.00  0.00    +0.000 A 
ATOM     26 BR   UNL     1       6.633   5.791  16.247  0.00  0.00    +0.000 Br
ATOM     27  C   UNL     1       4.245   6.701  17.569  0.00  0.00    +0.000 A 
ENDBRANCH  17  20
ENDBRANCH   4  16
TORSDOF 3
ENDMDL
MODEL 3
REMARK VINA RESULT:      -8.2      0.360      2.186
REMARK  Name = 
REMARK  3 active torsions:
REMARK  status: ('A' for Active; 'I' for Inactive)
REMARK    1  A    between atoms: C_6  and  C_7
REMARK    2  A    between atoms: C_10  and  N_11
REMARK    3  A    between atoms: C_12  and  C_14
REMARK                            x       y       z     vdW  Elec       q    Type
REMARK                         _______ _______ _______ _____ _____    ______ ____
ROOT
ATOM      1  C   UNL     1      -1.017  11.050  22.569  0.00  0.00    +0.000 A 
ATOM      2  C   UNL     1      -0.443  10.073  23.393  0.00  0.00    +0.000 A 
ATOM      3  C   UNL     1       0.339   9.056  22.859  0.00  0.00    +0.000 A 
ATOM      4  C   UNL     1       0.596   8.982  21.471  0.00  0.00    +0.000 A 
ATOM      5  C   UNL     1       0.046   9.987  20.650  0.00  0.00    +0.000 A 
ATOM      6  C   UNL     1      -0.764  10.995  21.186  0.00  0.00    +0.000 A 
ENDROOT
BRANCH   1  12
ATOM      7  N   UNL     1      -5.167  12.332  24.749  0.00  0.00    +0.000 N 
ATOM      8  C   UNL     1      -3.928  12.713  24.195  0.00  0.00    +0.000 A 
ATOM      9  N   UNL     1      -3.537  14.016  24.243  0.00  0.00    +0.000 NA
ATOM     10  C   UNL     1      -2.334  14.398  23.749  0.00  0.00    +0.000 A 
ATOM     11  C   UNL     1      -1.473  13.451  23.201  0.00  0.00    +0.000 A 
ATOM     12  C   UNL     1      -1.887  12.110  23.144  0.00  0.00    +0.000 A 
ATOM     13  N   UNL     1      -3.112  11.781  23.636  0.00  0.00    +0.000 NA
ATOM     14  H   UNL     1      -5.783  13.034  25.185  0.00  0.00    +0.000 HD
ATOM     15  H   UNL     1      -5.454  11.341  24.752  0.00  0.00    +0.000 HD
ENDBRANCH   1  12
BRANCH   4  16
ATOM     16  N   UNL     1       1.393   7.951  20.861  0.00  0.00    +0.000 N 
ATOM     17  C   UNL     1       1.878   7.957  19.577  0.00  0.00    +0.000 C 
ATOM     18  O   UNL     1       1.676   8.910  18.843  0.00  0.00    +0.000 OA
ATOM     19  H   UNL     1       1.605   7.141  21.460  0.00  0.00    +0.000 HD
BRANCH  17  20
ATOM     20  C   UNL     1       2.668   6.822  19.009  0.00  0.00    +0.000 A 
ATOM     21  C   UNL     1       2.576   5.563  19.637  0.00  0.00    +0.000 A 
ATOM     22  C   UNL     1       3.306   4.472  19.169  0.00  0.00    +0.000 A 
ATOM     23 BR   UNL     1       3.182   2.793  20.071  0.00  0.00    +0.000 Br
ATOM     24  C   UNL     1       4.129   4.614  18.052  0.00  0.00    +0.000 A 
ATOM     25  C   UNL     1       4.223   5.848  17.404  0.00  0.00    +0.000 A 
ATOM     26 BR   UNL     1       5.335   6.026  15.862  0.00  0.00    +0.000 Br
ATOM     27  C   UNL     1       3.504   6.951  17.881  0.00  0.00    +0.000 A 
ENDBRANCH  17  20
ENDBRANCH   4  16
TORSDOF 3
ENDMDL
MODEL 4
REMARK VINA RESULT:      -8.1      0.419      1.013
REMARK  Name = 
REMARK  3 active torsions:
REMARK  status: ('A' for Active; 'I' for Inactive)
REMARK    1  A    between atoms: C_6  and  C_7
REMARK    2  A    between atoms: C_10  and  N_11
REMARK    3  A    between atoms: C_12  and  C_14
REMARK                            x       y       z     vdW  Elec       q    Type
REMARK                         _______ _______ _______ _____ _____    ______ ____
ROOT
ATOM      1  C   UNL     1      -0.763  11.222  22.590  0.00  0.00    +0.000 A 
ATOM      2  C   UNL     1      -0.790   9.958  23.191  0.00  0.00    +0.000 A 
ATOM      3  C   UNL     1      -0.028   8.910  22.688  0.00  0.00    +0.000 A 
ATOM      4  C   UNL     1       0.811   9.089  21.564  0.00  0.00    +0.000 A 
ATOM      5  C   UNL     1       0.861  10.372  20.983  0.00  0.00    +0.000 A 
ATOM      6  C   UNL     1       0.071  11.419  21.475  0.00  0.00    +0.000 A 
ENDROOT
BRANCH   1  12
ATOM      7  N   UNL     1      -4.911  12.694  24.651  0.00  0.00    +0.000 N 
ATOM      8  C   UNL     1      -3.655  13.022  24.103  0.00  0.00    +0.000 A 
ATOM      9  N   UNL     1      -3.230  14.315  24.109  0.00  0.00    +0.000 NA
ATOM     10  C   UNL     1      -2.010  14.646  23.620  0.00  0.00    +0.000 A 
ATOM     11  C   UNL     1      -1.166  13.657  23.123  0.00  0.00    +0.000 A 
ATOM     12  C   UNL     1      -1.614  12.326  23.110  0.00  0.00    +0.000 A 
ATOM     13  N   UNL     1      -2.855  12.049  23.594  0.00  0.00    +0.000 NA
ATOM     14  H   UNL     1      -5.515  13.428  25.049  0.00  0.00    +0.000 HD
ATOM     15  H   UNL     1      -5.225  11.713  24.687  0.00  0.00    +0.000 HD
ENDBRANCH   1  12
BRANCH   4  16
ATOM     16  N   UNL     1       1.617   8.042  20.995  0.00  0.00    +0.000 N 
ATOM     17  C   UNL     1       1.905   7.875  19.664  0.00  0.00    +0.000 C 
ATOM     18  O   UNL     1       1.494   8.672  18.837  0.00  0.00    +0.000 OA
ATOM     19  H   UNL     1       2.003   7.364  21.668  0.00  0.00    +0.000 HD
BRANCH  17  20
ATOM     20  C   UNL     1       2.723   6.733  19.153  0.00  0.00    +0.000 A 
ATOM     21  C   UNL     1       3.501   6.934  17.995  0.00  0.00    +0.000 A 
ATOM     22  C   UNL     1       4.266   5.901  17.456  0.00  0.00    +0.000 A 
ATOM     23 BR   UNL     1       5.278   6.203  15.864  0.00  0.00    +0.000 Br
ATOM     24  C   UNL     1       4.284   4.652  18.076  0.00  0.00    +0.000 A 
ATOM     25  C   UNL     1       3.533   4.436  19.235  0.00  0.00    +0.000 A 
ATOM     26 BR   UNL     1       3.581   2.728  20.089  0.00  0.00    +0.000 Br
ATOM     27  C   UNL     1       2.750   5.465  19.770  0.00  0.00    +0.000 A 
ENDBRANCH  17  20
ENDBRANCH   4  16
TORSDOF 3
ENDMDL
MODEL 5
REMARK VINA RESULT:      -8.1      4.856      9.611
REMARK  Name = 
REMARK  3 active torsions:
REMARK  status: ('A' for Active; 'I' for Inactive)
REMARK    1  A    between atoms: C_6  and  C_7
REMARK    2  A    between atoms: C_10  and  N_11
REMARK    3  A    between atoms: C_12  and  C_14
REMARK                            x       y       z     vdW  Elec       q    Type
REMARK                         _______ _______ _______ _____ _____    ______ ____
ROOT
ATOM      1  C   UNL     1       2.450   5.654  19.169  0.00  0.00    +0.000 A 
ATOM      2  C   UNL     1       2.674   6.616  18.177  0.00  0.00    +0.000 A 
ATOM      3  C   UNL     1       2.287   7.938  18.361  0.00  0.00    +0.000 A 
ATOM      4  C   UNL     1       1.670   8.359  19.561  0.00  0.00    +0.000 A 
ATOM      5  C   UNL     1       1.478   7.395  20.571  0.00  0.00    +0.000 A 
ATOM      6  C   UNL     1       1.844   6.058  20.372  0.00  0.00    +0.000 A 
ENDROOT
BRANCH   1  12
ATOM      7  N   UNL     1       5.149   1.801  20.391  0.00  0.00    +0.000 N 
ATOM      8  C   UNL     1       4.170   2.370  19.551  0.00  0.00    +0.000 A 
ATOM      9  N   UNL     1       3.564   1.605  18.602  0.00  0.00    +0.000 NA
ATOM     10  C   UNL     1       2.595   2.123  17.809  0.00  0.00    +0.000 A 
ATOM     11  C   UNL     1       2.193   3.445  17.973  0.00  0.00    +0.000 A 
ATOM     12  C   UNL     1       2.830   4.234  18.946  0.00  0.00    +0.000 A 
ATOM     13  N   UNL     1       3.811   3.671  19.703  0.00  0.00    +0.000 NA
ATOM     14  H   UNL     1       5.416   0.811  20.286  0.00  0.00    +0.000 HD
ATOM     15  H   UNL     1       5.585   2.362  21.137  0.00  0.00    +0.000 HD
ENDBRANCH   1  12
BRANCH   4  16
ATOM     16  N   UNL     1       1.243   9.711  19.807  0.00  0.00    +0.000 N 
ATOM     17  C   UNL     1       0.381  10.442  19.029  0.00  0.00    +0.000 C 
ATOM     18  O   UNL     1      -0.131   9.946  18.039  0.00  0.00    +0.000 OA
ATOM     19  H   UNL     1       1.636  10.154  20.650  0.00  0.00    +0.000 HD
BRANCH  17  20
ATOM     20  C   UNL     1       0.020  11.858  19.339  0.00  0.00    +0.000 A 
ATOM     21  C   UNL     1      -1.183  12.105  20.032  0.00  0.00    +0.000 A 
ATOM     22  C   UNL     1      -1.587  13.406  20.329  0.00  0.00    +0.000 A 
ATOM     23 BR   UNL     1      -3.241  13.699  21.238  0.00  0.00    +0.000 Br
ATOM     24  C   UNL     1      -0.786  14.485  19.956  0.00  0.00    +0.000 A 
ATOM     25  C   UNL     1       0.418  14.263  19.283  0.00  0.00    +0.000 A 
ATOM     26 BR   UNL     1       1.518  15.746  18.795  0.00  0.00    +0.000 Br
ATOM     27  C   UNL     1       0.819  12.959  18.967  0.00  0.00    +0.000 A 
ENDBRANCH  17  20
ENDBRANCH   4  16
TORSDOF 3
ENDMDL
MODEL 6
REMARK VINA RESULT:      -8.1      0.998      1.398
REMARK  Name = 
REMARK  3 active torsions:
REMARK  status: ('A' for Active; 'I' for Inactive)
REMARK    1  A    between atoms: C_6  and  C_7
REMARK    2  A    between atoms: C_10  and  N_11
REMARK    3  A    between atoms: C_12  and  C_14
REMARK                            x       y       z     vdW  Elec       q    Type
REMARK                         _______ _______ _______ _____ _____    ______ ____
ROOT
ATOM      1  C   UNL     1      -0.607  10.947  22.043  0.00  0.00    +0.000 A 
ATOM      2  C   UNL     1       0.091   9.933  22.710  0.00  0.00    +0.000 A 
ATOM      3  C   UNL     1       0.844   9.001  22.006  0.00  0.00    +0.000 A 
ATOM      4  C   UNL     1       0.943   9.054  20.597  0.00  0.00    +0.000 A 
ATOM      5  C   UNL     1       0.267  10.097  19.932  0.00  0.00    +0.000 A 
ATOM      6  C   UNL     1      -0.513  11.019  20.642  0.00  0.00    +0.000 A 
ENDROOT
BRANCH   1  12
ATOM      7  N   UNL     1      -4.636  11.902  24.588  0.00  0.00    +0.000 N 
ATOM      8  C   UNL     1      -3.427  12.360  24.028  0.00  0.00    +0.000 A 
ATOM      9  N   UNL     1      -3.030  13.646  24.234  0.00  0.00    +0.000 NA
ATOM     10  C   UNL     1      -1.854  14.097  23.735  0.00  0.00    +0.000 A 
ATOM     11  C   UNL     1      -1.024  13.238  23.020  0.00  0.00    +0.000 A 
ATOM     12  C   UNL     1      -1.444  11.915  22.801  0.00  0.00    +0.000 A 
ATOM     13  N   UNL     1      -2.643  11.517  23.307  0.00  0.00    +0.000 NA
ATOM     14  H   UNL     1      -5.227  12.535  25.147  0.00  0.00    +0.000 HD
ATOM     15  H   UNL     1      -4.925  10.919  24.470  0.00  0.00    +0.000 HD
ENDBRANCH   1  12
BRANCH   4  16
ATOM     16  N   UNL     1       1.702   8.115  19.814  0.00  0.00    +0.000 N 
ATOM     17  C   UNL     1       1.822   6.770  20.058  0.00  0.00    +0.000 C 
ATOM     18  O   UNL     1       1.231   6.254  20.991  0.00  0.00    +0.000 OA
ATOM     19  H   UNL     1       2.195   8.511  19.001  0.00  0.00    +0.000 HD
BRANCH  17  20
ATOM     20  C   UNL     1       2.665   5.870  19.212  0.00  0.00    +0.000 A 
ATOM     21  C   UNL     1       3.548   6.459  18.284  0.00  0.00    +0.000 A 
ATOM     22  C   UNL     1       4.343   5.674  17.451  0.00  0.00    +0.000 A 
ATOM     23 BR   UNL     1       5.499   6.511  16.181  0.00  0.00    +0.000 Br
ATOM     24  C   UNL     1       4.285   4.283  17.543  0.00  0.00    +0.000 A 
ATOM     25  C   UNL     1       3.429   3.679  18.467  0.00  0.00    +0.000 A 
ATOM     26 BR   UNL     1       3.373   1.774  18.600  0.00  0.00    +0.000 Br
ATOM     27  C   UNL     1       2.617   4.463  19.294  0.00  0.00    +0.000 A 
ENDBRANCH  17  20
ENDBRANCH   4  16
TORSDOF 3
ENDMDL
MODEL 7
REMARK VINA RESULT:      -8.0      4.714      9.684
REMARK  Name = 
REMARK  3 active torsions:
REMARK  status: ('A' for Active; 'I' for Inactive)
REMARK    1  A    between atoms: C_6  and  C_7
REMARK    2  A    between atoms: C_10  and  N_11
REMARK    3  A    between atoms: C_12  and  C_14
REMARK                            x       y       z     vdW  Elec       q    Type
REMARK                         _______ _______ _______ _____ _____    ______ ____
ROOT
ATOM      1  C   UNL     1       2.804   7.379  18.669  0.00  0.00    +0.000 A 
ATOM      2  C   UNL     1       2.425   8.463  17.868  0.00  0.00    +0.000 A 
ATOM      3  C   UNL     1       1.496   9.394  18.317  0.00  0.00    +0.000 A 
ATOM      4  C   UNL     1       0.915   9.287  19.602  0.00  0.00    +0.000 A 
ATOM      5  C   UNL     1       1.326   8.214  20.418  0.00  0.00    +0.000 A 
ATOM      6  C   UNL     1       2.242   7.262  19.953  0.00  0.00    +0.000 A 
ENDROOT
BRANCH   1  12
ATOM      7  N   UNL     1       5.167   3.176  19.287  0.00  0.00    +0.000 N 
ATOM      8  C   UNL     1       4.921   4.316  18.495  0.00  0.00    +0.000 A 
ATOM      9  N   UNL     1       5.522   4.439  17.280  0.00  0.00    +0.000 NA
ATOM     10  C   UNL     1       5.272   5.509  16.487  0.00  0.00    +0.000 A 
ATOM     11  C   UNL     1       4.376   6.490  16.903  0.00  0.00    +0.000 A 
ATOM     12  C   UNL     1       3.768   6.364  18.164  0.00  0.00    +0.000 A 
ATOM     13  N   UNL     1       4.068   5.280  18.929  0.00  0.00    +0.000 NA
ATOM     14  H   UNL     1       5.804   2.437  18.955  0.00  0.00    +0.000 HD
ATOM     15  H   UNL     1       4.686   3.056  20.191  0.00  0.00    +0.000 HD
ENDBRANCH   1  12
BRANCH   4  16
ATOM     16  N   UNL     1      -0.054  10.215  20.119  0.00  0.00    +0.000 N 
ATOM     17  C   UNL     1       0.212  11.313  20.899  0.00  0.00    +0.000 C 
ATOM     18  O   UNL     1       1.361  11.601  21.190  0.00  0.00    +0.000 OA
ATOM     19  H   UNL     1      -1.034  10.017  19.871  0.00  0.00    +0.000 HD
BRANCH  17  20
ATOM     20  C   UNL     1      -0.864  12.206  21.427  0.00  0.00    +0.000 A 
ATOM     21  C   UNL     1      -2.113  12.208  20.772  0.00  0.00    +0.000 A 
ATOM     22  C   UNL     1      -3.148  13.036  21.202  0.00  0.00    +0.000 A 
ATOM     23 BR   UNL     1      -4.812  13.036  20.264  0.00  0.00    +0.000 Br
ATOM     24  C   UNL     1      -2.962  13.865  22.308  0.00  0.00    +0.000 A 
ATOM     25  C   UNL     1      -1.738  13.867  22.982  0.00  0.00    +0.000 A 
ATOM     26 BR   UNL     1      -1.500  14.990  24.509  0.00  0.00    +0.000 Br
ATOM     27  C   UNL     1      -0.690  13.049  22.543  0.00  0.00    +0.000 A 
ENDBRANCH  17  20
ENDBRANCH   4  16
TORSDOF 3
ENDMDL
MODEL 8
REMARK VINA RESULT:      -8.0      4.740      9.722
REMARK  Name = 
REMARK  3 active torsions:
REMARK  status: ('A' for Active; 'I' for Inactive)
REMARK    1  A    between atoms: C_6  and  C_7
REMARK    2  A    between atoms: C_10  and  N_11
REMARK    3  A    between atoms: C_12  and  C_14
REMARK                            x       y       z     vdW  Elec       q    Type
REMARK                         _______ _______ _______ _____ _____    ______ ____
ROOT
ATOM      1  C   UNL     1       2.248   7.705  18.832  0.00  0.00    +0.000 A 
ATOM      2  C   UNL     1       1.783   8.852  18.177  0.00  0.00    +0.000 A 
ATOM      3  C   UNL     1       1.004   9.791  18.843  0.00  0.00    +0.000 A 
ATOM      4  C   UNL     1       0.669   9.628  20.207  0.00  0.00    +0.000 A 
ATOM      5  C   UNL     1       1.168   8.490  20.871  0.00  0.00    +0.000 A 
ATOM      6  C   UNL     1       1.930   7.531  20.191  0.00  0.00    +0.000 A 
ENDROOT
BRANCH   1  12
ATOM      7  N   UNL     1       5.942   6.619  15.866  0.00  0.00    +0.000 N 
ATOM      8  C   UNL     1       4.846   6.182  16.637  0.00  0.00    +0.000 A 
ATOM      9  N   UNL     1       4.576   4.851  16.736  0.00  0.00    +0.000 NA
ATOM     10  C   UNL     1       3.549   4.407  17.501  0.00  0.00    +0.000 A 
ATOM     11  C   UNL     1       2.769   5.313  18.214  0.00  0.00    +0.000 A 
ATOM     12  C   UNL     1       3.045   6.685  18.099  0.00  0.00    +0.000 A 
ATOM     13  N   UNL     1       4.075   7.081  17.303  0.00  0.00    +0.000 NA
ATOM     14  H   UNL     1       6.537   5.939  15.370  0.00  0.00    +0.000 HD
ATOM     15  H   UNL     1       6.178   7.622  15.817  0.00  0.00    +0.000 HD
ENDBRANCH   1  12
BRANCH   4  16
ATOM     16  N   UNL     1      -0.137  10.562  20.947  0.00  0.00    +0.000 N 
ATOM     17  C   UNL     1       0.272  11.779  21.429  0.00  0.00    +0.000 C 
ATOM     18  O   UNL     1       1.404  12.180  21.216  0.00  0.00    +0.000 OA
ATOM     19  H   UNL     1      -1.108  10.267  21.124  0.00  0.00    +0.000 HD
BRANCH  17  20
ATOM     20  C   UNL     1      -0.623  12.673  22.225  0.00  0.00    +0.000 A 
ATOM     21  C   UNL     1      -0.255  14.026  22.376  0.00  0.00    +0.000 A 
ATOM     22  C   UNL     1      -1.035  14.903  23.127  0.00  0.00    +0.000 A 
ATOM     23 BR   UNL     1      -0.481  16.719  23.339  0.00  0.00    +0.000 Br
ATOM     24  C   UNL     1      -2.211  14.451  23.725  0.00  0.00    +0.000 A 
ATOM     25  C   UNL     1      -2.605  13.119  23.573  0.00  0.00    +0.000 A 
ATOM     26 BR   UNL     1      -4.228  12.514  24.377  0.00  0.00    +0.000 Br
ATOM     27  C   UNL     1      -1.815  12.230  22.835  0.00  0.00    +0.000 A 
ENDBRANCH  17  20
ENDBRANCH   4  16
TORSDOF 3
ENDMDL
MODEL 9
REMARK VINA RESULT:      -8.0      1.092      2.258
REMARK  Name = 
REMARK  3 active torsions:
REMARK  status: ('A' for Active; 'I' for Inactive)
REMARK    1  A    between atoms: C_6  and  C_7
REMARK    2  A    between atoms: C_10  and  N_11
REMARK    3  A    between atoms: C_12  and  C_14
REMARK                            x       y       z     vdW  Elec       q    Type
REMARK                         _______ _______ _______ _____ _____    ______ ____
ROOT
ATOM      1  C   UNL     1      -0.240  10.778  21.838  0.00  0.00    +0.000 A 
ATOM      2  C   UNL     1       0.217   9.703  22.610  0.00  0.00    +0.000 A 
ATOM      3  C   UNL     1       0.914   8.650  22.030  0.00  0.00    +0.000 A 
ATOM      4  C   UNL     1       1.199   8.636  20.645  0.00  0.00    +0.000 A 
ATOM      5  C   UNL     1       0.768   9.737  19.877  0.00  0.00    +0.000 A 
ATOM      6  C   UNL     1       0.041  10.784  20.460  0.00  0.00    +0.000 A 
ENDROOT
BRANCH   1  12
ATOM      7  N   UNL     1      -4.131  12.247  24.352  0.00  0.00    +0.000 N 
ATOM      8  C   UNL     1      -2.938  12.574  23.677  0.00  0.00    +0.000 A 
ATOM      9  N   UNL     1      -2.505  13.865  23.654  0.00  0.00    +0.000 NA
ATOM     10  C   UNL     1      -1.342  14.195  23.041  0.00  0.00    +0.000 A 
ATOM     11  C   UNL     1      -0.564  13.208  22.444  0.00  0.00    +0.000 A 
ATOM     12  C   UNL     1      -1.022  11.880  22.461  0.00  0.00    +0.000 A 
ATOM     13  N   UNL     1      -2.206  11.603  23.072  0.00  0.00    +0.000 NA
ATOM     14  H   UNL     1      -4.683  12.980  24.823  0.00  0.00    +0.000 HD
ATOM     15  H   UNL     1      -4.446  11.267  24.408  0.00  0.00    +0.000 HD
ENDBRANCH   1  12
BRANCH   4  16
ATOM     16  N   UNL     1       1.911   7.573  19.987  0.00  0.00    +0.000 N 
ATOM     17  C   UNL     1       2.446   7.618  18.725  0.00  0.00    +0.000 C 
ATOM     18  O   UNL     1       2.374   8.637  18.058  0.00  0.00    +0.000 OA
ATOM     19  H   UNL     1       2.013   6.704  20.531  0.00  0.00    +0.000 HD
BRANCH  17  20
ATOM     20  C   UNL     1       3.139   6.450  18.101  0.00  0.00    +0.000 A 
ATOM     21  C   UNL     1       2.541   5.178  18.216  0.00  0.00    +0.000 A 
ATOM     22  C   UNL     1       3.150   4.046  17.677  0.00  0.00    +0.000 A 
ATOM     23 BR   UNL     1       2.324   2.337  17.887  0.00  0.00    +0.000 Br
ATOM     24  C   UNL     1       4.360   4.166  16.995  0.00  0.00    +0.000 A 
ATOM     25  C   UNL     1       4.963   5.419  16.855  0.00  0.00    +0.000 A 
ATOM     26 BR   UNL     1       6.610   5.576  15.901  0.00  0.00    +0.000 Br
ATOM     27  C   UNL     1       4.363   6.556  17.410  0.00  0.00    +0.000 A 
ENDBRANCH  17  20
ENDBRANCH   4  16
TORSDOF 3
ENDMDL
