MODEL 1
REMARK VINA RESULT:      -7.3      0.000      0.000
REMARK  Name = 
REMARK  10 active torsions:
REMARK  status: ('A' for Active; 'I' for Inactive)
REMARK    1  A    between atoms: C_1  and  O_2
REMARK    2  A    between atoms: O_2  and  C_3
REMARK    3  A    between atoms: C_5  and  O_6
REMARK    4  A    between atoms: C_10  and  C_11
REMARK    5  A    between atoms: C_12  and  C_13
REMARK    6  A    between atoms: C_13  and  C_15
REMARK    7  A    between atoms: C_18  and  O_19
REMARK    8  A    between atoms: O_19  and  C_20
REMARK    9  A    between atoms: C_20  and  C_21
REMARK   10  A    between atoms: C_21  and  O_23
REMARK                            x       y       z     vdW  Elec       q    Type
REMARK                         _______ _______ _______ _____ _____    ______ ____
ROOT
ATOM      1  C   UNL     1       1.649   9.226  18.396  0.00  0.00    +0.000 C 
ATOM      2  O   UNL     1       1.992  10.062  17.568  0.00  0.00    +0.000 OA
ENDROOT
BRANCH   1   3
ATOM      3  C   UNL     1       0.905   9.620  19.629  0.00  0.00    +0.000 A 
ATOM      4  C   UNL     1       0.070  10.744  19.635  0.00  0.00    +0.000 A 
ATOM      5  C   UNL     1      -0.588  11.125  20.806  0.00  0.00    +0.000 A 
ATOM      6  C   UNL     1      -0.451  10.375  21.976  0.00  0.00    +0.000 A 
ATOM      7  C   UNL     1       0.355   9.236  21.969  0.00  0.00    +0.000 A 
ATOM      8  C   UNL     1       1.029   8.856  20.796  0.00  0.00    +0.000 A 
BRANCH   6   9
ATOM      9  O   UNL     1      -1.106  10.889  23.060  0.00  0.00    +0.000 OA
BRANCH   9  10
ATOM     10  C   UNL     1      -1.554  12.243  22.940  0.00  0.00    +0.000 C 
BRANCH  10  11
ATOM     11  C   UNL     1      -3.071  12.261  23.071  0.00  0.00    +0.000 C 
ATOM     12  O   UNL     1      -3.674  11.916  24.077  0.00  0.00    +0.000 OA
BRANCH  11  13
ATOM     13  O   UNL     1      -3.706  12.709  21.960  0.00  0.00    +0.000 OA
ATOM     14  H   UNL     1      -4.089  11.948  21.470  0.00  0.00    +0.000 HD
ENDBRANCH  11  13
ENDBRANCH  10  11
ENDBRANCH   9  10
ENDBRANCH   6   9
ENDBRANCH   1   3
BRANCH   1  16
ATOM     15  C   UNL     1       3.150   7.286  18.036  0.00  0.00    +0.000 C 
ATOM     16  C   UNL     1       1.914   7.769  18.219  0.00  0.00    +0.000 C 
BRANCH  15  23
ATOM     17  C   UNL     1       4.642   5.333  17.270  0.00  0.00    +0.000 A 
ATOM     18  C   UNL     1       4.840   3.944  17.189  0.00  0.00    +0.000 A 
ATOM     19  C   UNL     1       3.871   3.063  17.666  0.00  0.00    +0.000 A 
ATOM     20  C   UNL     1       2.699   3.556  18.232  0.00  0.00    +0.000 A 
ATOM     21 BR   UNL     1       1.348   2.391  18.874  0.00  0.00    +0.000 Br
ATOM     22  C   UNL     1       2.502   4.937  18.338  0.00  0.00    +0.000 A 
ATOM     23  C   UNL     1       3.474   5.846  17.885  0.00  0.00    +0.000 A 
BRANCH  17  25
ATOM     24  C   UNL     1       6.924   5.833  16.780  0.00  0.00    +0.000 C 
ATOM     25  O   UNL     1       5.558   6.238  16.783  0.00  0.00    +0.000 OA
ENDBRANCH  17  25
BRANCH  19  26
ATOM     26  O   UNL     1       4.078   1.713  17.570  0.00  0.00    +0.000 OA
ATOM     27  H   UNL     1       4.191   1.458  16.641  0.00  0.00    +0.000 HD
ENDBRANCH  19  26
ENDBRANCH  15  23
ENDBRANCH   1  16
TORSDOF 9
ENDMDL
MODEL 2
REMARK VINA RESULT:      -7.2      1.391      1.512
REMARK  Name = 
REMARK  10 active torsions:
REMARK  status: ('A' for Active; 'I' for Inactive)
REMARK    1  A    between atoms: C_1  and  O_2
REMARK    2  A    between atoms: O_2  and  C_3
REMARK    3  A    between atoms: C_5  and  O_6
REMARK    4  A    between atoms: C_10  and  C_11
REMARK    5  A    between atoms: C_12  and  C_13
REMARK    6  A    between atoms: C_13  and  C_15
REMARK    7  A    between atoms: C_18  and  O_19
REMARK    8  A    between atoms: O_19  and  C_20
REMARK    9  A    between atoms: C_20  and  C_21
REMARK   10  A    between atoms: C_21  and  O_23
REMARK                            x       y       z     vdW  Elec       q    Type
REMARK                         _______ _______ _______ _____ _____    ______ ____
ROOT
ATOM      1  C   UNL     1       1.218   9.346  19.227  0.00  0.00    +0.000 C 
ATOM      2  O   UNL     1       1.299   9.873  18.123  0.00  0.00    +0.000 OA
ENDROOT
BRANCH   1   3
ATOM      3  C   UNL     1       0.396   9.955  20.315  0.00  0.00    +0.000 A 
ATOM      4  C   UNL     1      -0.191  11.216  20.150  0.00  0.00    +0.000 A 
ATOM      5  C   UNL     1      -0.923  11.792  21.190  0.00  0.00    +0.000 A 
ATOM      6  C   UNL     1      -1.109  11.108  22.393  0.00  0.00    +0.000 A 
ATOM      7  C   UNL     1      -0.552   9.838  22.553  0.00  0.00    +0.000 A 
ATOM      8  C   UNL     1       0.195   9.260  21.514  0.00  0.00    +0.000 A 
BRANCH   6   9
ATOM      9  O   UNL     1      -1.799  11.808  23.343  0.00  0.00    +0.000 OA
BRANCH   9  10
ATOM     10  C   UNL     1      -3.059  12.349  22.934  0.00  0.00    +0.000 C 
BRANCH  10  11
ATOM     11  C   UNL     1      -3.891  12.624  24.180  0.00  0.00    +0.000 C 
ATOM     12  O   UNL     1      -4.720  11.848  24.632  0.00  0.00    +0.000 OA
BRANCH  11  13
ATOM     13  O   UNL     1      -3.621  13.820  24.759  0.00  0.00    +0.000 OA
ATOM     14  H   UNL     1      -2.860  14.242  24.303  0.00  0.00    +0.000 HD
ENDBRANCH  11  13
ENDBRANCH  10  11
ENDBRANCH   9  10
ENDBRANCH   6   9
ENDBRANCH   1   3
BRANCH   1  16
ATOM     15  C   UNL     1       2.505   7.317  18.616  0.00  0.00    +0.000 C 
ATOM     16  C   UNL     1       1.898   8.059  19.552  0.00  0.00    +0.000 C 
BRANCH  15  23
ATOM     17  C   UNL     1       4.477   5.684  18.345  0.00  0.00    +0.000 A 
ATOM     18  C   UNL     1       5.056   4.448  18.680  0.00  0.00    +0.000 A 
ATOM     19  C   UNL     1       4.382   3.552  19.507  0.00  0.00    +0.000 A 
ATOM     20  C   UNL     1       3.126   3.878  20.011  0.00  0.00    +0.000 A 
ATOM     21 BR   UNL     1       2.167   2.679  21.122  0.00  0.00    +0.000 Br
ATOM     22  C   UNL     1       2.549   5.114  19.701  0.00  0.00    +0.000 A 
ATOM     23  C   UNL     1       3.219   6.045  18.888  0.00  0.00    +0.000 A 
BRANCH  17  25
ATOM     24  C   UNL     1       5.223   6.208  16.139  0.00  0.00    +0.000 C 
ATOM     25  O   UNL     1       5.093   6.585  17.507  0.00  0.00    +0.000 OA
ENDBRANCH  17  25
BRANCH  19  26
ATOM     26  O   UNL     1       4.960   2.350  19.815  0.00  0.00    +0.000 OA
ATOM     27  H   UNL     1       4.813   2.140  20.751  0.00  0.00    +0.000 HD
ENDBRANCH  19  26
ENDBRANCH  15  23
ENDBRANCH   1  16
TORSDOF 9
ENDMDL
MODEL 3
REMARK VINA RESULT:      -7.1      1.047      1.421
REMARK  Name = 
REMARK  10 active torsions:
REMARK  status: ('A' for Active; 'I' for Inactive)
REMARK    1  A    between atoms: C_1  and  O_2
REMARK    2  A    between atoms: O_2  and  C_3
REMARK    3  A    between atoms: C_5  and  O_6
REMARK    4  A    between atoms: C_10  and  C_11
REMARK    5  A    between atoms: C_12  and  C_13
REMARK    6  A    between atoms: C_13  and  C_15
REMARK    7  A    between atoms: C_18  and  O_19
REMARK    8  A    between atoms: O_19  and  C_20
REMARK    9  A    between atoms: C_20  and  C_21
REMARK   10  A    between atoms: C_21  and  O_23
REMARK                            x       y       z     vdW  Elec       q    Type
REMARK                         _______ _______ _______ _____ _____    ______ ____
ROOT
ATOM      1  C   UNL     1       1.504   9.187  19.012  0.00  0.00    +0.000 C 
ATOM      2  O   UNL     1       1.660   9.773  17.946  0.00  0.00    +0.000 OA
ENDROOT
BRANCH   1   3
ATOM      3  C   UNL     1       0.789   9.833  20.152  0.00  0.00    +0.000 A 
ATOM      4  C   UNL     1       0.819   9.266  21.432  0.00  0.00    +0.000 A 
ATOM      5  C   UNL     1       0.113   9.858  22.481  0.00  0.00    +0.000 A 
ATOM      6  C   UNL     1      -0.605  11.039  22.278  0.00  0.00    +0.000 A 
ATOM      7  C   UNL     1      -0.615  11.627  21.012  0.00  0.00    +0.000 A 
ATOM      8  C   UNL     1       0.085  11.027  19.952  0.00  0.00    +0.000 A 
BRANCH   6   9
ATOM      9  O   UNL     1      -1.292  11.480  23.374  0.00  0.00    +0.000 OA
BRANCH   9  10
ATOM     10  C   UNL     1      -2.057  12.677  23.198  0.00  0.00    +0.000 C 
BRANCH  10  11
ATOM     11  C   UNL     1      -3.530  12.336  23.372  0.00  0.00    +0.000 C 
ATOM     12  O   UNL     1      -4.045  12.058  24.445  0.00  0.00    +0.000 OA
BRANCH  11  13
ATOM     13  O   UNL     1      -4.237  12.377  22.215  0.00  0.00    +0.000 OA
ATOM     14  H   UNL     1      -3.648  12.655  21.479  0.00  0.00    +0.000 HD
ENDBRANCH  11  13
ENDBRANCH  10  11
ENDBRANCH   9  10
ENDBRANCH   6   9
ENDBRANCH   1   3
BRANCH   1  16
ATOM     15  C   UNL     1       2.717   7.135  18.329  0.00  0.00    +0.000 C 
ATOM     16  C   UNL     1       1.980   7.791  19.235  0.00  0.00    +0.000 C 
BRANCH  15  23
ATOM     17  C   UNL     1       4.163   5.117  17.649  0.00  0.00    +0.000 A 
ATOM     18  C   UNL     1       4.589   3.807  17.930  0.00  0.00    +0.000 A 
ATOM     19  C   UNL     1       4.076   3.115  19.025  0.00  0.00    +0.000 A 
ATOM     20  C   UNL     1       3.136   3.721  19.854  0.00  0.00    +0.000 A 
ATOM     21 BR   UNL     1       2.398   2.808  21.342  0.00  0.00    +0.000 Br
ATOM     22  C   UNL     1       2.721   5.032  19.597  0.00  0.00    +0.000 A 
ATOM     23  C   UNL     1       3.241   5.759  18.511  0.00  0.00    +0.000 A 
BRANCH  17  25
ATOM     24  C   UNL     1       5.947   6.337  16.638  0.00  0.00    +0.000 C 
ATOM     25  O   UNL     1       4.620   5.824  16.561  0.00  0.00    +0.000 OA
ENDBRANCH  17  25
BRANCH  19  26
ATOM     26  O   UNL     1       4.498   1.837  19.277  0.00  0.00    +0.000 OA
ATOM     27  H   UNL     1       5.418   1.727  18.988  0.00  0.00    +0.000 HD
ENDBRANCH  19  26
ENDBRANCH  15  23
ENDBRANCH   1  16
TORSDOF 9
ENDMDL
MODEL 4
REMARK VINA RESULT:      -7.1      4.160      9.132
REMARK  Name = 
REMARK  10 active torsions:
REMARK  status: ('A' for Active; 'I' for Inactive)
REMARK    1  A    between atoms: C_1  and  O_2
REMARK    2  A    between atoms: O_2  and  C_3
REMARK    3  A    between atoms: C_5  and  O_6
REMARK    4  A    between atoms: C_10  and  C_11
REMARK    5  A    between atoms: C_12  and  C_13
REMARK    6  A    between atoms: C_13  and  C_15
REMARK    7  A    between atoms: C_18  and  O_19
REMARK    8  A    between atoms: O_19  and  C_20
REMARK    9  A    between atoms: C_20  and  C_21
REMARK   10  A    between atoms: C_21  and  O_23
REMARK                            x       y       z     vdW  Elec       q    Type
REMARK                         _______ _______ _______ _____ _____    ______ ____
ROOT
ATOM      1  C   UNL     1       0.635  10.314  19.889  0.00  0.00    +0.000 C 
ATOM      2  O   UNL     1       1.196  11.226  20.485  0.00  0.00    +0.000 OA
ENDROOT
BRANCH   1   3
ATOM      3  C   UNL     1       1.359   9.054  19.547  0.00  0.00    +0.000 A 
ATOM      4  C   UNL     1       1.827   8.825  18.248  0.00  0.00    +0.000 A 
ATOM      5  C   UNL     1       2.467   7.626  17.931  0.00  0.00    +0.000 A 
ATOM      6  C   UNL     1       2.677   6.652  18.910  0.00  0.00    +0.000 A 
ATOM      7  C   UNL     1       2.240   6.885  20.215  0.00  0.00    +0.000 A 
ATOM      8  C   UNL     1       1.586   8.086  20.534  0.00  0.00    +0.000 A 
BRANCH   6   9
ATOM      9  O   UNL     1       3.266   5.506  18.453  0.00  0.00    +0.000 OA
BRANCH   9  10
ATOM     10  C   UNL     1       4.629   5.623  18.032  0.00  0.00    +0.000 C 
BRANCH  10  11
ATOM     11  C   UNL     1       5.497   4.813  18.986  0.00  0.00    +0.000 C 
ATOM     12  O   UNL     1       6.349   5.299  19.715  0.00  0.00    +0.000 OA
BRANCH  11  13
ATOM     13  O   UNL     1       5.232   3.483  18.963  0.00  0.00    +0.000 OA
ATOM     14  H   UNL     1       5.594   3.061  19.773  0.00  0.00    +0.000 HD
ENDBRANCH  11  13
ENDBRANCH  10  11
ENDBRANCH   9  10
ENDBRANCH   6   9
ENDBRANCH   1   3
BRANCH   1  16
ATOM     15  C   UNL     1      -1.281  11.347  18.702  0.00  0.00    +0.000 C 
ATOM     16  C   UNL     1      -0.803  10.380  19.495  0.00  0.00    +0.000 C 
BRANCH  15  23
ATOM     17  C   UNL     1      -3.177  11.041  16.988  0.00  0.00    +0.000 A 
ATOM     18  C   UNL     1      -4.542  11.180  16.682  0.00  0.00    +0.000 A 
ATOM     19  C   UNL     1      -5.418  11.757  17.600  0.00  0.00    +0.000 A 
ATOM     20  C   UNL     1      -4.944  12.197  18.833  0.00  0.00    +0.000 A 
ATOM     21 BR   UNL     1      -6.098  13.005  20.102  0.00  0.00    +0.000 Br
ATOM     22  C   UNL     1      -3.592  12.043  19.157  0.00  0.00    +0.000 A 
ATOM     23  C   UNL     1      -2.693  11.444  18.257  0.00  0.00    +0.000 A 
BRANCH  17  25
ATOM     24  C   UNL     1      -2.784  10.083  14.838  0.00  0.00    +0.000 C 
ATOM     25  O   UNL     1      -2.273  10.507  16.099  0.00  0.00    +0.000 OA
ENDBRANCH  17  25
BRANCH  19  26
ATOM     26  O   UNL     1      -6.742  11.891  17.280  0.00  0.00    +0.000 OA
ATOM     27  H   UNL     1      -6.870  11.759  16.327  0.00  0.00    +0.000 HD
ENDBRANCH  19  26
ENDBRANCH  15  23
ENDBRANCH   1  16
TORSDOF 9
ENDMDL
MODEL 5
REMARK VINA RESULT:      -7.0      3.077      9.109
REMARK  Name = 
REMARK  10 active torsions:
REMARK  status: ('A' for Active; 'I' for Inactive)
REMARK    1  A    between atoms: C_1  and  O_2
REMARK    2  A    between atoms: O_2  and  C_3
REMARK    3  A    between atoms: C_5  and  O_6
REMARK    4  A    between atoms: C_10  and  C_11
REMARK    5  A    between atoms: C_12  and  C_13
REMARK    6  A    between atoms: C_13  and  C_15
REMARK    7  A    between atoms: C_18  and  O_19
REMARK    8  A    between atoms: O_19  and  C_20
REMARK    9  A    between atoms: C_20  and  C_21
REMARK   10  A    between atoms: C_21  and  O_23
REMARK                            x       y       z     vdW  Elec       q    Type
REMARK                         _______ _______ _______ _____ _____    ______ ____
ROOT
ATOM      1  C   UNL     1       1.177   8.461  21.005  0.00  0.00    +0.000 C 
ATOM      2  O   UNL     1       1.659   8.867  22.057  0.00  0.00    +0.000 OA
ENDROOT
BRANCH   1   3
ATOM      3  C   UNL     1       1.793   7.322  20.263  0.00  0.00    +0.000 A 
ATOM      4  C   UNL     1       1.734   6.019  20.773  0.00  0.00    +0.000 A 
ATOM      5  C   UNL     1       2.348   4.967  20.089  0.00  0.00    +0.000 A 
ATOM      6  C   UNL     1       2.999   5.193  18.874  0.00  0.00    +0.000 A 
ATOM      7  C   UNL     1       3.035   6.484  18.344  0.00  0.00    +0.000 A 
ATOM      8  C   UNL     1       2.429   7.546  19.035  0.00  0.00    +0.000 A 
BRANCH   6   9
ATOM      9  O   UNL     1       3.602   4.088  18.340  0.00  0.00    +0.000 OA
BRANCH   9  10
ATOM     10  C   UNL     1       3.012   2.827  18.672  0.00  0.00    +0.000 C 
BRANCH  10  11
ATOM     11  C   UNL     1       4.104   1.913  19.211  0.00  0.00    +0.000 C 
ATOM     12  O   UNL     1       4.793   2.174  20.187  0.00  0.00    +0.000 OA
BRANCH  11  13
ATOM     13  O   UNL     1       4.242   0.761  18.510  0.00  0.00    +0.000 OA
ATOM     14  H   UNL     1       5.103   0.341  18.731  0.00  0.00    +0.000 HD
ENDBRANCH  11  13
ENDBRANCH  10  11
ENDBRANCH   9  10
ENDBRANCH   6   9
ENDBRANCH   1   3
BRANCH   1  16
ATOM     15  C   UNL     1      -0.023  10.035  19.512  0.00  0.00    +0.000 C 
ATOM     16  C   UNL     1      -0.061   9.046  20.413  0.00  0.00    +0.000 C 
BRANCH  15  23
ATOM     17  C   UNL     1      -2.091  11.568  19.481  0.00  0.00    +0.000 A 
ATOM     18  C   UNL     1      -3.195  12.067  18.768  0.00  0.00    +0.000 A 
ATOM     19  C   UNL     1      -3.469  11.612  17.480  0.00  0.00    +0.000 A 
ATOM     20  C   UNL     1      -2.645  10.660  16.887  0.00  0.00    +0.000 A 
ATOM     21 BR   UNL     1      -2.995  10.000  15.144  0.00  0.00    +0.000 Br
ATOM     22  C   UNL     1      -1.531  10.173  17.579  0.00  0.00    +0.000 A 
ATOM     23  C   UNL     1      -1.220  10.633  18.871  0.00  0.00    +0.000 A 
BRANCH  17  25
ATOM     24  C   UNL     1      -2.809  12.701  21.454  0.00  0.00    +0.000 C 
ATOM     25  O   UNL     1      -1.802  11.966  20.766  0.00  0.00    +0.000 OA
ENDBRANCH  17  25
BRANCH  19  26
ATOM     26  O   UNL     1      -4.554  12.104  16.805  0.00  0.00    +0.000 OA
ATOM     27  H   UNL     1      -5.337  11.562  16.993  0.00  0.00    +0.000 HD
ENDBRANCH  19  26
ENDBRANCH  15  23
ENDBRANCH   1  16
TORSDOF 9
ENDMDL
MODEL 6
REMARK VINA RESULT:      -7.0      2.720      4.553
REMARK  Name = 
REMARK  10 active torsions:
REMARK  status: ('A' for Active; 'I' for Inactive)
REMARK    1  A    between atoms: C_1  and  O_2
REMARK    2  A    between atoms: O_2  and  C_3
REMARK    3  A    between atoms: C_5  and  O_6
REMARK    4  A    between atoms: C_10  and  C_11
REMARK    5  A    between atoms: C_12  and  C_13
REMARK    6  A    between atoms: C_13  and  C_15
REMARK    7  A    between atoms: C_18  and  O_19
REMARK    8  A    between atoms: O_19  and  C_20
REMARK    9  A    between atoms: C_20  and  C_21
REMARK   10  A    between atoms: C_21  and  O_23
REMARK                            x       y       z     vdW  Elec       q    Type
REMARK                         _______ _______ _______ _____ _____    ______ ____
ROOT
ATOM      1  C   UNL     1       2.964   4.544  18.536  0.00  0.00    +0.000 C 
ATOM      2  O   UNL     1       2.791   3.442  19.044  0.00  0.00    +0.000 OA
ENDROOT
BRANCH   1   3
ATOM      3  C   UNL     1       2.463   5.786  19.197  0.00  0.00    +0.000 A 
ATOM      4  C   UNL     1       1.902   5.740  20.479  0.00  0.00    +0.000 A 
ATOM      5  C   UNL     1       1.401   6.902  21.069  0.00  0.00    +0.000 A 
ATOM      6  C   UNL     1       1.481   8.128  20.406  0.00  0.00    +0.000 A 
ATOM      7  C   UNL     1       2.066   8.187  19.140  0.00  0.00    +0.000 A 
ATOM      8  C   UNL     1       2.561   7.018  18.539  0.00  0.00    +0.000 A 
BRANCH   6   9
ATOM      9  O   UNL     1       0.905   9.173  21.073  0.00  0.00    +0.000 OA
BRANCH   9  10
ATOM     10  C   UNL     1      -0.315   8.883  21.765  0.00  0.00    +0.000 C 
BRANCH  10  11
ATOM     11  C   UNL     1      -0.384   9.763  23.006  0.00  0.00    +0.000 C 
ATOM     12  O   UNL     1      -1.296  10.542  23.241  0.00  0.00    +0.000 OA
BRANCH  11  13
ATOM     13  O   UNL     1       0.667   9.597  23.847  0.00  0.00    +0.000 OA
ATOM     14  H   UNL     1       0.604   8.719  24.284  0.00  0.00    +0.000 HD
ENDBRANCH  11  13
ENDBRANCH  10  11
ENDBRANCH   9  10
ENDBRANCH   6   9
ENDBRANCH   1   3
BRANCH   1  16
ATOM     15  C   UNL     1       4.921   4.202  17.054  0.00  0.00    +0.000 C 
ATOM     16  C   UNL     1       3.706   4.728  17.256  0.00  0.00    +0.000 C 
BRANCH  15  23
ATOM     17  C   UNL     1       6.960   4.946  15.669  0.00  0.00    +0.000 A 
ATOM     18  C   UNL     1       7.593   5.003  14.415  0.00  0.00    +0.000 A 
ATOM     19  C   UNL     1       6.961   4.499  13.280  0.00  0.00    +0.000 A 
ATOM     20  C   UNL     1       5.695   3.930  13.382  0.00  0.00    +0.000 A 
ATOM     21 BR   UNL     1       4.793   3.251  11.859  0.00  0.00    +0.000 Br
ATOM     22  C   UNL     1       5.065   3.848  14.628  0.00  0.00    +0.000 A 
ATOM     23  C   UNL     1       5.690   4.329  15.791  0.00  0.00    +0.000 A 
BRANCH  17  25
ATOM     24  C   UNL     1       7.247   6.821  17.116  0.00  0.00    +0.000 C 
ATOM     25  O   UNL     1       7.533   5.460  16.809  0.00  0.00    +0.000 OA
ENDBRANCH  17  25
BRANCH  19  26
ATOM     26  O   UNL     1       7.592   4.570  12.067  0.00  0.00    +0.000 OA
ATOM     27  H   UNL     1       8.479   4.949  12.173  0.00  0.00    +0.000 HD
ENDBRANCH  19  26
ENDBRANCH  15  23
ENDBRANCH   1  16
TORSDOF 9
ENDMDL
MODEL 7
REMARK VINA RESULT:      -7.0      2.682      3.261
REMARK  Name = 
REMARK  10 active torsions:
REMARK  status: ('A' for Active; 'I' for Inactive)
REMARK    1  A    between atoms: C_1  and  O_2
REMARK    2  A    between atoms: O_2  and  C_3
REMARK    3  A    between atoms: C_5  and  O_6
REMARK    4  A    between atoms: C_10  and  C_11
REMARK    5  A    between atoms: C_12  and  C_13
REMARK    6  A    between atoms: C_13  and  C_15
REMARK    7  A    between atoms: C_18  and  O_19
REMARK    8  A    between atoms: O_19  and  C_20
REMARK    9  A    between atoms: C_20  and  C_21
REMARK   10  A    between atoms: C_21  and  O_23
REMARK                            x       y       z     vdW  Elec       q    Type
REMARK                         _______ _______ _______ _____ _____    ______ ____
ROOT
ATOM      1  C   UNL     1       1.444   9.828  18.048  0.00  0.00    +0.000 C 
ATOM      2  O   UNL     1       2.368  10.633  18.048  0.00  0.00    +0.000 OA
ENDROOT
BRANCH   1   3
ATOM      3  C   UNL     1       0.031  10.272  18.231  0.00  0.00    +0.000 A 
ATOM      4  C   UNL     1      -0.992   9.762  17.422  0.00  0.00    +0.000 A 
ATOM      5  C   UNL     1      -2.303  10.216  17.575  0.00  0.00    +0.000 A 
ATOM      6  C   UNL     1      -2.619  11.158  18.556  0.00  0.00    +0.000 A 
ATOM      7  C   UNL     1      -1.611  11.648  19.387  0.00  0.00    +0.000 A 
ATOM      8  C   UNL     1      -0.288  11.203  19.227  0.00  0.00    +0.000 A 
BRANCH   6   9
ATOM      9  O   UNL     1      -3.928  11.553  18.562  0.00  0.00    +0.000 OA
BRANCH   9  10
ATOM     10  C   UNL     1      -4.600  11.524  17.299  0.00  0.00    +0.000 C 
BRANCH  10  11
ATOM     11  C   UNL     1      -5.986  12.130  17.478  0.00  0.00    +0.000 C 
ATOM     12  O   UNL     1      -6.946  11.520  17.923  0.00  0.00    +0.000 OA
BRANCH  11  13
ATOM     13  O   UNL     1      -6.060  13.432  17.103  0.00  0.00    +0.000 OA
ATOM     14  H   UNL     1      -6.228  13.487  16.136  0.00  0.00    +0.000 HD
ENDBRANCH  11  13
ENDBRANCH  10  11
ENDBRANCH   9  10
ENDBRANCH   6   9
ENDBRANCH   1   3
BRANCH   1  16
ATOM     15  C   UNL     1       2.736   7.727  18.304  0.00  0.00    +0.000 C 
ATOM     16  C   UNL     1       1.656   8.366  17.835  0.00  0.00    +0.000 C 
BRANCH  15  23
ATOM     17  C   UNL     1       3.991   5.699  17.332  0.00  0.00    +0.000 A 
ATOM     18  C   UNL     1       4.129   4.302  17.267  0.00  0.00    +0.000 A 
ATOM     19  C   UNL     1       3.250   3.471  17.959  0.00  0.00    +0.000 A 
ATOM     20  C   UNL     1       2.228   4.023  18.727  0.00  0.00    +0.000 A 
ATOM     21 BR   UNL     1       1.000   2.927  19.668  0.00  0.00    +0.000 Br
ATOM     22  C   UNL     1       2.095   5.412  18.817  0.00  0.00    +0.000 A 
ATOM     23  C   UNL     1       2.982   6.272  18.146  0.00  0.00    +0.000 A 
BRANCH  17  25
ATOM     24  C   UNL     1       6.124   6.756  17.168  0.00  0.00    +0.000 C 
ATOM     25  O   UNL     1       4.816   6.555  16.640  0.00  0.00    +0.000 OA
ENDBRANCH  17  25
BRANCH  19  26
ATOM     26  O   UNL     1       3.396   2.112  17.876  0.00  0.00    +0.000 OA
ATOM     27  H   UNL     1       3.589   1.743  18.753  0.00  0.00    +0.000 HD
ENDBRANCH  19  26
ENDBRANCH  15  23
ENDBRANCH   1  16
TORSDOF 9
ENDMDL
MODEL 8
REMARK VINA RESULT:      -7.0      0.979      1.085
REMARK  Name = 
REMARK  10 active torsions:
REMARK  status: ('A' for Active; 'I' for Inactive)
REMARK    1  A    between atoms: C_1  and  O_2
REMARK    2  A    between atoms: O_2  and  C_3
REMARK    3  A    between atoms: C_5  and  O_6
REMARK    4  A    between atoms: C_10  and  C_11
REMARK    5  A    between atoms: C_12  and  C_13
REMARK    6  A    between atoms: C_13  and  C_15
REMARK    7  A    between atoms: C_18  and  O_19
REMARK    8  A    between atoms: O_19  and  C_20
REMARK    9  A    between atoms: C_20  and  C_21
REMARK   10  A    between atoms: C_21  and  O_23
REMARK                            x       y       z     vdW  Elec       q    Type
REMARK                         _______ _______ _______ _____ _____    ______ ____
ROOT
ATOM      1  C   UNL     1       1.771   9.233  18.294  0.00  0.00    +0.000 C 
ATOM      2  O   UNL     1       2.152   9.990  17.408  0.00  0.00    +0.000 OA
ENDROOT
BRANCH   1   3
ATOM      3  C   UNL     1       1.142   9.759  19.542  0.00  0.00    +0.000 A 
ATOM      4  C   UNL     1       0.692  11.083  19.615  0.00  0.00    +0.000 A 
ATOM      5  C   UNL     1       0.142  11.574  20.801  0.00  0.00    +0.000 A 
ATOM      6  C   UNL     1       0.003  10.747  21.917  0.00  0.00    +0.000 A 
ATOM      7  C   UNL     1       0.421   9.417  21.842  0.00  0.00    +0.000 A 
ATOM      8  C   UNL     1       0.986   8.923  20.654  0.00  0.00    +0.000 A 
BRANCH   6   9
ATOM      9  O   UNL     1      -0.500  11.369  23.025  0.00  0.00    +0.000 OA
BRANCH   9  10
ATOM     10  C   UNL     1      -1.736  12.068  22.849  0.00  0.00    +0.000 C 
BRANCH  10  11
ATOM     11  C   UNL     1      -1.589  13.461  23.445  0.00  0.00    +0.000 C 
ATOM     12  O   UNL     1      -2.430  13.992  24.157  0.00  0.00    +0.000 OA
BRANCH  11  13
ATOM     13  O   UNL     1      -0.421  14.070  23.121  0.00  0.00    +0.000 OA
ATOM     14  H   UNL     1      -0.095  13.720  22.263  0.00  0.00    +0.000 HD
ENDBRANCH  11  13
ENDBRANCH  10  11
ENDBRANCH   9  10
ENDBRANCH   6   9
ENDBRANCH   1   3
BRANCH   1  16
ATOM     15  C   UNL     1       3.049   7.129  17.999  0.00  0.00    +0.000 C 
ATOM     16  C   UNL     1       1.876   7.750  18.179  0.00  0.00    +0.000 C 
BRANCH  15  23
ATOM     17  C   UNL     1       4.292   4.995  17.270  0.00  0.00    +0.000 A 
ATOM     18  C   UNL     1       4.339   3.591  17.252  0.00  0.00    +0.000 A 
ATOM     19  C   UNL     1       3.308   2.840  17.814  0.00  0.00    +0.000 A 
ATOM     20  C   UNL     1       2.222   3.481  18.404  0.00  0.00    +0.000 A 
ATOM     21 BR   UNL     1       0.789   2.497  19.162  0.00  0.00    +0.000 Br
ATOM     22  C   UNL     1       2.175   4.878  18.448  0.00  0.00    +0.000 A 
ATOM     23  C   UNL     1       3.214   5.658  17.908  0.00  0.00    +0.000 A 
BRANCH  17  25
ATOM     24  C   UNL     1       6.599   5.256  16.720  0.00  0.00    +0.000 C 
ATOM     25  O   UNL     1       5.272   5.774  16.700  0.00  0.00    +0.000 OA
ENDBRANCH  17  25
BRANCH  19  26
ATOM     26  O   UNL     1       3.369   1.473  17.779  0.00  0.00    +0.000 OA
ATOM     27  H   UNL     1       3.087   1.105  18.631  0.00  0.00    +0.000 HD
ENDBRANCH  19  26
ENDBRANCH  15  23
ENDBRANCH   1  16
TORSDOF 9
ENDMDL
MODEL 9
REMARK VINA RESULT:      -6.9      0.896      1.314
REMARK  Name = 
REMARK  10 active torsions:
REMARK  status: ('A' for Active; 'I' for Inactive)
REMARK    1  A    between atoms: C_1  and  O_2
REMARK    2  A    between atoms: O_2  and  C_3
REMARK    3  A    between atoms: C_5  and  O_6
REMARK    4  A    between atoms: C_10  and  C_11
REMARK    5  A    between atoms: C_12  and  C_13
REMARK    6  A    between atoms: C_13  and  C_15
REMARK    7  A    between atoms: C_18  and  O_19
REMARK    8  A    between atoms: O_19  and  C_20
REMARK    9  A    between atoms: C_20  and  C_21
REMARK   10  A    between atoms: C_21  and  O_23
REMARK                            x       y       z     vdW  Elec       q    Type
REMARK                         _______ _______ _______ _____ _____    ______ ____
ROOT
ATOM      1  C   UNL     1       1.732   9.320  18.378  0.00  0.00    +0.000 C 
ATOM      2  O   UNL     1       1.927  10.047  17.410  0.00  0.00    +0.000 OA
ENDROOT
BRANCH   1   3
ATOM      3  C   UNL     1       1.162   9.858  19.648  0.00  0.00    +0.000 A 
ATOM      4  C   UNL     1       0.750   8.996  20.672  0.00  0.00    +0.000 A 
ATOM      5  C   UNL     1       0.182   9.510  21.838  0.00  0.00    +0.000 A 
ATOM      6  C   UNL     1       0.046  10.889  22.015  0.00  0.00    +0.000 A 
ATOM      7  C   UNL     1       0.482  11.756  21.013  0.00  0.00    +0.000 A 
ATOM      8  C   UNL     1       1.044  11.241  19.832  0.00  0.00    +0.000 A 
BRANCH   6   9
ATOM      9  O   UNL     1      -0.575  11.253  23.178  0.00  0.00    +0.000 OA
BRANCH   9  10
ATOM     10  C   UNL     1      -1.851  11.885  23.039  0.00  0.00    +0.000 C 
BRANCH  10  11
ATOM     11  C   UNL     1      -1.651  13.393  23.112  0.00  0.00    +0.000 C 
ATOM     12  O   UNL     1      -0.919  13.947  23.919  0.00  0.00    +0.000 OA
BRANCH  11  13
ATOM     13  O   UNL     1      -2.360  14.080  22.181  0.00  0.00    +0.000 OA
ATOM     14  H   UNL     1      -1.752  14.642  21.652  0.00  0.00    +0.000 HD
ENDBRANCH  11  13
ENDBRANCH  10  11
ENDBRANCH   9  10
ENDBRANCH   6   9
ENDBRANCH   1   3
BRANCH   1  16
ATOM     15  C   UNL     1       3.116   7.353  17.774  0.00  0.00    +0.000 C 
ATOM     16  C   UNL     1       2.015   7.855  18.347  0.00  0.00    +0.000 C 
BRANCH  15  23
ATOM     17  C   UNL     1       4.679   5.374  17.255  0.00  0.00    +0.000 A 
ATOM     18  C   UNL     1       4.891   3.985  17.279  0.00  0.00    +0.000 A 
ATOM     19  C   UNL     1       3.894   3.124  17.732  0.00  0.00    +0.000 A 
ATOM     20  C   UNL     1       2.677   3.638  18.170  0.00  0.00    +0.000 A 
ATOM     21 BR   UNL     1       1.286   2.500  18.776  0.00  0.00    +0.000 Br
ATOM     22  C   UNL     1       2.462   5.020  18.172  0.00  0.00    +0.000 A 
ATOM     23  C   UNL     1       3.461   5.911  17.741  0.00  0.00    +0.000 A 
BRANCH  17  25
ATOM     24  C   UNL     1       6.990   5.897  16.974  0.00  0.00    +0.000 C 
ATOM     25  O   UNL     1       5.624   6.257  16.787  0.00  0.00    +0.000 OA
ENDBRANCH  17  25
BRANCH  19  26
ATOM     26  O   UNL     1       4.117   1.773  17.739  0.00  0.00    +0.000 OA
ATOM     27  H   UNL     1       4.051   1.429  18.644  0.00  0.00    +0.000 HD
ENDBRANCH  19  26
ENDBRANCH  15  23
ENDBRANCH   1  16
TORSDOF 9
ENDMDL
