MODEL 1
REMARK VINA RESULT:      -7.6      0.000      0.000
REMARK  Name = 
REMARK  2 active torsions:
REMARK  status: ('A' for Active; 'I' for Inactive)
REMARK    1  A    between atoms: C_14  and  C_15
REMARK    2  A    between atoms: N_22  and  C_23
REMARK                            x       y       z     vdW  Elec       q    Type
REMARK                         _______ _______ _______ _____ _____    ______ ____
ROOT
ATOM      1  O   UNL     1       1.775  13.452  21.200  0.00  0.00    +0.000 OA
ATOM      2  C   UNL     1       0.574  13.379  21.416  0.00  0.00    +0.000 C 
ATOM      3  N   UNL     1      -0.271  14.487  21.496  0.00  0.00    +0.000 N 
ATOM      4  C   UNL     1      -1.585  14.103  21.726  0.00  0.00    +0.000 A 
ATOM      5  C   UNL     1      -2.670  14.942  21.858  0.00  0.00    +0.000 A 
ATOM      6  C   UNL     1      -3.904  14.342  22.110  0.00  0.00    +0.000 A 
ATOM      7 CL   UNL     1      -5.302  15.332  22.277  0.00  0.00    +0.000 Cl
ATOM      8  C   UNL     1      -4.025  12.945  22.231  0.00  0.00    +0.000 A 
ATOM      9  C   UNL     1      -2.908  12.116  22.085  0.00  0.00    +0.000 A 
ATOM     10  C   UNL     1      -1.685  12.711  21.815  0.00  0.00    +0.000 A 
ATOM     11  C   UNL     1      -0.321  12.102  21.601  0.00  0.00    +0.000 C 
ATOM     12  O   UNL     1       0.088  11.341  22.744  0.00  0.00    +0.000 OA
ATOM     13  N   UNL     1       0.739  10.148  22.268  0.00  0.00    +0.000 NA
ATOM     14  C   UNL     1       0.591  10.148  20.963  0.00  0.00    +0.000 C 
ATOM     15  N   UNL     1      -0.149  11.198  20.472  0.00  0.00    +0.000 N 
ATOM     16  H   UNL     1       0.068  15.434  21.404  0.00  0.00    +0.000 HD
ENDROOT
BRANCH  14  17
ATOM     17  C   UNL     1       1.258   9.124  20.118  0.00  0.00    +0.000 A 
ATOM     18  C   UNL     1       1.631   9.439  18.802  0.00  0.00    +0.000 A 
ATOM     19  C   UNL     1       2.224   8.477  17.988  0.00  0.00    +0.000 A 
ATOM     20  C   UNL     1       2.469   7.203  18.495  0.00  0.00    +0.000 A 
ATOM     21  C   UNL     1       2.130   6.902  19.816  0.00  0.00    +0.000 A 
ATOM     22 CL   UNL     1       2.450   5.327  20.434  0.00  0.00    +0.000 Cl
ATOM     23  C   UNL     1       1.529   7.856  20.635  0.00  0.00    +0.000 A 
ENDBRANCH  14  17
BRANCH  15  24
ATOM     24  C   UNL     1      -0.948  11.205  19.329  0.00  0.00    +0.000 A 
ATOM     25  C   UNL     1      -1.826  10.141  19.047  0.00  0.00    +0.000 A 
ATOM     26  C   UNL     1      -2.531  10.074  17.841  0.00  0.00    +0.000 A 
ATOM     27  C   UNL     1      -2.377  11.084  16.899  0.00  0.00    +0.000 A 
ATOM     28 CL   UNL     1      -3.195  10.983  15.391  0.00  0.00    +0.000 Cl
ATOM     29  C   UNL     1      -1.545  12.167  17.167  0.00  0.00    +0.000 A 
ATOM     30  C   UNL     1      -0.841  12.226  18.375  0.00  0.00    +0.000 A 
ENDBRANCH  15  24
TORSDOF 2
ENDMDL
MODEL 2
REMARK VINA RESULT:      -7.4      2.553      6.387
REMARK  Name = 
REMARK  2 active torsions:
REMARK  status: ('A' for Active; 'I' for Inactive)
REMARK    1  A    between atoms: C_14  and  C_15
REMARK    2  A    between atoms: N_22  and  C_23
REMARK                            x       y       z     vdW  Elec       q    Type
REMARK                         _______ _______ _______ _____ _____    ______ ____
ROOT
ATOM      1  O   UNL     1      -2.124  13.191  23.657  0.00  0.00    +0.000 OA
ATOM      2  C   UNL     1      -1.438  12.409  23.015  0.00  0.00    +0.000 C 
ATOM      3  N   UNL     1      -1.430  11.029  23.222  0.00  0.00    +0.000 N 
ATOM      4  C   UNL     1      -0.575  10.391  22.335  0.00  0.00    +0.000 A 
ATOM      5  C   UNL     1      -0.331   9.036  22.265  0.00  0.00    +0.000 A 
ATOM      6  C   UNL     1       0.588   8.609  21.306  0.00  0.00    +0.000 A 
ATOM      7 CL   UNL     1       0.931   6.929  21.160  0.00  0.00    +0.000 Cl
ATOM      8  C   UNL     1       1.238   9.526  20.459  0.00  0.00    +0.000 A 
ATOM      9  C   UNL     1       0.966  10.896  20.546  0.00  0.00    +0.000 A 
ATOM     10  C   UNL     1       0.038  11.318  21.485  0.00  0.00    +0.000 A 
ATOM     11  C   UNL     1      -0.468  12.701  21.815  0.00  0.00    +0.000 C 
ATOM     12  O   UNL     1       0.607  13.562  22.212  0.00  0.00    +0.000 OA
ATOM     13  N   UNL     1       0.372  14.856  21.626  0.00  0.00    +0.000 NA
ATOM     14  C   UNL     1      -0.671  14.718  20.841  0.00  0.00    +0.000 C 
ATOM     15  N   UNL     1      -1.167  13.436  20.770  0.00  0.00    +0.000 N 
ATOM     16  H   UNL     1      -1.982  10.586  23.944  0.00  0.00    +0.000 HD
ENDROOT
BRANCH  14  17
ATOM     17  C   UNL     1      -1.284  15.893  20.169  0.00  0.00    +0.000 A 
ATOM     18  C   UNL     1      -2.498  16.414  20.643  0.00  0.00    +0.000 A 
ATOM     19  C   UNL     1      -3.102  17.492  20.000  0.00  0.00    +0.000 A 
ATOM     20  C   UNL     1      -2.480  18.069  18.895  0.00  0.00    +0.000 A 
ATOM     21  C   UNL     1      -1.253  17.573  18.448  0.00  0.00    +0.000 A 
ATOM     22 CL   UNL     1      -0.490  18.305  17.089  0.00  0.00    +0.000 Cl
ATOM     23  C   UNL     1      -0.647  16.489  19.081  0.00  0.00    +0.000 A 
ENDBRANCH  14  17
BRANCH  15  24
ATOM     24  C   UNL     1      -1.816  12.843  19.689  0.00  0.00    +0.000 A 
ATOM     25  C   UNL     1      -3.160  12.433  19.780  0.00  0.00    +0.000 A 
ATOM     26  C   UNL     1      -3.779  11.717  18.750  0.00  0.00    +0.000 A 
ATOM     27  C   UNL     1      -3.062  11.412  17.600  0.00  0.00    +0.000 A 
ATOM     28 CL   UNL     1      -3.795  10.485  16.352  0.00  0.00    +0.000 Cl
ATOM     29  C   UNL     1      -1.744  11.838  17.466  0.00  0.00    +0.000 A 
ATOM     30  C   UNL     1      -1.130  12.552  18.501  0.00  0.00    +0.000 A 
ENDBRANCH  15  24
TORSDOF 2
ENDMDL
MODEL 3
REMARK VINA RESULT:      -7.0      0.993      1.355
REMARK  Name = 
REMARK  2 active torsions:
REMARK  status: ('A' for Active; 'I' for Inactive)
REMARK    1  A    between atoms: C_14  and  C_15
REMARK    2  A    between atoms: N_22  and  C_23
REMARK                            x       y       z     vdW  Elec       q    Type
REMARK                         _______ _______ _______ _____ _____    ______ ____
ROOT
ATOM      1  O   UNL     1       1.562  13.476  21.547  0.00  0.00    +0.000 OA
ATOM      2  C   UNL     1       0.342  13.505  21.613  0.00  0.00    +0.000 C 
ATOM      3  N   UNL     1      -0.418  14.669  21.485  0.00  0.00    +0.000 N 
ATOM      4  C   UNL     1      -1.776  14.398  21.580  0.00  0.00    +0.000 A 
ATOM      5  C   UNL     1      -2.800  15.316  21.497  0.00  0.00    +0.000 A 
ATOM      6  C   UNL     1      -4.098  14.827  21.642  0.00  0.00    +0.000 A 
ATOM      7 CL   UNL     1      -5.425  15.919  21.540  0.00  0.00    +0.000 Cl
ATOM      8  C   UNL     1      -4.342  13.460  21.871  0.00  0.00    +0.000 A 
ATOM      9  C   UNL     1      -3.283  12.548  21.944  0.00  0.00    +0.000 A 
ATOM     10  C   UNL     1      -1.995  13.031  21.779  0.00  0.00    +0.000 A 
ATOM     11  C   UNL     1      -0.666  12.315  21.797  0.00  0.00    +0.000 C 
ATOM     12  O   UNL     1      -0.458  11.645  23.047  0.00  0.00    +0.000 OA
ATOM     13  N   UNL     1       0.150  10.370  22.765  0.00  0.00    +0.000 NA
ATOM     14  C   UNL     1       0.161  10.251  21.458  0.00  0.00    +0.000 C 
ATOM     15  N   UNL     1      -0.430  11.294  20.784  0.00  0.00    +0.000 N 
ATOM     16  H   UNL     1       0.003  15.578  21.353  0.00  0.00    +0.000 HD
ENDROOT
BRANCH  14  17
ATOM     17  C   UNL     1       0.842   9.106  20.800  0.00  0.00    +0.000 A 
ATOM     18  C   UNL     1       0.881   7.856  21.436  0.00  0.00    +0.000 A 
ATOM     19  C   UNL     1       1.548   6.785  20.846  0.00  0.00    +0.000 A 
ATOM     20  C   UNL     1       2.157   6.954  19.605  0.00  0.00    +0.000 A 
ATOM     21  C   UNL     1       2.087   8.189  18.957  0.00  0.00    +0.000 A 
ATOM     22 CL   UNL     1       2.834   8.380  17.417  0.00  0.00    +0.000 Cl
ATOM     23  C   UNL     1       1.428   9.268  19.544  0.00  0.00    +0.000 A 
ENDBRANCH  14  17
BRANCH  15  24
ATOM     24  C   UNL     1      -1.083  11.241  19.553  0.00  0.00    +0.000 A 
ATOM     25  C   UNL     1      -1.924  10.163  19.220  0.00  0.00    +0.000 A 
ATOM     26  C   UNL     1      -2.475  10.033  17.941  0.00  0.00    +0.000 A 
ATOM     27  C   UNL     1      -2.203  10.994  16.975  0.00  0.00    +0.000 A 
ATOM     28 CL   UNL     1      -2.829  10.815  15.385  0.00  0.00    +0.000 Cl
ATOM     29  C   UNL     1      -1.406  12.091  17.288  0.00  0.00    +0.000 A 
ATOM     30  C   UNL     1      -0.855  12.213  18.569  0.00  0.00    +0.000 A 
ENDBRANCH  15  24
TORSDOF 2
ENDMDL
MODEL 4
REMARK VINA RESULT:      -7.0      2.227      6.333
REMARK  Name = 
REMARK  2 active torsions:
REMARK  status: ('A' for Active; 'I' for Inactive)
REMARK    1  A    between atoms: C_14  and  C_15
REMARK    2  A    between atoms: N_22  and  C_23
REMARK                            x       y       z     vdW  Elec       q    Type
REMARK                         _______ _______ _______ _____ _____    ______ ____
ROOT
ATOM      1  O   UNL     1      -1.358  13.165  23.517  0.00  0.00    +0.000 OA
ATOM      2  C   UNL     1      -0.815  12.307  22.836  0.00  0.00    +0.000 C 
ATOM      3  N   UNL     1      -0.871  10.940  23.116  0.00  0.00    +0.000 N 
ATOM      4  C   UNL     1      -0.185  10.202  22.163  0.00  0.00    +0.000 A 
ATOM      5  C   UNL     1      -0.042   8.831  22.137  0.00  0.00    +0.000 A 
ATOM      6  C   UNL     1       0.711   8.295  21.094  0.00  0.00    +0.000 A 
ATOM      7 CL   UNL     1       0.921   6.589  20.998  0.00  0.00    +0.000 Cl
ATOM      8  C   UNL     1       1.303   9.122  20.120  0.00  0.00    +0.000 A 
ATOM      9  C   UNL     1       1.136  10.510  20.166  0.00  0.00    +0.000 A 
ATOM     10  C   UNL     1       0.370  11.041  21.191  0.00  0.00    +0.000 A 
ATOM     11  C   UNL     1       0.005  12.472  21.507  0.00  0.00    +0.000 C 
ATOM     12  O   UNL     1       1.177  13.270  21.713  0.00  0.00    +0.000 OA
ATOM     13  N   UNL     1       0.952  14.549  21.091  0.00  0.00    +0.000 NA
ATOM     14  C   UNL     1      -0.192  14.450  20.456  0.00  0.00    +0.000 C 
ATOM     15  N   UNL     1      -0.777  13.206  20.521  0.00  0.00    +0.000 N 
ATOM     16  H   UNL     1      -1.350  10.573  23.927  0.00  0.00    +0.000 HD
ENDROOT
BRANCH  14  17
ATOM     17  C   UNL     1      -0.810  15.634  19.805  0.00  0.00    +0.000 A 
ATOM     18  C   UNL     1      -0.246  16.161  18.633  0.00  0.00    +0.000 A 
ATOM     19  C   UNL     1      -0.794  17.292  18.033  0.00  0.00    +0.000 A 
ATOM     20  C   UNL     1      -1.925  17.885  18.589  0.00  0.00    +0.000 A 
ATOM     21  C   UNL     1      -2.508  17.338  19.734  0.00  0.00    +0.000 A 
ATOM     22 CL   UNL     1      -3.913  18.074  20.404  0.00  0.00    +0.000 Cl
ATOM     23  C   UNL     1      -1.960  16.211  20.345  0.00  0.00    +0.000 A 
ENDBRANCH  14  17
BRANCH  15  24
ATOM     24  C   UNL     1      -1.601  12.612  19.567  0.00  0.00    +0.000 A 
ATOM     25  C   UNL     1      -1.119  12.292  18.284  0.00  0.00    +0.000 A 
ATOM     26  C   UNL     1      -1.969  11.820  17.278  0.00  0.00    +0.000 A 
ATOM     27  C   UNL     1      -3.320  11.646  17.548  0.00  0.00    +0.000 A 
ATOM     28 CL   UNL     1      -4.384  11.120  16.305  0.00  0.00    +0.000 Cl
ATOM     29  C   UNL     1      -3.818  11.917  18.819  0.00  0.00    +0.000 A 
ATOM     30  C   UNL     1      -2.962  12.391  19.820  0.00  0.00    +0.000 A 
ENDBRANCH  15  24
TORSDOF 2
ENDMDL
MODEL 5
REMARK VINA RESULT:      -6.7      4.488      6.732
REMARK  Name = 
REMARK  2 active torsions:
REMARK  status: ('A' for Active; 'I' for Inactive)
REMARK    1  A    between atoms: C_14  and  C_15
REMARK    2  A    between atoms: N_22  and  C_23
REMARK                            x       y       z     vdW  Elec       q    Type
REMARK                         _______ _______ _______ _____ _____    ______ ____
ROOT
ATOM      1  O   UNL     1      -6.356  14.655  24.025  0.00  0.00    +0.000 OA
ATOM      2  C   UNL     1      -5.246  15.101  23.776  0.00  0.00    +0.000 C 
ATOM      3  N   UNL     1      -4.377  15.610  24.743  0.00  0.00    +0.000 N 
ATOM      4  C   UNL     1      -3.179  16.024  24.177  0.00  0.00    +0.000 A 
ATOM      5  C   UNL     1      -2.106  16.573  24.845  0.00  0.00    +0.000 A 
ATOM      6  C   UNL     1      -1.004  16.940  24.074  0.00  0.00    +0.000 A 
ATOM      7 CL   UNL     1       0.374  17.624  24.847  0.00  0.00    +0.000 Cl
ATOM      8  C   UNL     1      -0.999  16.764  22.677  0.00  0.00    +0.000 A 
ATOM      9  C   UNL     1      -2.100  16.197  22.025  0.00  0.00    +0.000 A 
ATOM     10  C   UNL     1      -3.186  15.813  22.795  0.00  0.00    +0.000 A 
ATOM     11  C   UNL     1      -4.498  15.179  22.398  0.00  0.00    +0.000 C 
ATOM     12  O   UNL     1      -5.208  16.004  21.466  0.00  0.00    +0.000 OA
ATOM     13  N   UNL     1      -5.800  15.140  20.477  0.00  0.00    +0.000 NA
ATOM     14  C   UNL     1      -5.352  13.933  20.732  0.00  0.00    +0.000 C 
ATOM     15  N   UNL     1      -4.455  13.863  21.773  0.00  0.00    +0.000 N 
ATOM     16  H   UNL     1      -4.627  15.665  25.721  0.00  0.00    +0.000 HD
ENDROOT
BRANCH  14  17
ATOM     17  C   UNL     1      -5.863  12.754  19.985  0.00  0.00    +0.000 A 
ATOM     18  C   UNL     1      -5.640  12.651  18.604  0.00  0.00    +0.000 A 
ATOM     19  C   UNL     1      -6.145  11.569  17.887  0.00  0.00    +0.000 A 
ATOM     20  C   UNL     1      -6.854  10.573  18.554  0.00  0.00    +0.000 A 
ATOM     21  C   UNL     1      -7.043  10.658  19.935  0.00  0.00    +0.000 A 
ATOM     22 CL   UNL     1      -7.909   9.413  20.749  0.00  0.00    +0.000 Cl
ATOM     23  C   UNL     1      -6.547  11.742  20.659  0.00  0.00    +0.000 A 
ENDBRANCH  14  17
BRANCH  15  24
ATOM     24  C   UNL     1      -3.412  12.951  21.928  0.00  0.00    +0.000 A 
ATOM     25  C   UNL     1      -3.161  12.335  23.168  0.00  0.00    +0.000 A 
ATOM     26  C   UNL     1      -2.040  11.523  23.369  0.00  0.00    +0.000 A 
ATOM     27  C   UNL     1      -1.156  11.303  22.320  0.00  0.00    +0.000 A 
ATOM     28 CL   UNL     1       0.254  10.353  22.571  0.00  0.00    +0.000 Cl
ATOM     29  C   UNL     1      -1.400  11.868  21.072  0.00  0.00    +0.000 A 
ATOM     30  C   UNL     1      -2.522  12.681  20.879  0.00  0.00    +0.000 A 
ENDBRANCH  15  24
TORSDOF 2
ENDMDL
MODEL 6
REMARK VINA RESULT:      -6.6      1.390      6.392
REMARK  Name = 
REMARK  2 active torsions:
REMARK  status: ('A' for Active; 'I' for Inactive)
REMARK    1  A    between atoms: C_14  and  C_15
REMARK    2  A    between atoms: N_22  and  C_23
REMARK                            x       y       z     vdW  Elec       q    Type
REMARK                         _______ _______ _______ _____ _____    ______ ____
ROOT
ATOM      1  O   UNL     1      -0.818   9.682  22.712  0.00  0.00    +0.000 OA
ATOM      2  C   UNL     1      -0.120   9.675  21.709  0.00  0.00    +0.000 C 
ATOM      3  N   UNL     1       0.467   8.525  21.176  0.00  0.00    +0.000 N 
ATOM      4  C   UNL     1       1.184   8.813  20.023  0.00  0.00    +0.000 A 
ATOM      5  C   UNL     1       1.883   7.912  19.249  0.00  0.00    +0.000 A 
ATOM      6  C   UNL     1       2.555   8.423  18.139  0.00  0.00    +0.000 A 
ATOM      7 CL   UNL     1       3.440   7.350  17.125  0.00  0.00    +0.000 Cl
ATOM      8  C   UNL     1       2.523   9.797  17.835  0.00  0.00    +0.000 A 
ATOM      9  C   UNL     1       1.799  10.689  18.634  0.00  0.00    +0.000 A 
ATOM     10  C   UNL     1       1.115  10.178  19.725  0.00  0.00    +0.000 A 
ATOM     11  C   UNL     1       0.255  10.867  20.757  0.00  0.00    +0.000 C 
ATOM     12  O   UNL     1       0.995  11.877  21.454  0.00  0.00    +0.000 OA
ATOM     13  N   UNL     1       0.126  13.011  21.636  0.00  0.00    +0.000 NA
ATOM     14  C   UNL     1      -0.974  12.737  20.975  0.00  0.00    +0.000 C 
ATOM     15  N   UNL     1      -0.951  11.541  20.296  0.00  0.00    +0.000 N 
ATOM     16  H   UNL     1       0.369   7.618  21.609  0.00  0.00    +0.000 HD
ENDROOT
BRANCH  14  17
ATOM     17  C   UNL     1      -2.156  13.635  21.052  0.00  0.00    +0.000 A 
ATOM     18  C   UNL     1      -2.026  14.992  20.718  0.00  0.00    +0.000 A 
ATOM     19  C   UNL     1      -3.117  15.851  20.821  0.00  0.00    +0.000 A 
ATOM     20  C   UNL     1      -4.350  15.351  21.233  0.00  0.00    +0.000 A 
ATOM     21  C   UNL     1      -4.486  13.993  21.529  0.00  0.00    +0.000 A 
ATOM     22 CL   UNL     1      -6.019  13.386  22.026  0.00  0.00    +0.000 Cl
ATOM     23  C   UNL     1      -3.398  13.128  21.437  0.00  0.00    +0.000 A 
ENDBRANCH  14  17
BRANCH  15  24
ATOM     24  C   UNL     1      -1.627  11.228  19.117  0.00  0.00    +0.000 A 
ATOM     25  C   UNL     1      -2.341  10.022  18.985  0.00  0.00    +0.000 A 
ATOM     26  C   UNL     1      -2.909   9.637  17.766  0.00  0.00    +0.000 A 
ATOM     27  C   UNL     1      -2.783  10.466  16.658  0.00  0.00    +0.000 A 
ATOM     28 CL   UNL     1      -3.429   9.978  15.143  0.00  0.00    +0.000 Cl
ATOM     29  C   UNL     1      -2.116  11.683  16.770  0.00  0.00    +0.000 A 
ATOM     30  C   UNL     1      -1.548  12.060  17.992  0.00  0.00    +0.000 A 
ENDBRANCH  15  24
TORSDOF 2
ENDMDL
MODEL 7
REMARK VINA RESULT:      -6.6      3.493      5.875
REMARK  Name = 
REMARK  2 active torsions:
REMARK  status: ('A' for Active; 'I' for Inactive)
REMARK    1  A    between atoms: C_14  and  C_15
REMARK    2  A    between atoms: N_22  and  C_23
REMARK                            x       y       z     vdW  Elec       q    Type
REMARK                         _______ _______ _______ _____ _____    ______ ____
ROOT
ATOM      1  O   UNL     1      -5.543  13.286  23.835  0.00  0.00    +0.000 OA
ATOM      2  C   UNL     1      -4.480  13.885  23.903  0.00  0.00    +0.000 C 
ATOM      3  N   UNL     1      -3.868  14.252  25.103  0.00  0.00    +0.000 N 
ATOM      4  C   UNL     1      -2.662  14.899  24.877  0.00  0.00    +0.000 A 
ATOM      5  C   UNL     1      -1.806  15.392  25.838  0.00  0.00    +0.000 A 
ATOM      6  C   UNL     1      -0.651  16.030  25.387  0.00  0.00    +0.000 A 
ATOM      7 CL   UNL     1       0.466  16.660  26.535  0.00  0.00    +0.000 Cl
ATOM      8  C   UNL     1      -0.383  16.168  24.011  0.00  0.00    +0.000 A 
ATOM      9  C   UNL     1      -1.266  15.652  23.057  0.00  0.00    +0.000 A 
ATOM     10  C   UNL     1      -2.403  15.000  23.506  0.00  0.00    +0.000 A 
ATOM     11  C   UNL     1      -3.526  14.341  22.741  0.00  0.00    +0.000 C 
ATOM     12  O   UNL     1      -4.175  15.276  21.871  0.00  0.00    +0.000 OA
ATOM     13  N   UNL     1      -4.463  14.598  20.634  0.00  0.00    +0.000 NA
ATOM     14  C   UNL     1      -3.900  13.416  20.726  0.00  0.00    +0.000 C 
ATOM     15  N   UNL     1      -3.193  13.208  21.888  0.00  0.00    +0.000 N 
ATOM     16  H   UNL     1      -4.287  14.064  26.003  0.00  0.00    +0.000 HD
ENDROOT
BRANCH  14  17
ATOM     17  C   UNL     1      -4.107  12.386  19.675  0.00  0.00    +0.000 A 
ATOM     18  C   UNL     1      -5.392  11.870  19.444  0.00  0.00    +0.000 A 
ATOM     19  C   UNL     1      -5.592  10.879  18.487  0.00  0.00    +0.000 A 
ATOM     20  C   UNL     1      -4.512  10.417  17.739  0.00  0.00    +0.000 A 
ATOM     21  C   UNL     1      -3.240  10.957  17.944  0.00  0.00    +0.000 A 
ATOM     22 CL   UNL     1      -1.916  10.385  17.003  0.00  0.00    +0.000 Cl
ATOM     23  C   UNL     1      -3.030  11.944  18.906  0.00  0.00    +0.000 A 
ENDBRANCH  14  17
BRANCH  15  24
ATOM     24  C   UNL     1      -2.075  12.393  22.061  0.00  0.00    +0.000 A 
ATOM     25  C   UNL     1      -0.957  12.501  21.213  0.00  0.00    +0.000 A 
ATOM     26  C   UNL     1       0.111  11.601  21.292  0.00  0.00    +0.000 A 
ATOM     27  C   UNL     1       0.082  10.584  22.237  0.00  0.00    +0.000 A 
ATOM     28 CL   UNL     1       1.363   9.440  22.306  0.00  0.00    +0.000 Cl
ATOM     29  C   UNL     1      -0.993  10.476  23.114  0.00  0.00    +0.000 A 
ATOM     30  C   UNL     1      -2.059  11.378  23.027  0.00  0.00    +0.000 A 
ENDBRANCH  15  24
TORSDOF 2
ENDMDL
MODEL 8
REMARK VINA RESULT:      -6.5      4.471      6.556
REMARK  Name = 
REMARK  2 active torsions:
REMARK  status: ('A' for Active; 'I' for Inactive)
REMARK    1  A    between atoms: C_14  and  C_15
REMARK    2  A    between atoms: N_22  and  C_23
REMARK                            x       y       z     vdW  Elec       q    Type
REMARK                         _______ _______ _______ _____ _____    ______ ____
ROOT
ATOM      1  O   UNL     1      -5.515  12.240  24.668  0.00  0.00    +0.000 OA
ATOM      2  C   UNL     1      -4.764  13.197  24.551  0.00  0.00    +0.000 C 
ATOM      3  N   UNL     1      -3.795  13.547  25.494  0.00  0.00    +0.000 N 
ATOM      4  C   UNL     1      -3.075  14.661  25.088  0.00  0.00    +0.000 A 
ATOM      5  C   UNL     1      -2.049  15.268  25.780  0.00  0.00    +0.000 A 
ATOM      6  C   UNL     1      -1.475  16.397  25.195  0.00  0.00    +0.000 A 
ATOM      7 CL   UNL     1      -0.183  17.197  26.002  0.00  0.00    +0.000 Cl
ATOM      8  C   UNL     1      -1.934  16.892  23.959  0.00  0.00    +0.000 A 
ATOM      9  C   UNL     1      -2.973  16.252  23.275  0.00  0.00    +0.000 A 
ATOM     10  C   UNL     1      -3.529  15.118  23.847  0.00  0.00    +0.000 A 
ATOM     11  C   UNL     1      -4.639  14.216  23.363  0.00  0.00    +0.000 C 
ATOM     12  O   UNL     1      -5.855  14.950  23.176  0.00  0.00    +0.000 OA
ATOM     13  N   UNL     1      -6.482  14.463  21.975  0.00  0.00    +0.000 NA
ATOM     14  C   UNL     1      -5.632  13.621  21.435  0.00  0.00    +0.000 C 
ATOM     15  N   UNL     1      -4.438  13.504  22.108  0.00  0.00    +0.000 N 
ATOM     16  H   UNL     1      -3.671  13.036  26.357  0.00  0.00    +0.000 HD
ENDROOT
BRANCH  14  17
ATOM     17  C   UNL     1      -6.003  12.818  20.241  0.00  0.00    +0.000 A 
ATOM     18  C   UNL     1      -6.026  13.420  18.973  0.00  0.00    +0.000 A 
ATOM     19  C   UNL     1      -6.408  12.688  17.852  0.00  0.00    +0.000 A 
ATOM     20  C   UNL     1      -6.744  11.343  17.990  0.00  0.00    +0.000 A 
ATOM     21  C   UNL     1      -6.685  10.736  19.247  0.00  0.00    +0.000 A 
ATOM     22 CL   UNL     1      -7.090   9.070  19.401  0.00  0.00    +0.000 Cl
ATOM     23  C   UNL     1      -6.312  11.464  20.375  0.00  0.00    +0.000 A 
ENDBRANCH  14  17
BRANCH  15  24
ATOM     24  C   UNL     1      -3.190  13.202  21.565  0.00  0.00    +0.000 A 
ATOM     25  C   UNL     1      -2.396  12.166  22.091  0.00  0.00    +0.000 A 
ATOM     26  C   UNL     1      -1.090  11.943  21.642  0.00  0.00    +0.000 A 
ATOM     27  C   UNL     1      -0.562  12.749  20.643  0.00  0.00    +0.000 A 
ATOM     28 CL   UNL     1       1.060  12.521  20.123  0.00  0.00    +0.000 Cl
ATOM     29  C   UNL     1      -1.337  13.757  20.077  0.00  0.00    +0.000 A 
ATOM     30  C   UNL     1      -2.641  13.977  20.533  0.00  0.00    +0.000 A 
ENDBRANCH  15  24
TORSDOF 2
ENDMDL
MODEL 9
REMARK VINA RESULT:      -6.5      4.423      6.815
REMARK  Name = 
REMARK  2 active torsions:
REMARK  status: ('A' for Active; 'I' for Inactive)
REMARK    1  A    between atoms: C_14  and  C_15
REMARK    2  A    between atoms: N_22  and  C_23
REMARK                            x       y       z     vdW  Elec       q    Type
REMARK                         _______ _______ _______ _____ _____    ______ ____
ROOT
ATOM      1  O   UNL     1      -6.589  14.793  24.070  0.00  0.00    +0.000 OA
ATOM      2  C   UNL     1      -5.515  15.326  23.831  0.00  0.00    +0.000 C 
ATOM      3  N   UNL     1      -4.726  15.955  24.796  0.00  0.00    +0.000 N 
ATOM      4  C   UNL     1      -3.553  16.450  24.244  0.00  0.00    +0.000 A 
ATOM      5  C   UNL     1      -2.555  17.124  24.914  0.00  0.00    +0.000 A 
ATOM      6  C   UNL     1      -1.466  17.554  24.156  0.00  0.00    +0.000 A 
ATOM      7 CL   UNL     1      -0.180  18.395  24.933  0.00  0.00    +0.000 Cl
ATOM      8  C   UNL     1      -1.401  17.316  22.770  0.00  0.00    +0.000 A 
ATOM      9  C   UNL     1      -2.426  16.623  22.116  0.00  0.00    +0.000 A 
ATOM     10  C   UNL     1      -3.497  16.177  22.873  0.00  0.00    +0.000 A 
ATOM     11  C   UNL     1      -4.734  15.409  22.472  0.00  0.00    +0.000 C 
ATOM     12  O   UNL     1      -5.485  16.123  21.482  0.00  0.00    +0.000 OA
ATOM     13  N   UNL     1      -5.965  15.165  20.520  0.00  0.00    +0.000 NA
ATOM     14  C   UNL     1      -5.420  14.017  20.844  0.00  0.00    +0.000 C 
ATOM     15  N   UNL     1      -4.554  14.076  21.912  0.00  0.00    +0.000 N 
ATOM     16  H   UNL     1      -5.012  16.031  25.763  0.00  0.00    +0.000 HD
ENDROOT
BRANCH  14  17
ATOM     17  C   UNL     1      -5.799  12.764  20.142  0.00  0.00    +0.000 A 
ATOM     18  C   UNL     1      -6.815  11.949  20.666  0.00  0.00    +0.000 A 
ATOM     19  C   UNL     1      -7.156  10.754  20.036  0.00  0.00    +0.000 A 
ATOM     20  C   UNL     1      -6.498  10.382  18.866  0.00  0.00    +0.000 A 
ATOM     21  C   UNL     1      -5.513  11.211  18.326  0.00  0.00    +0.000 A 
ATOM     22 CL   UNL     1      -4.718  10.745  16.872  0.00  0.00    +0.000 Cl
ATOM     23  C   UNL     1      -5.161  12.405  18.954  0.00  0.00    +0.000 A 
ENDBRANCH  14  17
BRANCH  15  24
ATOM     24  C   UNL     1      -3.439  13.270  22.139  0.00  0.00    +0.000 A 
ATOM     25  C   UNL     1      -2.409  13.165  21.186  0.00  0.00    +0.000 A 
ATOM     26  C   UNL     1      -1.354  12.259  21.344  0.00  0.00    +0.000 A 
ATOM     27  C   UNL     1      -1.308  11.451  22.473  0.00  0.00    +0.000 A 
ATOM     28 CL   UNL     1      -0.048  10.296  22.651  0.00  0.00    +0.000 Cl
ATOM     29  C   UNL     1      -2.293  11.561  23.450  0.00  0.00    +0.000 A 
ATOM     30  C   UNL     1      -3.346  12.467  23.284  0.00  0.00    +0.000 A 
ENDBRANCH  15  24
TORSDOF 2
ENDMDL
