MODEL 1
REMARK VINA RESULT:      -8.4      0.000      0.000
REMARK  Name = 
REMARK  5 active torsions:
REMARK  status: ('A' for Active; 'I' for Inactive)
REMARK    1  A    between atoms: N_2  and  C_4
REMARK    2  A    between atoms: C_10  and  O_11
REMARK    3  A    between atoms: N_13  and  C_14
REMARK    4  A    between atoms: C_14  and  C_15
REMARK    5  A    between atoms: C_18  and  C_19
REMARK                            x       y       z     vdW  Elec       q    Type
REMARK                         _______ _______ _______ _____ _____    ______ ____
ROOT
ATOM      1  C   UNL     1      -5.677  12.039  18.521  0.00  0.00    +0.000 A 
ATOM      2  C   UNL     1      -5.525  11.221  17.398  0.00  0.00    +0.000 A 
ATOM      3  C   UNL     1      -4.244  10.875  16.977  0.00  0.00    +0.000 A 
ATOM      4  C   UNL     1      -3.113  11.324  17.681  0.00  0.00    +0.000 A 
ATOM      5  C   UNL     1      -3.260  12.156  18.807  0.00  0.00    +0.000 A 
ATOM      6  C   UNL     1      -4.556  12.521  19.214  0.00  0.00    +0.000 A 
ATOM      7  C   UNL     1      -2.061  12.592  19.625  0.00  0.00    +0.000 C 
ATOM      8  C   UNL     1      -1.317  11.402  20.295  0.00  0.00    +0.000 C 
ATOM      9  N   UNL     1      -0.420  10.580  19.434  0.00  0.00    +0.000 NA
ATOM     10  C   UNL     1      -1.148   9.912  18.326  0.00  0.00    +0.000 C 
ATOM     11  C   UNL     1      -1.751  10.837  17.261  0.00  0.00    +0.000 C 
ENDROOT
BRANCH   1  13
ATOM     12  O   UNL     1      -7.265  12.215  20.209  0.00  0.00    +0.000 OA
ATOM     13  N   UNL     1      -7.026  12.359  19.001  0.00  0.00    +0.000 N 
ATOM     14  O   UNL     1      -7.850  12.775  18.171  0.00  0.00    +0.000 OA
ENDBRANCH   1  13
BRANCH   7  15
ATOM     15  O   UNL     1      -1.176  13.385  18.835  0.00  0.00    +0.000 OA
ATOM     16  H   UNL     1      -0.527  13.758  19.458  0.00  0.00    +0.000 HD
ENDBRANCH   7  15
BRANCH   9  17
ATOM     17  C   UNL     1       0.213   9.540  20.306  0.00  0.00    +0.000 C 
BRANCH  17  18
ATOM     18  C   UNL     1       1.328   8.780  19.625  0.00  0.00    +0.000 A 
ATOM     19  C   UNL     1       1.797   9.166  18.368  0.00  0.00    +0.000 A 
ATOM     20  C   UNL     1       2.653   8.326  17.647  0.00  0.00    +0.000 A 
ATOM     21  C   UNL     1       3.098   7.094  18.165  0.00  0.00    +0.000 A 
ATOM     22  C   UNL     1       2.710   6.780  19.478  0.00  0.00    +0.000 A 
ATOM     23  C   UNL     1       1.835   7.606  20.185  0.00  0.00    +0.000 A 
ATOM     24  F   UNL     1       1.428   7.212  21.400  0.00  0.00    +0.000 F 
BRANCH  21  25
ATOM     25  C   UNL     1       3.883   6.143  17.336  0.00  0.00    +0.000 A 
ATOM     26  C   UNL     1       3.737   4.750  17.470  0.00  0.00    +0.000 A 
ATOM     27  C   UNL     1       4.531   3.857  16.741  0.00  0.00    +0.000 A 
ATOM     28  C   UNL     1       5.477   4.335  15.843  0.00  0.00    +0.000 A 
ATOM     29  C   UNL     1       5.633   5.706  15.674  0.00  0.00    +0.000 A 
ATOM     30  C   UNL     1       4.849   6.596  16.416  0.00  0.00    +0.000 A 
ENDBRANCH  21  25
ENDBRANCH  17  18
ENDBRANCH   9  17
TORSDOF 5
ENDMDL
MODEL 2
REMARK VINA RESULT:      -8.3      1.280      1.691
REMARK  Name = 
REMARK  5 active torsions:
REMARK  status: ('A' for Active; 'I' for Inactive)
REMARK    1  A    between atoms: N_2  and  C_4
REMARK    2  A    between atoms: C_10  and  O_11
REMARK    3  A    between atoms: N_13  and  C_14
REMARK    4  A    between atoms: C_14  and  C_15
REMARK    5  A    between atoms: C_18  and  C_19
REMARK                            x       y       z     vdW  Elec       q    Type
REMARK                         _______ _______ _______ _____ _____    ______ ____
ROOT
ATOM      1  C   UNL     1      -5.300  11.626  19.002  0.00  0.00    +0.000 A 
ATOM      2  C   UNL     1      -5.289  10.426  18.284  0.00  0.00    +0.000 A 
ATOM      3  C   UNL     1      -4.094   9.976  17.730  0.00  0.00    +0.000 A 
ATOM      4  C   UNL     1      -2.905  10.706  17.903  0.00  0.00    +0.000 A 
ATOM      5  C   UNL     1      -2.912  11.919  18.618  0.00  0.00    +0.000 A 
ATOM      6  C   UNL     1      -4.127  12.380  19.157  0.00  0.00    +0.000 A 
ATOM      7  C   UNL     1      -1.630  12.684  18.882  0.00  0.00    +0.000 C 
ATOM      8  C   UNL     1      -0.618  11.891  19.755  0.00  0.00    +0.000 C 
ATOM      9  N   UNL     1       0.172  10.817  19.088  0.00  0.00    +0.000 NA
ATOM     10  C   UNL     1      -0.686   9.735  18.542  0.00  0.00    +0.000 C 
ATOM     11  C   UNL     1      -1.613  10.130  17.385  0.00  0.00    +0.000 C 
ENDROOT
BRANCH   1  13
ATOM     12  O   UNL     1      -6.714  11.815  20.837  0.00  0.00    +0.000 OA
ATOM     13  N   UNL     1      -6.546  12.074  19.636  0.00  0.00    +0.000 N 
ATOM     14  O   UNL     1      -7.355  12.703  18.936  0.00  0.00    +0.000 OA
ENDBRANCH   1  13
BRANCH   7  15
ATOM     15  O   UNL     1      -1.042  13.114  17.655  0.00  0.00    +0.000 OA
ATOM     16  H   UNL     1      -1.545  13.903  17.382  0.00  0.00    +0.000 HD
ENDBRANCH   7  15
BRANCH   9  17
ATOM     17  C   UNL     1       1.101  10.240  20.111  0.00  0.00    +0.000 C 
BRANCH  17  18
ATOM     18  C   UNL     1       1.641   8.879  19.735  0.00  0.00    +0.000 A 
ATOM     19  C   UNL     1       2.084   8.616  18.437  0.00  0.00    +0.000 A 
ATOM     20  C   UNL     1       2.356   7.302  18.038  0.00  0.00    +0.000 A 
ATOM     21  C   UNL     1       2.228   6.213  18.923  0.00  0.00    +0.000 A 
ATOM     22  C   UNL     1       1.895   6.513  20.254  0.00  0.00    +0.000 A 
ATOM     23  C   UNL     1       1.600   7.820  20.644  0.00  0.00    +0.000 A 
ATOM     24  F   UNL     1       1.202   8.035  21.906  0.00  0.00    +0.000 F 
BRANCH  21  25
ATOM     25  C   UNL     1       2.372   4.812  18.453  0.00  0.00    +0.000 A 
ATOM     26  C   UNL     1       1.461   3.809  18.828  0.00  0.00    +0.000 A 
ATOM     27  C   UNL     1       1.640   2.474  18.444  0.00  0.00    +0.000 A 
ATOM     28  C   UNL     1       2.726   2.114  17.656  0.00  0.00    +0.000 A 
ATOM     29  C   UNL     1       3.635   3.085  17.252  0.00  0.00    +0.000 A 
ATOM     30  C   UNL     1       3.461   4.415  17.651  0.00  0.00    +0.000 A 
ENDBRANCH  21  25
ENDBRANCH  17  18
ENDBRANCH   9  17
TORSDOF 5
ENDMDL
MODEL 3
REMARK VINA RESULT:      -8.2      0.588      1.081
REMARK  Name = 
REMARK  5 active torsions:
REMARK  status: ('A' for Active; 'I' for Inactive)
REMARK    1  A    between atoms: N_2  and  C_4
REMARK    2  A    between atoms: C_10  and  O_11
REMARK    3  A    between atoms: N_13  and  C_14
REMARK    4  A    between atoms: C_14  and  C_15
REMARK    5  A    between atoms: C_18  and  C_19
REMARK                            x       y       z     vdW  Elec       q    Type
REMARK                         _______ _______ _______ _____ _____    ______ ____
ROOT
ATOM      1  C   UNL     1      -5.408  12.328  19.329  0.00  0.00    +0.000 A 
ATOM      2  C   UNL     1      -5.501  11.406  18.282  0.00  0.00    +0.000 A 
ATOM      3  C   UNL     1      -4.334  10.912  17.705  0.00  0.00    +0.000 A 
ATOM      4  C   UNL     1      -3.074  11.318  18.179  0.00  0.00    +0.000 A 
ATOM      5  C   UNL     1      -2.975  12.253  19.227  0.00  0.00    +0.000 A 
ATOM      6  C   UNL     1      -4.157  12.765  19.791  0.00  0.00    +0.000 A 
ATOM      7  C   UNL     1      -1.630  12.648  19.804  0.00  0.00    +0.000 C 
ATOM      8  C   UNL     1      -0.879  11.458  20.465  0.00  0.00    +0.000 C 
ATOM      9  N   UNL     1      -0.196  10.489  19.561  0.00  0.00    +0.000 NA
ATOM     10  C   UNL     1      -1.141   9.796  18.650  0.00  0.00    +0.000 C 
ATOM     11  C   UNL     1      -1.838  10.677  17.605  0.00  0.00    +0.000 C 
ENDROOT
BRANCH   1  13
ATOM     12  O   UNL     1      -6.528  13.400  21.060  0.00  0.00    +0.000 OA
ATOM     13  N   UNL     1      -6.635  12.806  19.977  0.00  0.00    +0.000 N 
ATOM     14  O   UNL     1      -7.712  12.605  19.393  0.00  0.00    +0.000 OA
ENDBRANCH   1  13
BRANCH   7  15
ATOM     15  O   UNL     1      -0.828  13.289  18.813  0.00  0.00    +0.000 OA
ATOM     16  H   UNL     1      -0.080  13.688  19.294  0.00  0.00    +0.000 HD
ENDBRANCH   7  15
BRANCH   9  17
ATOM     17  C   UNL     1       0.490   9.475  20.424  0.00  0.00    +0.000 C 
BRANCH  17  18
ATOM     18  C   UNL     1       1.577   8.709  19.705  0.00  0.00    +0.000 A 
ATOM     19  C   UNL     1       2.140   9.199  18.525  0.00  0.00    +0.000 A 
ATOM     20  C   UNL     1       2.965   8.380  17.745  0.00  0.00    +0.000 A 
ATOM     21  C   UNL     1       3.284   7.062  18.129  0.00  0.00    +0.000 A 
ATOM     22  C   UNL     1       2.803   6.631  19.377  0.00  0.00    +0.000 A 
ATOM     23  C   UNL     1       1.960   7.439  20.140  0.00  0.00    +0.000 A 
ATOM     24  F   UNL     1       1.460   6.942  21.280  0.00  0.00    +0.000 F 
BRANCH  21  25
ATOM     25  C   UNL     1       4.035   6.153  17.226  0.00  0.00    +0.000 A 
ATOM     26  C   UNL     1       4.848   6.645  16.190  0.00  0.00    +0.000 A 
ATOM     27  C   UNL     1       5.495   5.785  15.295  0.00  0.00    +0.000 A 
ATOM     28  C   UNL     1       5.361   4.408  15.427  0.00  0.00    +0.000 A 
ATOM     29  C   UNL     1       4.579   3.890  16.453  0.00  0.00    +0.000 A 
ATOM     30  C   UNL     1       3.921   4.752  17.336  0.00  0.00    +0.000 A 
ENDBRANCH  21  25
ENDBRANCH  17  18
ENDBRANCH   9  17
TORSDOF 5
ENDMDL
MODEL 4
REMARK VINA RESULT:      -8.1      1.286      1.938
REMARK  Name = 
REMARK  5 active torsions:
REMARK  status: ('A' for Active; 'I' for Inactive)
REMARK    1  A    between atoms: N_2  and  C_4
REMARK    2  A    between atoms: C_10  and  O_11
REMARK    3  A    between atoms: N_13  and  C_14
REMARK    4  A    between atoms: C_14  and  C_15
REMARK    5  A    between atoms: C_18  and  C_19
REMARK                            x       y       z     vdW  Elec       q    Type
REMARK                         _______ _______ _______ _____ _____    ______ ____
ROOT
ATOM      1  C   UNL     1      -5.409  11.500  18.762  0.00  0.00    +0.000 A 
ATOM      2  C   UNL     1      -5.336  10.300  18.049  0.00  0.00    +0.000 A 
ATOM      3  C   UNL     1      -4.104   9.877  17.555  0.00  0.00    +0.000 A 
ATOM      4  C   UNL     1      -2.943  10.635  17.783  0.00  0.00    +0.000 A 
ATOM      5  C   UNL     1      -3.013  11.849  18.492  0.00  0.00    +0.000 A 
ATOM      6  C   UNL     1      -4.263  12.283  18.970  0.00  0.00    +0.000 A 
ATOM      7  C   UNL     1      -1.764  12.646  18.815  0.00  0.00    +0.000 C 
ATOM      8  C   UNL     1      -0.777  11.879  19.739  0.00  0.00    +0.000 C 
ATOM      9  N   UNL     1       0.069  10.822  19.115  0.00  0.00    +0.000 NA
ATOM     10  C   UNL     1      -0.735   9.719  18.531  0.00  0.00    +0.000 C 
ATOM     11  C   UNL     1      -1.614  10.089  17.330  0.00  0.00    +0.000 C 
ENDROOT
BRANCH   1  13
ATOM     12  O   UNL     1      -7.292  12.863  18.793  0.00  0.00    +0.000 OA
ATOM     13  N   UNL     1      -6.694  11.920  19.333  0.00  0.00    +0.000 N 
ATOM     14  O   UNL     1      -7.120  11.295  20.317  0.00  0.00    +0.000 OA
ENDBRANCH   1  13
BRANCH   7  15
ATOM     15  O   UNL     1      -1.127  13.086  17.616  0.00  0.00    +0.000 OA
ATOM     16  H   UNL     1      -1.845  13.392  17.032  0.00  0.00    +0.000 HD
ENDBRANCH   7  15
BRANCH   9  17
ATOM     17  C   UNL     1       0.962  10.270  20.183  0.00  0.00    +0.000 C 
BRANCH  17  18
ATOM     18  C   UNL     1       1.558   8.925  19.835  0.00  0.00    +0.000 A 
ATOM     19  C   UNL     1       1.977   8.641  18.534  0.00  0.00    +0.000 A 
ATOM     20  C   UNL     1       2.302   7.330  18.169  0.00  0.00    +0.000 A 
ATOM     21  C   UNL     1       2.254   6.266  19.092  0.00  0.00    +0.000 A 
ATOM     22  C   UNL     1       1.943   6.594  20.422  0.00  0.00    +0.000 A 
ATOM     23  C   UNL     1       1.594   7.897  20.778  0.00  0.00    +0.000 A 
ATOM     24  F   UNL     1       1.221   8.134  22.044  0.00  0.00    +0.000 F 
BRANCH  21  25
ATOM     25  C   UNL     1       2.453   4.858  18.663  0.00  0.00    +0.000 A 
ATOM     26  C   UNL     1       3.584   4.463  17.925  0.00  0.00    +0.000 A 
ATOM     27  C   UNL     1       3.733   3.152  17.458  0.00  0.00    +0.000 A 
ATOM     28  C   UNL     1       2.763   2.196  17.736  0.00  0.00    +0.000 A 
ATOM     29  C   UNL     1       1.643   2.550  18.479  0.00  0.00    +0.000 A 
ATOM     30  C   UNL     1       1.489   3.865  18.930  0.00  0.00    +0.000 A 
ENDBRANCH  21  25
ENDBRANCH  17  18
ENDBRANCH   9  17
TORSDOF 5
ENDMDL
MODEL 5
REMARK VINA RESULT:      -8.1      0.932      1.129
REMARK  Name = 
REMARK  5 active torsions:
REMARK  status: ('A' for Active; 'I' for Inactive)
REMARK    1  A    between atoms: N_2  and  C_4
REMARK    2  A    between atoms: C_10  and  O_11
REMARK    3  A    between atoms: N_13  and  C_14
REMARK    4  A    between atoms: C_14  and  C_15
REMARK    5  A    between atoms: C_18  and  C_19
REMARK                            x       y       z     vdW  Elec       q    Type
REMARK                         _______ _______ _______ _____ _____    ______ ____
ROOT
ATOM      1  C   UNL     1      -5.242  13.042  20.019  0.00  0.00    +0.000 A 
ATOM      2  C   UNL     1      -5.529  12.199  18.941  0.00  0.00    +0.000 A 
ATOM      3  C   UNL     1      -4.481  11.585  18.261  0.00  0.00    +0.000 A 
ATOM      4  C   UNL     1      -3.149  11.791  18.661  0.00  0.00    +0.000 A 
ATOM      5  C   UNL     1      -2.855  12.646  19.740  0.00  0.00    +0.000 A 
ATOM      6  C   UNL     1      -3.916  13.282  20.410  0.00  0.00    +0.000 A 
ATOM      7  C   UNL     1      -1.434  12.825  20.237  0.00  0.00    +0.000 C 
ATOM      8  C   UNL     1      -0.812  11.512  20.788  0.00  0.00    +0.000 C 
ATOM      9  N   UNL     1      -0.329  10.510  19.796  0.00  0.00    +0.000 NA
ATOM     10  C   UNL     1      -1.417  10.001  18.924  0.00  0.00    +0.000 C 
ATOM     11  C   UNL     1      -2.052  11.022  17.972  0.00  0.00    +0.000 C 
ENDROOT
BRANCH   1  13
ATOM     12  O   UNL     1      -6.069  14.486  21.641  0.00  0.00    +0.000 OA
ATOM     13  N   UNL     1      -6.347  13.645  20.774  0.00  0.00    +0.000 N 
ATOM     14  O   UNL     1      -7.502  13.291  20.488  0.00  0.00    +0.000 OA
ENDBRANCH   1  13
BRANCH   7  15
ATOM     15  O   UNL     1      -0.617  13.406  19.221  0.00  0.00    +0.000 OA
ATOM     16  H   UNL     1      -0.920  14.328  19.133  0.00  0.00    +0.000 HD
ENDBRANCH   7  15
BRANCH   9  17
ATOM     17  C   UNL     1       0.265   9.368  20.561  0.00  0.00    +0.000 C 
BRANCH  17  18
ATOM     18  C   UNL     1       1.358   8.643  19.809  0.00  0.00    +0.000 A 
ATOM     19  C   UNL     1       1.783   9.087  18.556  0.00  0.00    +0.000 A 
ATOM     20  C   UNL     1       2.616   8.284  17.768  0.00  0.00    +0.000 A 
ATOM     21  C   UNL     1       3.081   7.030  18.215  0.00  0.00    +0.000 A 
ATOM     22  C   UNL     1       2.737   6.656  19.524  0.00  0.00    +0.000 A 
ATOM     23  C   UNL     1       1.885   7.446  20.297  0.00  0.00    +0.000 A 
ATOM     24  F   UNL     1       1.520   6.996  21.506  0.00  0.00    +0.000 F 
BRANCH  21  25
ATOM     25  C   UNL     1       3.838   6.121  17.318  0.00  0.00    +0.000 A 
ATOM     26  C   UNL     1       3.729   4.722  17.419  0.00  0.00    +0.000 A 
ATOM     27  C   UNL     1       4.501   3.868  16.622  0.00  0.00    +0.000 A 
ATOM     28  C   UNL     1       5.386   4.392  15.688  0.00  0.00    +0.000 A 
ATOM     29  C   UNL     1       5.503   5.770  15.551  0.00  0.00    +0.000 A 
ATOM     30  C   UNL     1       4.743   6.621  16.360  0.00  0.00    +0.000 A 
ENDBRANCH  21  25
ENDBRANCH  17  18
ENDBRANCH   9  17
TORSDOF 5
ENDMDL
MODEL 6
REMARK VINA RESULT:      -7.8      2.235      2.824
REMARK  Name = 
REMARK  5 active torsions:
REMARK  status: ('A' for Active; 'I' for Inactive)
REMARK    1  A    between atoms: N_2  and  C_4
REMARK    2  A    between atoms: C_10  and  O_11
REMARK    3  A    between atoms: N_13  and  C_14
REMARK    4  A    between atoms: C_14  and  C_15
REMARK    5  A    between atoms: C_18  and  C_19
REMARK                            x       y       z     vdW  Elec       q    Type
REMARK                         _______ _______ _______ _____ _____    ______ ____
ROOT
ATOM      1  C   UNL     1      -3.760  12.695  22.083  0.00  0.00    +0.000 A 
ATOM      2  C   UNL     1      -4.072  12.756  20.722  0.00  0.00    +0.000 A 
ATOM      3  C   UNL     1      -3.110  12.383  19.786  0.00  0.00    +0.000 A 
ATOM      4  C   UNL     1      -1.844  11.934  20.201  0.00  0.00    +0.000 A 
ATOM      5  C   UNL     1      -1.522  11.880  21.570  0.00  0.00    +0.000 A 
ATOM      6  C   UNL     1      -2.490  12.278  22.510  0.00  0.00    +0.000 A 
ATOM      7  C   UNL     1      -0.192  11.328  22.044  0.00  0.00    +0.000 C 
ATOM      8  C   UNL     1       0.006   9.828  21.686  0.00  0.00    +0.000 C 
ATOM      9  N   UNL     1       0.380   9.500  20.281  0.00  0.00    +0.000 NA
ATOM     10  C   UNL     1      -0.653   9.922  19.302  0.00  0.00    +0.000 C 
ATOM     11  C   UNL     1      -0.873  11.434  19.164  0.00  0.00    +0.000 C 
ENDROOT
BRANCH   1  13
ATOM     12  O   UNL     1      -4.520  13.893  23.925  0.00  0.00    +0.000 OA
ATOM     13  N   UNL     1      -4.789  13.032  23.073  0.00  0.00    +0.000 N 
ATOM     14  O   UNL     1      -5.882  12.448  22.991  0.00  0.00    +0.000 OA
ENDBRANCH   1  13
BRANCH   7  15
ATOM     15  O   UNL     1       0.884  12.129  21.559  0.00  0.00    +0.000 OA
ATOM     16  H   UNL     1       1.144  11.736  20.706  0.00  0.00    +0.000 HD
ENDBRANCH   7  15
BRANCH   9  17
ATOM     17  C   UNL     1       0.561   8.015  20.198  0.00  0.00    +0.000 C 
BRANCH  17  18
ATOM     18  C   UNL     1       1.862   7.602  19.550  0.00  0.00    +0.000 A 
ATOM     19  C   UNL     1       2.367   8.294  18.448  0.00  0.00    +0.000 A 
ATOM     20  C   UNL     1       3.436   7.767  17.714  0.00  0.00    +0.000 A 
ATOM     21  C   UNL     1       4.058   6.554  18.071  0.00  0.00    +0.000 A 
ATOM     22  C   UNL     1       3.612   5.935  19.250  0.00  0.00    +0.000 A 
ATOM     23  C   UNL     1       2.529   6.448  19.965  0.00  0.00    +0.000 A 
ATOM     24  F   UNL     1       2.090   5.767  21.033  0.00  0.00    +0.000 F 
BRANCH  21  25
ATOM     25  C   UNL     1       5.088   5.928  17.203  0.00  0.00    +0.000 A 
ATOM     26  C   UNL     1       4.997   5.967  15.800  0.00  0.00    +0.000 A 
ATOM     27  C   UNL     1       5.930   5.312  14.987  0.00  0.00    +0.000 A 
ATOM     28  C   UNL     1       6.990   4.618  15.557  0.00  0.00    +0.000 A 
ATOM     29  C   UNL     1       7.118   4.576  16.941  0.00  0.00    +0.000 A 
ATOM     30  C   UNL     1       6.176   5.218  17.751  0.00  0.00    +0.000 A 
ENDBRANCH  21  25
ENDBRANCH  17  18
ENDBRANCH   9  17
TORSDOF 5
ENDMDL
MODEL 7
REMARK VINA RESULT:      -7.8      1.298      1.821
REMARK  Name = 
REMARK  5 active torsions:
REMARK  status: ('A' for Active; 'I' for Inactive)
REMARK    1  A    between atoms: N_2  and  C_4
REMARK    2  A    between atoms: C_10  and  O_11
REMARK    3  A    between atoms: N_13  and  C_14
REMARK    4  A    between atoms: C_14  and  C_15
REMARK    5  A    between atoms: C_18  and  C_19
REMARK                            x       y       z     vdW  Elec       q    Type
REMARK                         _______ _______ _______ _____ _____    ______ ____
ROOT
ATOM      1  C   UNL     1      -5.331  12.290  19.566  0.00  0.00    +0.000 A 
ATOM      2  C   UNL     1      -5.536  11.253  18.651  0.00  0.00    +0.000 A 
ATOM      3  C   UNL     1      -4.445  10.722  17.969  0.00  0.00    +0.000 A 
ATOM      4  C   UNL     1      -3.146  11.206  18.207  0.00  0.00    +0.000 A 
ATOM      5  C   UNL     1      -2.936  12.257  19.120  0.00  0.00    +0.000 A 
ATOM      6  C   UNL     1      -4.045  12.805  19.790  0.00  0.00    +0.000 A 
ATOM      7  C   UNL     1      -1.538  12.744  19.450  0.00  0.00    +0.000 C 
ATOM      8  C   UNL     1      -0.657  11.655  20.121  0.00  0.00    +0.000 C 
ATOM      9  N   UNL     1      -0.073  10.604  19.240  0.00  0.00    +0.000 NA
ATOM     10  C   UNL     1      -1.110   9.791  18.557  0.00  0.00    +0.000 C 
ATOM     11  C   UNL     1      -1.981  10.531  17.534  0.00  0.00    +0.000 C 
ENDROOT
BRANCH   1  13
ATOM     12  O   UNL     1      -7.611  12.486  19.970  0.00  0.00    +0.000 OA
ATOM     13  N   UNL     1      -6.470  12.813  20.329  0.00  0.00    +0.000 N 
ATOM     14  O   UNL     1      -6.227  13.541  21.304  0.00  0.00    +0.000 OA
ENDBRANCH   1  13
BRANCH   7  15
ATOM     15  O   UNL     1      -0.910  13.286  18.288  0.00  0.00    +0.000 OA
ATOM     16  H   UNL     1      -0.409  14.063  18.596  0.00  0.00    +0.000 HD
ENDBRANCH   7  15
BRANCH   9  17
ATOM     17  C   UNL     1       0.767   9.710  20.100  0.00  0.00    +0.000 C 
BRANCH  17  18
ATOM     18  C   UNL     1       1.594   8.720  19.313  0.00  0.00    +0.000 A 
ATOM     19  C   UNL     1       1.810   7.425  19.789  0.00  0.00    +0.000 A 
ATOM     20  C   UNL     1       2.762   6.600  19.181  0.00  0.00    +0.000 A 
ATOM     21  C   UNL     1       3.505   7.020  18.060  0.00  0.00    +0.000 A 
ATOM     22  C   UNL     1       3.189   8.280  17.526  0.00  0.00    +0.000 A 
ATOM     23  C   UNL     1       2.258   9.112  18.150  0.00  0.00    +0.000 A 
ATOM     24  F   UNL     1       2.061  10.338  17.646  0.00  0.00    +0.000 F 
BRANCH  21  25
ATOM     25  C   UNL     1       4.616   6.199  17.515  0.00  0.00    +0.000 A 
ATOM     26  C   UNL     1       4.959   6.232  16.151  0.00  0.00    +0.000 A 
ATOM     27  C   UNL     1       5.957   5.401  15.626  0.00  0.00    +0.000 A 
ATOM     28  C   UNL     1       6.652   4.532  16.458  0.00  0.00    +0.000 A 
ATOM     29  C   UNL     1       6.349   4.489  17.814  0.00  0.00    +0.000 A 
ATOM     30  C   UNL     1       5.341   5.308  18.332  0.00  0.00    +0.000 A 
ENDBRANCH  21  25
ENDBRANCH  17  18
ENDBRANCH   9  17
TORSDOF 5
ENDMDL
MODEL 8
REMARK VINA RESULT:      -7.8      1.490      2.104
REMARK  Name = 
REMARK  5 active torsions:
REMARK  status: ('A' for Active; 'I' for Inactive)
REMARK    1  A    between atoms: N_2  and  C_4
REMARK    2  A    between atoms: C_10  and  O_11
REMARK    3  A    between atoms: N_13  and  C_14
REMARK    4  A    between atoms: C_14  and  C_15
REMARK    5  A    between atoms: C_18  and  C_19
REMARK                            x       y       z     vdW  Elec       q    Type
REMARK                         _______ _______ _______ _____ _____    ______ ____
ROOT
ATOM      1  C   UNL     1      -5.453  11.737  19.427  0.00  0.00    +0.000 A 
ATOM      2  C   UNL     1      -5.340  10.737  18.457  0.00  0.00    +0.000 A 
ATOM      3  C   UNL     1      -4.096  10.481  17.886  0.00  0.00    +0.000 A 
ATOM      4  C   UNL     1      -2.960  11.204  18.290  0.00  0.00    +0.000 A 
ATOM      5  C   UNL     1      -3.071  12.218  19.260  0.00  0.00    +0.000 A 
ATOM      6  C   UNL     1      -4.334  12.488  19.818  0.00  0.00    +0.000 A 
ATOM      7  C   UNL     1      -1.849  12.959  19.767  0.00  0.00    +0.000 C 
ATOM      8  C   UNL     1      -0.835  12.033  20.495  0.00  0.00    +0.000 C 
ATOM      9  N   UNL     1       0.046  11.178  19.649  0.00  0.00    +0.000 NA
ATOM     10  C   UNL     1      -0.721  10.214  18.821  0.00  0.00    +0.000 C 
ATOM     11  C   UNL     1      -1.615  10.822  17.732  0.00  0.00    +0.000 C 
ENDROOT
BRANCH   1  13
ATOM     12  O   UNL     1      -7.619  12.581  19.430  0.00  0.00    +0.000 OA
ATOM     13  N   UNL     1      -6.751  11.970  20.071  0.00  0.00    +0.000 N 
ATOM     14  O   UNL     1      -6.913  11.525  21.219  0.00  0.00    +0.000 OA
ENDBRANCH   1  13
BRANCH   7  15
ATOM     15  O   UNL     1      -1.229  13.686  18.707  0.00  0.00    +0.000 OA
ATOM     16  H   UNL     1      -1.235  14.620  18.987  0.00  0.00    +0.000 HD
ENDBRANCH   7  15
BRANCH   9  17
ATOM     17  C   UNL     1       0.958  10.424  20.566  0.00  0.00    +0.000 C 
BRANCH  17  18
ATOM     18  C   UNL     1       1.241   9.012  20.107  0.00  0.00    +0.000 A 
ATOM     19  C   UNL     1       0.934   7.918  20.919  0.00  0.00    +0.000 A 
ATOM     20  C   UNL     1       1.411   6.643  20.595  0.00  0.00    +0.000 A 
ATOM     21  C   UNL     1       2.180   6.408  19.437  0.00  0.00    +0.000 A 
ATOM     22  C   UNL     1       2.378   7.499  18.575  0.00  0.00    +0.000 A 
ATOM     23  C   UNL     1       1.923   8.774  18.913  0.00  0.00    +0.000 A 
ATOM     24  F   UNL     1       2.217   9.794  18.095  0.00  0.00    +0.000 F 
BRANCH  21  25
ATOM     25  C   UNL     1       2.808   5.087  19.180  0.00  0.00    +0.000 A 
ATOM     26  C   UNL     1       2.925   4.114  20.189  0.00  0.00    +0.000 A 
ATOM     27  C   UNL     1       3.583   2.900  19.963  0.00  0.00    +0.000 A 
ATOM     28  C   UNL     1       4.123   2.619  18.714  0.00  0.00    +0.000 A 
ATOM     29  C   UNL     1       4.008   3.552  17.690  0.00  0.00    +0.000 A 
ATOM     30  C   UNL     1       3.364   4.771  17.924  0.00  0.00    +0.000 A 
ENDBRANCH  21  25
ENDBRANCH  17  18
ENDBRANCH   9  17
TORSDOF 5
ENDMDL
MODEL 9
REMARK VINA RESULT:      -7.8      7.321      9.610
REMARK  Name = 
REMARK  5 active torsions:
REMARK  status: ('A' for Active; 'I' for Inactive)
REMARK    1  A    between atoms: N_2  and  C_4
REMARK    2  A    between atoms: C_10  and  O_11
REMARK    3  A    between atoms: N_13  and  C_14
REMARK    4  A    between atoms: C_14  and  C_15
REMARK    5  A    between atoms: C_18  and  C_19
REMARK                            x       y       z     vdW  Elec       q    Type
REMARK                         _______ _______ _______ _____ _____    ______ ____
ROOT
ATOM      1  C   UNL     1       2.355   2.896  20.226  0.00  0.00    +0.000 A 
ATOM      2  C   UNL     1       2.450   1.956  19.195  0.00  0.00    +0.000 A 
ATOM      3  C   UNL     1       2.899   2.365  17.942  0.00  0.00    +0.000 A 
ATOM      4  C   UNL     1       3.270   3.702  17.715  0.00  0.00    +0.000 A 
ATOM      5  C   UNL     1       3.167   4.654  18.747  0.00  0.00    +0.000 A 
ATOM      6  C   UNL     1       2.692   4.240  20.005  0.00  0.00    +0.000 A 
ATOM      7  C   UNL     1       3.633   6.083  18.549  0.00  0.00    +0.000 C 
ATOM      8  C   UNL     1       5.157   6.192  18.267  0.00  0.00    +0.000 C 
ATOM      9  N   UNL     1       5.627   5.858  16.892  0.00  0.00    +0.000 NA
ATOM     10  C   UNL     1       5.338   4.451  16.517  0.00  0.00    +0.000 C 
ATOM     11  C   UNL     1       3.856   4.080  16.380  0.00  0.00    +0.000 C 
ENDROOT
BRANCH   1  13
ATOM     12  O   UNL     1       0.725   2.462  21.825  0.00  0.00    +0.000 OA
ATOM     13  N   UNL     1       1.937   2.457  21.563  0.00  0.00    +0.000 N 
ATOM     14  O   UNL     1       2.822   2.088  22.351  0.00  0.00    +0.000 OA
ENDBRANCH   1  13
BRANCH   7  15
ATOM     15  O   UNL     1       2.863   6.724  17.533  0.00  0.00    +0.000 OA
ATOM     16  H   UNL     1       3.162   6.336  16.690  0.00  0.00    +0.000 HD
ENDBRANCH   7  15
BRANCH   9  17
ATOM     17  C   UNL     1       7.107   6.084  16.854  0.00  0.00    +0.000 C 
BRANCH  17  18
ATOM     18  C   UNL     1       7.542   7.344  17.566  0.00  0.00    +0.000 A 
ATOM     19  C   UNL     1       7.285   8.603  17.020  0.00  0.00    +0.000 A 
ATOM     20  C   UNL     1       7.893   9.743  17.558  0.00  0.00    +0.000 A 
ATOM     21  C   UNL     1       8.749   9.673  18.675  0.00  0.00    +0.000 A 
ATOM     22  C   UNL     1       8.901   8.414  19.280  0.00  0.00    +0.000 A 
ATOM     23  C   UNL     1       8.314   7.276  18.727  0.00  0.00    +0.000 A 
ATOM     24  F   UNL     1       8.565   6.088  19.296  0.00  0.00    +0.000 F 
BRANCH  21  25
ATOM     25  C   UNL     1       9.506  10.860  19.146  0.00  0.00    +0.000 A 
ATOM     26  C   UNL     1      10.034  11.805  18.248  0.00  0.00    +0.000 A 
ATOM     27  C   UNL     1      10.811  12.883  18.690  0.00  0.00    +0.000 A 
ATOM     28  C   UNL     1      11.061  13.054  20.046  0.00  0.00    +0.000 A 
ATOM     29  C   UNL     1      10.538  12.149  20.961  0.00  0.00    +0.000 A 
ATOM     30  C   UNL     1       9.776  11.064  20.515  0.00  0.00    +0.000 A 
ENDBRANCH  21  25
ENDBRANCH  17  18
ENDBRANCH   9  17
TORSDOF 5
ENDMDL
