MODEL 1
REMARK VINA RESULT:      -8.5      0.000      0.000
REMARK  Name = 
REMARK  12 active torsions:
REMARK  status: ('A' for Active; 'I' for Inactive)
REMARK    1  A    between atoms: C_2  and  C_3
REMARK    2  A    between atoms: C_3  and  C_4
REMARK    3  A    between atoms: C_4  and  C_5
REMARK    4  A    between atoms: C_5  and  C_6
REMARK    5  A    between atoms: C_6  and  C_7
REMARK    6  A    between atoms: C_7  and  C_8
REMARK    7  A    between atoms: C_8  and  C_9
REMARK    8  A    between atoms: C_9  and  O_10
REMARK    9  A    between atoms: O_10  and  C_11
REMARK   10  A    between atoms: C_15  and  C_16
REMARK   11  A    between atoms: C_21  and  C_22
REMARK   12  A    between atoms: N_35  and  O_36
REMARK                            x       y       z     vdW  Elec       q    Type
REMARK                         _______ _______ _______ _____ _____    ______ ____
ROOT
ATOM      1  C   UNL     1       5.283   5.133  18.353  0.00  0.00    +0.000 A 
ATOM      2  C   UNL     1       4.869   3.884  18.812  0.00  0.00    +0.000 A 
ATOM      3  C   UNL     1       3.673   3.760  19.508  0.00  0.00    +0.000 A 
ATOM      4  C   UNL     1       2.877   4.889  19.722  0.00  0.00    +0.000 A 
ATOM      5  C   UNL     1       3.255   6.158  19.246  0.00  0.00    +0.000 A 
ATOM      6  C   UNL     1       4.479   6.263  18.564  0.00  0.00    +0.000 A 
ENDROOT
BRANCH   5   7
ATOM      7  C   UNL     1       2.328   7.293  19.421  0.00  0.00    +0.000 A 
ATOM      8  N   UNL     1       1.932   8.101  18.451  0.00  0.00    +0.000 NA
ATOM      9  C   UNL     1       1.201   9.098  19.044  0.00  0.00    +0.000 A 
ATOM     10  C   UNL     1       0.599  10.226  18.473  0.00  0.00    +0.000 A 
ATOM     11  C   UNL     1      -0.065  11.143  19.308  0.00  0.00    +0.000 A 
ATOM     12  C   UNL     1      -0.144  10.957  20.699  0.00  0.00    +0.000 A 
ATOM     13  C   UNL     1       0.440   9.800  21.267  0.00  0.00    +0.000 A 
ATOM     14  C   UNL     1       1.103   8.900  20.412  0.00  0.00    +0.000 A 
ATOM     15  N   UNL     1       1.773   7.714  20.617  0.00  0.00    +0.000 N 
ATOM     16  H   UNL     1       1.880   7.257  21.508  0.00  0.00    +0.000 HD
BRANCH  12  17
ATOM     17  C   UNL     1      -0.837  11.931  21.574  0.00  0.00    +0.000 A 
ATOM     18  N   UNL     1      -0.258  12.820  22.367  0.00  0.00    +0.000 NA
ATOM     19  C   UNL     1      -1.270  13.450  23.056  0.00  0.00    +0.000 A 
ATOM     20  C   UNL     1      -1.212  14.452  24.037  0.00  0.00    +0.000 A 
ATOM     21  C   UNL     1      -2.403  14.887  24.636  0.00  0.00    +0.000 A 
ATOM     22  C   UNL     1      -3.632  14.342  24.257  0.00  0.00    +0.000 A 
ATOM     23  C   UNL     1      -3.715  13.366  23.256  0.00  0.00    +0.000 A 
ATOM     24  C   UNL     1      -2.508  12.946  22.683  0.00  0.00    +0.000 A 
ATOM     25  N   UNL     1      -2.211  12.040  21.696  0.00  0.00    +0.000 N 
ATOM     26  H   UNL     1      -2.893  11.516  21.172  0.00  0.00    +0.000 HD
ENDBRANCH  12  17
ENDBRANCH   5   7
BRANCH   1  27
ATOM     27  O   UNL     1       6.444   5.132  17.624  0.00  0.00    +0.000 OA
BRANCH  27  28
ATOM     28  C   UNL     1       7.662   5.196  18.369  0.00  0.00    +0.000 C 
BRANCH  28  29
ATOM     29  C   UNL     1       7.985   6.665  18.661  0.00  0.00    +0.000 C 
BRANCH  29  30
ATOM     30  C   UNL     1       7.623   7.614  17.512  0.00  0.00    +0.000 C 
BRANCH  30  31
ATOM     31  C   UNL     1       8.041   9.066  17.764  0.00  0.00    +0.000 C 
BRANCH  31  32
ATOM     32  C   UNL     1       8.924   9.231  19.005  0.00  0.00    +0.000 C 
BRANCH  32  33
ATOM     33  C   UNL     1       9.557  10.619  19.166  0.00  0.00    +0.000 C 
BRANCH  33  34
ATOM     34  C   UNL     1       9.109  11.612  18.096  0.00  0.00    +0.000 C 
BRANCH  34  36
ATOM     35  O   UNL     1      11.441  11.949  17.576  0.00  0.00    +0.000 OA
ATOM     36  C   UNL     1      10.287  12.373  17.541  0.00  0.00    +0.000 C 
ATOM     37  N   UNL     1       9.959  13.571  16.952  0.00  0.00    +0.000 N 
ATOM     38  H   UNL     1       9.094  14.066  17.152  0.00  0.00    +0.000 HD
BRANCH  37  39
ATOM     39  O   UNL     1      11.053  14.359  16.521  0.00  0.00    +0.000 OA
ATOM     40  H   UNL     1      11.411  14.702  17.370  0.00  0.00    +0.000 HD
ENDBRANCH  37  39
ENDBRANCH  34  36
ENDBRANCH  33  34
ENDBRANCH  32  33
ENDBRANCH  31  32
ENDBRANCH  30  31
ENDBRANCH  29  30
ENDBRANCH  28  29
ENDBRANCH  27  28
ENDBRANCH   1  27
TORSDOF 12
ENDMDL
MODEL 2
REMARK VINA RESULT:      -8.2      1.103      1.262
REMARK  Name = 
REMARK  12 active torsions:
REMARK  status: ('A' for Active; 'I' for Inactive)
REMARK    1  A    between atoms: C_2  and  C_3
REMARK    2  A    between atoms: C_3  and  C_4
REMARK    3  A    between atoms: C_4  and  C_5
REMARK    4  A    between atoms: C_5  and  C_6
REMARK    5  A    between atoms: C_6  and  C_7
REMARK    6  A    between atoms: C_7  and  C_8
REMARK    7  A    between atoms: C_8  and  C_9
REMARK    8  A    between atoms: C_9  and  O_10
REMARK    9  A    between atoms: O_10  and  C_11
REMARK   10  A    between atoms: C_15  and  C_16
REMARK   11  A    between atoms: C_21  and  C_22
REMARK   12  A    between atoms: N_35  and  O_36
REMARK                            x       y       z     vdW  Elec       q    Type
REMARK                         _______ _______ _______ _____ _____    ______ ____
ROOT
ATOM      1  C   UNL     1       4.884   5.489  17.842  0.00  0.00    +0.000 A 
ATOM      2  C   UNL     1       4.180   4.351  17.453  0.00  0.00    +0.000 A 
ATOM      3  C   UNL     1       2.792   4.337  17.515  0.00  0.00    +0.000 A 
ATOM      4  C   UNL     1       2.107   5.477  17.944  0.00  0.00    +0.000 A 
ATOM      5  C   UNL     1       2.789   6.650  18.316  0.00  0.00    +0.000 A 
ATOM      6  C   UNL     1       4.193   6.634  18.266  0.00  0.00    +0.000 A 
ENDROOT
BRANCH   5   7
ATOM      7  C   UNL     1       2.007   7.851  18.670  0.00  0.00    +0.000 A 
ATOM      8  N   UNL     1       1.691   8.822  17.827  0.00  0.00    +0.000 NA
ATOM      9  C   UNL     1       1.096   9.808  18.571  0.00  0.00    +0.000 A 
ATOM     10  C   UNL     1       0.621  11.064  18.173  0.00  0.00    +0.000 A 
ATOM     11  C   UNL     1       0.088  11.932  19.143  0.00  0.00    +0.000 A 
ATOM     12  C   UNL     1       0.014  11.573  20.500  0.00  0.00    +0.000 A 
ATOM     13  C   UNL     1       0.468  10.291  20.892  0.00  0.00    +0.000 A 
ATOM     14  C   UNL     1       1.002   9.442  19.903  0.00  0.00    +0.000 A 
ATOM     15  N   UNL     1       1.530   8.170  19.929  0.00  0.00    +0.000 N 
ATOM     16  H   UNL     1       1.600   7.589  20.749  0.00  0.00    +0.000 HD
BRANCH  12  17
ATOM     17  C   UNL     1      -0.540  12.495  21.518  0.00  0.00    +0.000 A 
ATOM     18  N   UNL     1       0.088  13.524  22.066  0.00  0.00    +0.000 NA
ATOM     19  C   UNL     1      -0.763  14.043  23.016  0.00  0.00    +0.000 A 
ATOM     20  C   UNL     1      -0.585  15.118  23.901  0.00  0.00    +0.000 A 
ATOM     21  C   UNL     1      -1.597  15.410  24.827  0.00  0.00    +0.000 A 
ATOM     22  C   UNL     1      -2.769  14.651  24.865  0.00  0.00    +0.000 A 
ATOM     23  C   UNL     1      -2.980  13.596  23.968  0.00  0.00    +0.000 A 
ATOM     24  C   UNL     1      -1.948  13.324  23.061  0.00  0.00    +0.000 A 
ATOM     25  N   UNL     1      -1.811  12.398  22.057  0.00  0.00    +0.000 N 
ATOM     26  H   UNL     1      -2.517  11.733  21.787  0.00  0.00    +0.000 HD
ENDBRANCH  12  17
ENDBRANCH   5   7
BRANCH   1  27
ATOM     27  O   UNL     1       6.243   5.418  17.680  0.00  0.00    +0.000 OA
BRANCH  27  28
ATOM     28  C   UNL     1       6.862   6.520  17.013  0.00  0.00    +0.000 C 
BRANCH  28  29
ATOM     29  C   UNL     1       7.739   7.276  18.016  0.00  0.00    +0.000 C 
BRANCH  29  30
ATOM     30  C   UNL     1       7.903   8.766  17.689  0.00  0.00    +0.000 C 
BRANCH  30  31
ATOM     31  C   UNL     1       8.704   9.538  18.742  0.00  0.00    +0.000 C 
BRANCH  31  32
ATOM     32  C   UNL     1       9.211  10.892  18.237  0.00  0.00    +0.000 C 
BRANCH  32  33
ATOM     33  C   UNL     1      10.544  11.348  18.844  0.00  0.00    +0.000 C 
BRANCH  33  34
ATOM     34  C   UNL     1      11.531  11.873  17.803  0.00  0.00    +0.000 C 
BRANCH  34  36
ATOM     35  O   UNL     1      11.158  14.171  18.438  0.00  0.00    +0.000 OA
ATOM     36  C   UNL     1      11.306  13.342  17.542  0.00  0.00    +0.000 C 
ATOM     37  N   UNL     1      11.321  13.687  16.212  0.00  0.00    +0.000 N 
ATOM     38  H   UNL     1      11.159  13.017  15.465  0.00  0.00    +0.000 HD
BRANCH  37  39
ATOM     39  O   UNL     1      11.003  15.037  15.928  0.00  0.00    +0.000 OA
ATOM     40  H   UNL     1      11.211  15.484  16.778  0.00  0.00    +0.000 HD
ENDBRANCH  37  39
ENDBRANCH  34  36
ENDBRANCH  33  34
ENDBRANCH  32  33
ENDBRANCH  31  32
ENDBRANCH  30  31
ENDBRANCH  29  30
ENDBRANCH  28  29
ENDBRANCH  27  28
ENDBRANCH   1  27
TORSDOF 12
ENDMDL
MODEL 3
REMARK VINA RESULT:      -7.9      3.617      4.763
REMARK  Name = 
REMARK  12 active torsions:
REMARK  status: ('A' for Active; 'I' for Inactive)
REMARK    1  A    between atoms: C_2  and  C_3
REMARK    2  A    between atoms: C_3  and  C_4
REMARK    3  A    between atoms: C_4  and  C_5
REMARK    4  A    between atoms: C_5  and  C_6
REMARK    5  A    between atoms: C_6  and  C_7
REMARK    6  A    between atoms: C_7  and  C_8
REMARK    7  A    between atoms: C_8  and  C_9
REMARK    8  A    between atoms: C_9  and  O_10
REMARK    9  A    between atoms: O_10  and  C_11
REMARK   10  A    between atoms: C_15  and  C_16
REMARK   11  A    between atoms: C_21  and  C_22
REMARK   12  A    between atoms: N_35  and  O_36
REMARK                            x       y       z     vdW  Elec       q    Type
REMARK                         _______ _______ _______ _____ _____    ______ ____
ROOT
ATOM      1  C   UNL     1       4.573   4.464  18.999  0.00  0.00    +0.000 A 
ATOM      2  C   UNL     1       3.930   3.827  17.938  0.00  0.00    +0.000 A 
ATOM      3  C   UNL     1       2.676   4.259  17.525  0.00  0.00    +0.000 A 
ATOM      4  C   UNL     1       2.075   5.348  18.162  0.00  0.00    +0.000 A 
ATOM      5  C   UNL     1       2.711   6.028  19.217  0.00  0.00    +0.000 A 
ATOM      6  C   UNL     1       3.969   5.561  19.631  0.00  0.00    +0.000 A 
ENDROOT
BRANCH   5   7
ATOM      7  C   UNL     1       2.068   7.229  19.785  0.00  0.00    +0.000 A 
ATOM      8  N   UNL     1       1.512   7.292  20.985  0.00  0.00    +0.000 NA
ATOM      9  C   UNL     1       0.907   8.520  21.073  0.00  0.00    +0.000 A 
ATOM     10  C   UNL     1       0.144   9.067  22.111  0.00  0.00    +0.000 A 
ATOM     11  C   UNL     1      -0.420  10.345  21.944  0.00  0.00    +0.000 A 
ATOM     12  C   UNL     1      -0.235  11.091  20.766  0.00  0.00    +0.000 A 
ATOM     13  C   UNL     1       0.563  10.544  19.733  0.00  0.00    +0.000 A 
ATOM     14  C   UNL     1       1.112   9.262  19.921  0.00  0.00    +0.000 A 
ATOM     15  N   UNL     1       1.904   8.446  19.145  0.00  0.00    +0.000 N 
ATOM     16  H   UNL     1       2.264   8.683  18.234  0.00  0.00    +0.000 HD
BRANCH  12  17
ATOM     17  C   UNL     1      -0.838  12.432  20.594  0.00  0.00    +0.000 A 
ATOM     18  N   UNL     1      -0.237  13.501  20.095  0.00  0.00    +0.000 NA
ATOM     19  C   UNL     1      -1.133  14.542  20.201  0.00  0.00    +0.000 A 
ATOM     20  C   UNL     1      -0.999  15.894  19.848  0.00  0.00    +0.000 A 
ATOM     21  C   UNL     1      -2.054  16.775  20.121  0.00  0.00    +0.000 A 
ATOM     22  C   UNL     1      -3.227  16.317  20.725  0.00  0.00    +0.000 A 
ATOM     23  C   UNL     1      -3.395  14.965  21.053  0.00  0.00    +0.000 A 
ATOM     24  C   UNL     1      -2.320  14.112  20.777  0.00  0.00    +0.000 A 
ATOM     25  N   UNL     1      -2.134  12.763  20.949  0.00  0.00    +0.000 N 
ATOM     26  H   UNL     1      -2.826  12.128  21.310  0.00  0.00    +0.000 HD
ENDBRANCH  12  17
ENDBRANCH   5   7
BRANCH   1  27
ATOM     27  O   UNL     1       5.831   4.001  19.282  0.00  0.00    +0.000 OA
BRANCH  27  28
ATOM     28  C   UNL     1       6.891   4.503  18.465  0.00  0.00    +0.000 C 
BRANCH  28  29
ATOM     29  C   UNL     1       7.543   5.692  19.177  0.00  0.00    +0.000 C 
BRANCH  29  30
ATOM     30  C   UNL     1       7.735   6.918  18.276  0.00  0.00    +0.000 C 
BRANCH  30  31
ATOM     31  C   UNL     1       6.643   7.072  17.213  0.00  0.00    +0.000 C 
BRANCH  31  32
ATOM     32  C   UNL     1       6.845   6.152  16.005  0.00  0.00    +0.000 C 
BRANCH  32  33
ATOM     33  C   UNL     1       5.566   5.817  15.228  0.00  0.00    +0.000 C 
BRANCH  33  34
ATOM     34  C   UNL     1       5.495   4.357  14.787  0.00  0.00    +0.000 C 
BRANCH  34  36
ATOM     35  O   UNL     1       7.286   4.884  13.259  0.00  0.00    +0.000 OA
ATOM     36  C   UNL     1       6.396   4.108  13.603  0.00  0.00    +0.000 C 
ATOM     37  N   UNL     1       6.167   2.915  12.960  0.00  0.00    +0.000 N 
ATOM     38  H   UNL     1       5.291   2.406  13.037  0.00  0.00    +0.000 HD
BRANCH  37  39
ATOM     39  O   UNL     1       6.920   2.703  11.781  0.00  0.00    +0.000 OA
ATOM     40  H   UNL     1       7.250   3.606  11.578  0.00  0.00    +0.000 HD
ENDBRANCH  37  39
ENDBRANCH  34  36
ENDBRANCH  33  34
ENDBRANCH  32  33
ENDBRANCH  31  32
ENDBRANCH  30  31
ENDBRANCH  29  30
ENDBRANCH  28  29
ENDBRANCH  27  28
ENDBRANCH   1  27
TORSDOF 12
ENDMDL
MODEL 4
REMARK VINA RESULT:      -7.9      3.717      5.268
REMARK  Name = 
REMARK  12 active torsions:
REMARK  status: ('A' for Active; 'I' for Inactive)
REMARK    1  A    between atoms: C_2  and  C_3
REMARK    2  A    between atoms: C_3  and  C_4
REMARK    3  A    between atoms: C_4  and  C_5
REMARK    4  A    between atoms: C_5  and  C_6
REMARK    5  A    between atoms: C_6  and  C_7
REMARK    6  A    between atoms: C_7  and  C_8
REMARK    7  A    between atoms: C_8  and  C_9
REMARK    8  A    between atoms: C_9  and  O_10
REMARK    9  A    between atoms: O_10  and  C_11
REMARK   10  A    between atoms: C_15  and  C_16
REMARK   11  A    between atoms: C_21  and  C_22
REMARK   12  A    between atoms: N_35  and  O_36
REMARK                            x       y       z     vdW  Elec       q    Type
REMARK                         _______ _______ _______ _____ _____    ______ ____
ROOT
ATOM      1  C   UNL     1       2.861   6.668  19.331  0.00  0.00    +0.000 A 
ATOM      2  C   UNL     1       3.240   7.064  18.049  0.00  0.00    +0.000 A 
ATOM      3  C   UNL     1       2.737   8.240  17.507  0.00  0.00    +0.000 A 
ATOM      4  C   UNL     1       1.871   9.035  18.264  0.00  0.00    +0.000 A 
ATOM      5  C   UNL     1       1.493   8.676  19.570  0.00  0.00    +0.000 A 
ATOM      6  C   UNL     1       1.997   7.472  20.089  0.00  0.00    +0.000 A 
ENDROOT
BRANCH   5   7
ATOM      7  C   UNL     1       0.652   9.604  20.353  0.00  0.00    +0.000 A 
ATOM      8  N   UNL     1       0.389   9.478  21.644  0.00  0.00    +0.000 NA
ATOM      9  C   UNL     1      -0.533  10.446  21.952  0.00  0.00    +0.000 A 
ATOM     10  C   UNL     1      -1.175  10.713  23.167  0.00  0.00    +0.000 A 
ATOM     11  C   UNL     1      -2.132  11.742  23.222  0.00  0.00    +0.000 A 
ATOM     12  C   UNL     1      -2.458  12.514  22.093  0.00  0.00    +0.000 A 
ATOM     13  C   UNL     1      -1.784  12.259  20.875  0.00  0.00    +0.000 A 
ATOM     14  C   UNL     1      -0.834  11.220  20.844  0.00  0.00    +0.000 A 
ATOM     15  N   UNL     1      -0.023  10.706  19.857  0.00  0.00    +0.000 N 
ATOM     16  H   UNL     1       0.030  11.051  18.912  0.00  0.00    +0.000 HD
BRANCH  12  17
ATOM     17  C   UNL     1      -3.473  13.591  22.155  0.00  0.00    +0.000 A 
ATOM     18  N   UNL     1      -3.236  14.893  22.106  0.00  0.00    +0.000 NA
ATOM     19  C   UNL     1      -4.448  15.520  22.286  0.00  0.00    +0.000 A 
ATOM     20  C   UNL     1      -4.761  16.887  22.345  0.00  0.00    +0.000 A 
ATOM     21  C   UNL     1      -6.085  17.270  22.602  0.00  0.00    +0.000 A 
ATOM     22  C   UNL     1      -7.082  16.310  22.787  0.00  0.00    +0.000 A 
ATOM     23  C   UNL     1      -6.797  14.942  22.697  0.00  0.00    +0.000 A 
ATOM     24  C   UNL     1      -5.465  14.590  22.448  0.00  0.00    +0.000 A 
ATOM     25  N   UNL     1      -4.834  13.381  22.290  0.00  0.00    +0.000 N 
ATOM     26  H   UNL     1      -5.294  12.486  22.306  0.00  0.00    +0.000 HD
ENDBRANCH  12  17
ENDBRANCH   5   7
BRANCH   1  27
ATOM     27  O   UNL     1       3.465   5.527  19.792  0.00  0.00    +0.000 OA
BRANCH  27  28
ATOM     28  C   UNL     1       2.627   4.379  19.936  0.00  0.00    +0.000 C 
BRANCH  28  29
ATOM     29  C   UNL     1       2.194   3.906  18.545  0.00  0.00    +0.000 C 
BRANCH  29  30
ATOM     30  C   UNL     1       2.855   2.592  18.109  0.00  0.00    +0.000 C 
BRANCH  30  31
ATOM     31  C   UNL     1       4.217   2.788  17.436  0.00  0.00    +0.000 C 
BRANCH  31  32
ATOM     32  C   UNL     1       4.360   4.152  16.752  0.00  0.00    +0.000 C 
BRANCH  32  33
ATOM     33  C   UNL     1       5.082   4.123  15.400  0.00  0.00    +0.000 C 
BRANCH  33  34
ATOM     34  C   UNL     1       6.571   3.804  15.519  0.00  0.00    +0.000 C 
BRANCH  34  36
ATOM     35  O   UNL     1       7.855   4.482  17.445  0.00  0.00    +0.000 OA
ATOM     36  C   UNL     1       7.265   4.800  16.415  0.00  0.00    +0.000 C 
ATOM     37  N   UNL     1       7.217   6.096  15.961  0.00  0.00    +0.000 N 
ATOM     38  H   UNL     1       6.523   6.423  15.294  0.00  0.00    +0.000 HD
BRANCH  37  39
ATOM     39  O   UNL     1       7.762   7.068  16.832  0.00  0.00    +0.000 OA
ATOM     40  H   UNL     1       7.686   6.630  17.709  0.00  0.00    +0.000 HD
ENDBRANCH  37  39
ENDBRANCH  34  36
ENDBRANCH  33  34
ENDBRANCH  32  33
ENDBRANCH  31  32
ENDBRANCH  30  31
ENDBRANCH  29  30
ENDBRANCH  28  29
ENDBRANCH  27  28
ENDBRANCH   1  27
TORSDOF 12
ENDMDL
MODEL 5
REMARK VINA RESULT:      -7.9      4.237      5.806
REMARK  Name = 
REMARK  12 active torsions:
REMARK  status: ('A' for Active; 'I' for Inactive)
REMARK    1  A    between atoms: C_2  and  C_3
REMARK    2  A    between atoms: C_3  and  C_4
REMARK    3  A    between atoms: C_4  and  C_5
REMARK    4  A    between atoms: C_5  and  C_6
REMARK    5  A    between atoms: C_6  and  C_7
REMARK    6  A    between atoms: C_7  and  C_8
REMARK    7  A    between atoms: C_8  and  C_9
REMARK    8  A    between atoms: C_9  and  O_10
REMARK    9  A    between atoms: O_10  and  C_11
REMARK   10  A    between atoms: C_15  and  C_16
REMARK   11  A    between atoms: C_21  and  C_22
REMARK   12  A    between atoms: N_35  and  O_36
REMARK                            x       y       z     vdW  Elec       q    Type
REMARK                         _______ _______ _______ _____ _____    ______ ____
ROOT
ATOM      1  C   UNL     1       3.218   4.715  18.800  0.00  0.00    +0.000 A 
ATOM      2  C   UNL     1       2.472   3.642  19.284  0.00  0.00    +0.000 A 
ATOM      3  C   UNL     1       1.439   3.864  20.186  0.00  0.00    +0.000 A 
ATOM      4  C   UNL     1       1.137   5.169  20.585  0.00  0.00    +0.000 A 
ATOM      5  C   UNL     1       1.854   6.275  20.092  0.00  0.00    +0.000 A 
ATOM      6  C   UNL     1       2.908   6.024  19.197  0.00  0.00    +0.000 A 
ENDROOT
BRANCH   5   7
ATOM      7  C   UNL     1       1.428   7.634  20.477  0.00  0.00    +0.000 A 
ATOM      8  N   UNL     1       0.838   7.946  21.620  0.00  0.00    +0.000 NA
ATOM      9  C   UNL     1       0.477   9.265  21.529  0.00  0.00    +0.000 A 
ATOM     10  C   UNL     1      -0.216  10.068  22.443  0.00  0.00    +0.000 A 
ATOM     11  C   UNL     1      -0.515  11.398  22.096  0.00  0.00    +0.000 A 
ATOM     12  C   UNL     1      -0.134  11.946  20.859  0.00  0.00    +0.000 A 
ATOM     13  C   UNL     1       0.593  11.139  19.951  0.00  0.00    +0.000 A 
ATOM     14  C   UNL     1       0.875   9.810  20.319  0.00  0.00    +0.000 A 
ATOM     15  N   UNL     1       1.532   8.772  19.695  0.00  0.00    +0.000 N 
ATOM     16  H   UNL     1       1.973   8.825  18.792  0.00  0.00    +0.000 HD
BRANCH  12  17
ATOM     17  C   UNL     1      -0.459  13.344  20.496  0.00  0.00    +0.000 A 
ATOM     18  N   UNL     1      -1.387  14.103  21.060  0.00  0.00    +0.000 NA
ATOM     19  C   UNL     1      -1.406  15.287  20.358  0.00  0.00    +0.000 A 
ATOM     20  C   UNL     1      -2.214  16.424  20.519  0.00  0.00    +0.000 A 
ATOM     21  C   UNL     1      -2.074  17.490  19.620  0.00  0.00    +0.000 A 
ATOM     22  C   UNL     1      -1.138  17.431  18.585  0.00  0.00    +0.000 A 
ATOM     23  C   UNL     1      -0.298  16.322  18.428  0.00  0.00    +0.000 A 
ATOM     24  C   UNL     1      -0.468  15.269  19.336  0.00  0.00    +0.000 A 
ATOM     25  N   UNL     1       0.165  14.061  19.490  0.00  0.00    +0.000 N 
ATOM     26  H   UNL     1       0.938  13.741  18.930  0.00  0.00    +0.000 HD
ENDBRANCH  12  17
ENDBRANCH   5   7
BRANCH   1  27
ATOM     27  O   UNL     1       4.169   4.391  17.867  0.00  0.00    +0.000 OA
BRANCH  27  28
ATOM     28  C   UNL     1       5.440   3.977  18.373  0.00  0.00    +0.000 C 
BRANCH  28  29
ATOM     29  C   UNL     1       6.304   5.219  18.614  0.00  0.00    +0.000 C 
BRANCH  29  30
ATOM     30  C   UNL     1       6.891   5.817  17.329  0.00  0.00    +0.000 C 
BRANCH  30  31
ATOM     31  C   UNL     1       7.486   4.771  16.383  0.00  0.00    +0.000 C 
BRANCH  31  32
ATOM     32  C   UNL     1       7.005   4.923  14.937  0.00  0.00    +0.000 C 
BRANCH  32  33
ATOM     33  C   UNL     1       6.115   3.781  14.430  0.00  0.00    +0.000 C 
BRANCH  33  34
ATOM     34  C   UNL     1       5.271   4.170  13.218  0.00  0.00    +0.000 C 
BRANCH  34  36
ATOM     35  O   UNL     1       4.407   2.858  11.386  0.00  0.00    +0.000 OA
ATOM     36  C   UNL     1       5.338   3.105  12.151  0.00  0.00    +0.000 C 
ATOM     37  N   UNL     1       6.546   2.455  12.077  0.00  0.00    +0.000 N 
ATOM     38  H   UNL     1       7.210   2.434  12.847  0.00  0.00    +0.000 HD
BRANCH  37  39
ATOM     39  O   UNL     1       6.605   1.377  11.163  0.00  0.00    +0.000 OA
ATOM     40  H   UNL     1       7.573   1.236  11.067  0.00  0.00    +0.000 HD
ENDBRANCH  37  39
ENDBRANCH  34  36
ENDBRANCH  33  34
ENDBRANCH  32  33
ENDBRANCH  31  32
ENDBRANCH  30  31
ENDBRANCH  29  30
ENDBRANCH  28  29
ENDBRANCH  27  28
ENDBRANCH   1  27
TORSDOF 12
ENDMDL
MODEL 6
REMARK VINA RESULT:      -7.9      2.819      3.557
REMARK  Name = 
REMARK  12 active torsions:
REMARK  status: ('A' for Active; 'I' for Inactive)
REMARK    1  A    between atoms: C_2  and  C_3
REMARK    2  A    between atoms: C_3  and  C_4
REMARK    3  A    between atoms: C_4  and  C_5
REMARK    4  A    between atoms: C_5  and  C_6
REMARK    5  A    between atoms: C_6  and  C_7
REMARK    6  A    between atoms: C_7  and  C_8
REMARK    7  A    between atoms: C_8  and  C_9
REMARK    8  A    between atoms: C_9  and  O_10
REMARK    9  A    between atoms: O_10  and  C_11
REMARK   10  A    between atoms: C_15  and  C_16
REMARK   11  A    between atoms: C_21  and  C_22
REMARK   12  A    between atoms: N_35  and  O_36
REMARK                            x       y       z     vdW  Elec       q    Type
REMARK                         _______ _______ _______ _____ _____    ______ ____
ROOT
ATOM      1  C   UNL     1       4.961   6.828  17.067  0.00  0.00    +0.000 A 
ATOM      2  C   UNL     1       4.607   5.486  17.194  0.00  0.00    +0.000 A 
ATOM      3  C   UNL     1       3.371   5.141  17.726  0.00  0.00    +0.000 A 
ATOM      4  C   UNL     1       2.477   6.145  18.110  0.00  0.00    +0.000 A 
ATOM      5  C   UNL     1       2.796   7.508  17.968  0.00  0.00    +0.000 A 
ATOM      6  C   UNL     1       4.060   7.833  17.447  0.00  0.00    +0.000 A 
ENDROOT
BRANCH   5   7
ATOM      7  C   UNL     1       1.775   8.521  18.302  0.00  0.00    +0.000 A 
ATOM      8  N   UNL     1       1.768   9.249  19.407  0.00  0.00    +0.000 NA
ATOM      9  C   UNL     1       0.591   9.954  19.404  0.00  0.00    +0.000 A 
ATOM     10  C   UNL     1       0.073  10.831  20.364  0.00  0.00    +0.000 A 
ATOM     11  C   UNL     1      -1.196  11.402  20.154  0.00  0.00    +0.000 A 
ATOM     12  C   UNL     1      -1.956  11.119  19.006  0.00  0.00    +0.000 A 
ATOM     13  C   UNL     1      -1.414  10.254  18.026  0.00  0.00    +0.000 A 
ATOM     14  C   UNL     1      -0.145   9.693  18.261  0.00  0.00    +0.000 A 
ATOM     15  N   UNL     1       0.656   8.828  17.548  0.00  0.00    +0.000 N 
ATOM     16  H   UNL     1       0.435   8.446  16.643  0.00  0.00    +0.000 HD
BRANCH  12  17
ATOM     17  C   UNL     1      -3.296  11.716  18.796  0.00  0.00    +0.000 A 
ATOM     18  N   UNL     1      -4.083  11.519  17.749  0.00  0.00    +0.000 NA
ATOM     19  C   UNL     1      -5.181  12.331  17.926  0.00  0.00    +0.000 A 
ATOM     20  C   UNL     1      -6.303  12.530  17.106  0.00  0.00    +0.000 A 
ATOM     21  C   UNL     1      -7.267  13.473  17.491  0.00  0.00    +0.000 A 
ATOM     22  C   UNL     1      -7.122  14.198  18.676  0.00  0.00    +0.000 A 
ATOM     23  C   UNL     1      -6.028  13.989  19.526  0.00  0.00    +0.000 A 
ATOM     24  C   UNL     1      -5.078  13.048  19.110  0.00  0.00    +0.000 A 
ATOM     25  N   UNL     1      -3.914  12.588  19.674  0.00  0.00    +0.000 N 
ATOM     26  H   UNL     1      -3.558  12.873  20.571  0.00  0.00    +0.000 HD
ENDBRANCH  12  17
ENDBRANCH   5   7
BRANCH   1  27
ATOM     27  O   UNL     1       6.174   7.058  16.471  0.00  0.00    +0.000 OA
BRANCH  27  28
ATOM     28  C   UNL     1       7.309   6.441  17.083  0.00  0.00    +0.000 C 
BRANCH  28  29
ATOM     29  C   UNL     1       7.828   7.355  18.197  0.00  0.00    +0.000 C 
BRANCH  29  30
ATOM     30  C   UNL     1       8.019   8.812  17.757  0.00  0.00    +0.000 C 
BRANCH  30  31
ATOM     31  C   UNL     1       8.781   9.663  18.778  0.00  0.00    +0.000 C 
BRANCH  31  32
ATOM     32  C   UNL     1       9.645  10.749  18.129  0.00  0.00    +0.000 C 
BRANCH  32  33
ATOM     33  C   UNL     1       8.913  12.063  17.830  0.00  0.00    +0.000 C 
BRANCH  33  34
ATOM     34  C   UNL     1       9.288  13.193  18.786  0.00  0.00    +0.000 C 
BRANCH  34  36
ATOM     35  O   UNL     1      11.018  14.875  18.800  0.00  0.00    +0.000 OA
ATOM     36  C   UNL     1      10.293  14.123  18.152  0.00  0.00    +0.000 C 
ATOM     37  N   UNL     1      10.359  14.033  16.782  0.00  0.00    +0.000 N 
ATOM     38  H   UNL     1       9.607  13.650  16.216  0.00  0.00    +0.000 HD
BRANCH  37  39
ATOM     39  O   UNL     1      11.210  14.970  16.149  0.00  0.00    +0.000 OA
ATOM     40  H   UNL     1      12.018  14.436  15.976  0.00  0.00    +0.000 HD
ENDBRANCH  37  39
ENDBRANCH  34  36
ENDBRANCH  33  34
ENDBRANCH  32  33
ENDBRANCH  31  32
ENDBRANCH  30  31
ENDBRANCH  29  30
ENDBRANCH  28  29
ENDBRANCH  27  28
ENDBRANCH   1  27
TORSDOF 12
ENDMDL
MODEL 7
REMARK VINA RESULT:      -7.8      3.594      5.479
REMARK  Name = 
REMARK  12 active torsions:
REMARK  status: ('A' for Active; 'I' for Inactive)
REMARK    1  A    between atoms: C_2  and  C_3
REMARK    2  A    between atoms: C_3  and  C_4
REMARK    3  A    between atoms: C_4  and  C_5
REMARK    4  A    between atoms: C_5  and  C_6
REMARK    5  A    between atoms: C_6  and  C_7
REMARK    6  A    between atoms: C_7  and  C_8
REMARK    7  A    between atoms: C_8  and  C_9
REMARK    8  A    between atoms: C_9  and  O_10
REMARK    9  A    between atoms: O_10  and  C_11
REMARK   10  A    between atoms: C_15  and  C_16
REMARK   11  A    between atoms: C_21  and  C_22
REMARK   12  A    between atoms: N_35  and  O_36
REMARK                            x       y       z     vdW  Elec       q    Type
REMARK                         _______ _______ _______ _____ _____    ______ ____
ROOT
ATOM      1  C   UNL     1       5.171   4.674  18.858  0.00  0.00    +0.000 A 
ATOM      2  C   UNL     1       4.572   3.684  18.081  0.00  0.00    +0.000 A 
ATOM      3  C   UNL     1       3.252   3.824  17.672  0.00  0.00    +0.000 A 
ATOM      4  C   UNL     1       2.537   4.974  18.022  0.00  0.00    +0.000 A 
ATOM      5  C   UNL     1       3.124   6.003  18.781  0.00  0.00    +0.000 A 
ATOM      6  C   UNL     1       4.453   5.829  19.202  0.00  0.00    +0.000 A 
ENDROOT
BRANCH   5   7
ATOM      7  C   UNL     1       2.350   7.234  19.037  0.00  0.00    +0.000 A 
ATOM      8  N   UNL     1       2.329   8.292  18.244  0.00  0.00    +0.000 NA
ATOM      9  C   UNL     1       1.617   9.262  18.902  0.00  0.00    +0.000 A 
ATOM     10  C   UNL     1       1.342  10.581  18.522  0.00  0.00    +0.000 A 
ATOM     11  C   UNL     1       0.622  11.410  19.402  0.00  0.00    +0.000 A 
ATOM     12  C   UNL     1       0.168  10.950  20.650  0.00  0.00    +0.000 A 
ATOM     13  C   UNL     1       0.423   9.606  21.016  0.00  0.00    +0.000 A 
ATOM     14  C   UNL     1       1.149   8.799  20.120  0.00  0.00    +0.000 A 
ATOM     15  N   UNL     1       1.574   7.489  20.155  0.00  0.00    +0.000 N 
ATOM     16  H   UNL     1       1.387   6.839  20.902  0.00  0.00    +0.000 HD
BRANCH  12  17
ATOM     17  C   UNL     1      -0.582  11.830  21.576  0.00  0.00    +0.000 A 
ATOM     18  N   UNL     1      -0.123  12.930  22.153  0.00  0.00    +0.000 NA
ATOM     19  C   UNL     1      -1.117  13.377  22.993  0.00  0.00    +0.000 A 
ATOM     20  C   UNL     1      -1.144  14.483  23.858  0.00  0.00    +0.000 A 
ATOM     21  C   UNL     1      -2.272  14.687  24.665  0.00  0.00    +0.000 A 
ATOM     22  C   UNL     1      -3.359  13.811  24.606  0.00  0.00    +0.000 A 
ATOM     23  C   UNL     1      -3.366  12.722  23.725  0.00  0.00    +0.000 A 
ATOM     24  C   UNL     1      -2.222  12.540  22.938  0.00  0.00    +0.000 A 
ATOM     25  N   UNL     1      -1.886  11.613  21.984  0.00  0.00    +0.000 N 
ATOM     26  H   UNL     1      -2.489  10.873  21.663  0.00  0.00    +0.000 HD
ENDBRANCH  12  17
ENDBRANCH   5   7
BRANCH   1  27
ATOM     27  O   UNL     1       6.493   4.466  19.152  0.00  0.00    +0.000 OA
BRANCH  27  28
ATOM     28  C   UNL     1       7.417   4.636  18.075  0.00  0.00    +0.000 C 
BRANCH  28  29
ATOM     29  C   UNL     1       7.087   5.940  17.342  0.00  0.00    +0.000 C 
BRANCH  29  30
ATOM     30  C   UNL     1       6.739   5.743  15.862  0.00  0.00    +0.000 C 
BRANCH  30  31
ATOM     31  C   UNL     1       6.964   4.311  15.367  0.00  0.00    +0.000 C 
BRANCH  31  32
ATOM     32  C   UNL     1       5.785   3.761  14.558  0.00  0.00    +0.000 C 
BRANCH  32  33
ATOM     33  C   UNL     1       6.065   3.564  13.063  0.00  0.00    +0.000 C 
BRANCH  33  34
ATOM     34  C   UNL     1       5.081   4.309  12.163  0.00  0.00    +0.000 C 
BRANCH  34  36
ATOM     35  O   UNL     1       4.610   2.149  11.198  0.00  0.00    +0.000 OA
ATOM     36  C   UNL     1       4.388   3.358  11.219  0.00  0.00    +0.000 C 
ATOM     37  N   UNL     1       3.454   3.951  10.405  0.00  0.00    +0.000 N 
ATOM     38  H   UNL     1       3.451   4.947  10.202  0.00  0.00    +0.000 HD
BRANCH  37  39
ATOM     39  O   UNL     1       2.867   3.107   9.433  0.00  0.00    +0.000 OA
ATOM     40  H   UNL     1       2.096   3.637   9.133  0.00  0.00    +0.000 HD
ENDBRANCH  37  39
ENDBRANCH  34  36
ENDBRANCH  33  34
ENDBRANCH  32  33
ENDBRANCH  31  32
ENDBRANCH  30  31
ENDBRANCH  29  30
ENDBRANCH  28  29
ENDBRANCH  27  28
ENDBRANCH   1  27
TORSDOF 12
ENDMDL
MODEL 8
REMARK VINA RESULT:      -7.8      3.677      5.006
REMARK  Name = 
REMARK  12 active torsions:
REMARK  status: ('A' for Active; 'I' for Inactive)
REMARK    1  A    between atoms: C_2  and  C_3
REMARK    2  A    between atoms: C_3  and  C_4
REMARK    3  A    between atoms: C_4  and  C_5
REMARK    4  A    between atoms: C_5  and  C_6
REMARK    5  A    between atoms: C_6  and  C_7
REMARK    6  A    between atoms: C_7  and  C_8
REMARK    7  A    between atoms: C_8  and  C_9
REMARK    8  A    between atoms: C_9  and  O_10
REMARK    9  A    between atoms: O_10  and  C_11
REMARK   10  A    between atoms: C_15  and  C_16
REMARK   11  A    between atoms: C_21  and  C_22
REMARK   12  A    between atoms: N_35  and  O_36
REMARK                            x       y       z     vdW  Elec       q    Type
REMARK                         _______ _______ _______ _____ _____    ______ ____
ROOT
ATOM      1  C   UNL     1       2.834   6.193  19.457  0.00  0.00    +0.000 A 
ATOM      2  C   UNL     1       3.331   6.585  18.214  0.00  0.00    +0.000 A 
ATOM      3  C   UNL     1       2.964   7.811  17.674  0.00  0.00    +0.000 A 
ATOM      4  C   UNL     1       2.116   8.659  18.394  0.00  0.00    +0.000 A 
ATOM      5  C   UNL     1       1.622   8.303  19.662  0.00  0.00    +0.000 A 
ATOM      6  C   UNL     1       1.989   7.049  20.178  0.00  0.00    +0.000 A 
ENDROOT
BRANCH   5   7
ATOM      7  C   UNL     1       0.808   9.279  20.413  0.00  0.00    +0.000 A 
ATOM      8  N   UNL     1       0.531   9.197  21.704  0.00  0.00    +0.000 NA
ATOM      9  C   UNL     1      -0.359  10.204  21.979  0.00  0.00    +0.000 A 
ATOM     10  C   UNL     1      -1.000  10.525  23.182  0.00  0.00    +0.000 A 
ATOM     11  C   UNL     1      -1.921  11.588  23.202  0.00  0.00    +0.000 A 
ATOM     12  C   UNL     1      -2.212  12.340  22.050  0.00  0.00    +0.000 A 
ATOM     13  C   UNL     1      -1.537  12.030  20.845  0.00  0.00    +0.000 A 
ATOM     14  C   UNL     1      -0.624  10.959  20.849  0.00  0.00    +0.000 A 
ATOM     15  N   UNL     1       0.176  10.391  19.883  0.00  0.00    +0.000 N 
ATOM     16  H   UNL     1       0.248  10.709  18.930  0.00  0.00    +0.000 HD
BRANCH  12  17
ATOM     17  C   UNL     1      -3.189  13.453  22.076  0.00  0.00    +0.000 A 
ATOM     18  N   UNL     1      -4.484  13.350  22.329  0.00  0.00    +0.000 NA
ATOM     19  C   UNL     1      -5.019  14.608  22.162  0.00  0.00    +0.000 A 
ATOM     20  C   UNL     1      -6.345  15.053  22.280  0.00  0.00    +0.000 A 
ATOM     21  C   UNL     1      -6.639  16.394  21.993  0.00  0.00    +0.000 A 
ATOM     22  C   UNL     1      -5.631  17.278  21.605  0.00  0.00    +0.000 A 
ATOM     23  C   UNL     1      -4.296  16.863  21.515  0.00  0.00    +0.000 A 
ATOM     24  C   UNL     1      -4.035  15.517  21.799  0.00  0.00    +0.000 A 
ATOM     25  N   UNL     1      -2.878  14.778  21.823  0.00  0.00    +0.000 N 
ATOM     26  H   UNL     1      -1.957  15.144  21.646  0.00  0.00    +0.000 HD
ENDBRANCH  12  17
ENDBRANCH   5   7
BRANCH   1  27
ATOM     27  O   UNL     1       3.309   4.996  19.924  0.00  0.00    +0.000 OA
BRANCH  27  28
ATOM     28  C   UNL     1       4.379   4.405  19.183  0.00  0.00    +0.000 C 
BRANCH  28  29
ATOM     29  C   UNL     1       3.796   3.377  18.208  0.00  0.00    +0.000 C 
BRANCH  29  30
ATOM     30  C   UNL     1       4.622   3.210  16.926  0.00  0.00    +0.000 C 
BRANCH  30  31
ATOM     31  C   UNL     1       4.543   4.416  15.986  0.00  0.00    +0.000 C 
BRANCH  31  32
ATOM     32  C   UNL     1       5.682   4.458  14.963  0.00  0.00    +0.000 C 
BRANCH  32  33
ATOM     33  C   UNL     1       7.074   4.703  15.558  0.00  0.00    +0.000 C 
BRANCH  33  34
ATOM     34  C   UNL     1       7.081   5.765  16.656  0.00  0.00    +0.000 C 
BRANCH  34  36
ATOM     35  O   UNL     1       8.203   4.117  18.015  0.00  0.00    +0.000 OA
ATOM     36  C   UNL     1       7.636   5.206  17.942  0.00  0.00    +0.000 C 
ATOM     37  N   UNL     1       7.492   6.036  19.027  0.00  0.00    +0.000 N 
ATOM     38  H   UNL     1       6.803   6.783  19.063  0.00  0.00    +0.000 HD
BRANCH  37  39
ATOM     39  O   UNL     1       7.901   5.495  20.269  0.00  0.00    +0.000 OA
ATOM     40  H   UNL     1       8.879   5.590  20.226  0.00  0.00    +0.000 HD
ENDBRANCH  37  39
ENDBRANCH  34  36
ENDBRANCH  33  34
ENDBRANCH  32  33
ENDBRANCH  31  32
ENDBRANCH  30  31
ENDBRANCH  29  30
ENDBRANCH  28  29
ENDBRANCH  27  28
ENDBRANCH   1  27
TORSDOF 12
ENDMDL
MODEL 9
REMARK VINA RESULT:      -7.8      3.178      4.105
REMARK  Name = 
REMARK  12 active torsions:
REMARK  status: ('A' for Active; 'I' for Inactive)
REMARK    1  A    between atoms: C_2  and  C_3
REMARK    2  A    between atoms: C_3  and  C_4
REMARK    3  A    between atoms: C_4  and  C_5
REMARK    4  A    between atoms: C_5  and  C_6
REMARK    5  A    between atoms: C_6  and  C_7
REMARK    6  A    between atoms: C_7  and  C_8
REMARK    7  A    between atoms: C_8  and  C_9
REMARK    8  A    between atoms: C_9  and  O_10
REMARK    9  A    between atoms: O_10  and  C_11
REMARK   10  A    between atoms: C_15  and  C_16
REMARK   11  A    between atoms: C_21  and  C_22
REMARK   12  A    between atoms: N_35  and  O_36
REMARK                            x       y       z     vdW  Elec       q    Type
REMARK                         _______ _______ _______ _____ _____    ______ ____
ROOT
ATOM      1  C   UNL     1       4.640   4.274  19.441  0.00  0.00    +0.000 A 
ATOM      2  C   UNL     1       3.854   3.164  19.134  0.00  0.00    +0.000 A 
ATOM      3  C   UNL     1       2.469   3.275  19.121  0.00  0.00    +0.000 A 
ATOM      4  C   UNL     1       1.871   4.509  19.393  0.00  0.00    +0.000 A 
ATOM      5  C   UNL     1       2.639   5.653  19.679  0.00  0.00    +0.000 A 
ATOM      6  C   UNL     1       4.037   5.512  19.706  0.00  0.00    +0.000 A 
ENDROOT
BRANCH   5   7
ATOM      7  C   UNL     1       1.954   6.947  19.864  0.00  0.00    +0.000 A 
ATOM      8  N   UNL     1       2.034   7.970  19.028  0.00  0.00    +0.000 NA
ATOM      9  C   UNL     1       1.381   9.017  19.626  0.00  0.00    +0.000 A 
ATOM     10  C   UNL     1       1.217  10.336  19.186  0.00  0.00    +0.000 A 
ATOM     11  C   UNL     1       0.539  11.253  20.011  0.00  0.00    +0.000 A 
ATOM     12  C   UNL     1       0.019  10.880  21.263  0.00  0.00    +0.000 A 
ATOM     13  C   UNL     1       0.162   9.538  21.689  0.00  0.00    +0.000 A 
ATOM     14  C   UNL     1       0.847   8.642  20.848  0.00  0.00    +0.000 A 
ATOM     15  N   UNL     1       1.171   7.306  20.947  0.00  0.00    +0.000 N 
ATOM     16  H   UNL     1       0.916   6.704  21.713  0.00  0.00    +0.000 HD
BRANCH  12  17
ATOM     17  C   UNL     1      -0.686  11.852  22.131  0.00  0.00    +0.000 A 
ATOM     18  N   UNL     1      -1.805  11.631  22.804  0.00  0.00    +0.000 NA
ATOM     19  C   UNL     1      -2.147  12.824  23.400  0.00  0.00    +0.000 A 
ATOM     20  C   UNL     1      -3.250  13.153  24.203  0.00  0.00    +0.000 A 
ATOM     21  C   UNL     1      -3.401  14.477  24.640  0.00  0.00    +0.000 A 
ATOM     22  C   UNL     1      -2.465  15.454  24.294  0.00  0.00    +0.000 A 
ATOM     23  C   UNL     1      -1.339  15.139  23.524  0.00  0.00    +0.000 A 
ATOM     24  C   UNL     1      -1.220  13.811  23.094  0.00  0.00    +0.000 A 
ATOM     25  N   UNL     1      -0.271  13.154  22.352  0.00  0.00    +0.000 N 
ATOM     26  H   UNL     1       0.574  13.571  21.998  0.00  0.00    +0.000 HD
ENDBRANCH  12  17
ENDBRANCH   5   7
BRANCH   1  27
ATOM     27  O   UNL     1       5.993   4.070  19.361  0.00  0.00    +0.000 OA
BRANCH  27  28
ATOM     28  C   UNL     1       6.610   4.389  18.112  0.00  0.00    +0.000 C 
BRANCH  28  29
ATOM     29  C   UNL     1       7.456   5.654  18.288  0.00  0.00    +0.000 C 
BRANCH  29  30
ATOM     30  C   UNL     1       7.231   6.702  17.191  0.00  0.00    +0.000 C 
BRANCH  30  31
ATOM     31  C   UNL     1       5.771   6.813  16.742  0.00  0.00    +0.000 C 
BRANCH  31  32
ATOM     32  C   UNL     1       5.185   5.480  16.267  0.00  0.00    +0.000 C 
BRANCH  32  33
ATOM     33  C   UNL     1       5.189   5.278  14.747  0.00  0.00    +0.000 C 
BRANCH  33  34
ATOM     34  C   UNL     1       6.083   4.126  14.295  0.00  0.00    +0.000 C 
BRANCH  34  36
ATOM     35  O   UNL     1       7.256   4.213  12.189  0.00  0.00    +0.000 OA
ATOM     36  C   UNL     1       7.151   4.612  13.347  0.00  0.00    +0.000 C 
ATOM     37  N   UNL     1       7.977   5.575  13.874  0.00  0.00    +0.000 N 
ATOM     38  H   UNL     1       8.096   5.714  14.873  0.00  0.00    +0.000 HD
BRANCH  37  39
ATOM     39  O   UNL     1       9.056   5.972  13.048  0.00  0.00    +0.000 OA
ATOM     40  H   UNL     1       8.817   6.897  12.821  0.00  0.00    +0.000 HD
ENDBRANCH  37  39
ENDBRANCH  34  36
ENDBRANCH  33  34
ENDBRANCH  32  33
ENDBRANCH  31  32
ENDBRANCH  30  31
ENDBRANCH  29  30
ENDBRANCH  28  29
ENDBRANCH  27  28
ENDBRANCH   1  27
TORSDOF 12
ENDMDL
