MODEL 1
REMARK VINA RESULT:      -7.0      0.000      0.000
REMARK  Name = 
REMARK  4 active torsions:
REMARK  status: ('A' for Active; 'I' for Inactive)
REMARK    1  A    between atoms: C_1  and  C_2
REMARK    2  A    between atoms: C_7  and  C_8
REMARK    3  A    between atoms: C_9  and  C_10
REMARK    4  A    between atoms: C_9  and  C_12
REMARK                            x       y       z     vdW  Elec       q    Type
REMARK                         _______ _______ _______ _____ _____    ______ ____
ROOT
ATOM      1  C   UNL     1       1.242   2.548  21.991  0.00  0.00    +0.000 C 
ATOM      2  C   UNL     1       1.910   2.781  20.668  0.00  0.00    +0.000 A 
ATOM      3  C   UNL     1       2.026   1.759  19.727  0.00  0.00    +0.000 A 
ATOM      4  C   UNL     1       2.658   2.002  18.507  0.00  0.00    +0.000 A 
ATOM      5  C   UNL     1       3.194   3.269  18.226  0.00  0.00    +0.000 A 
ATOM      6  C   UNL     1       3.888   3.525  17.033  0.00  0.00    +0.000 A 
ATOM      7  C   UNL     1       4.440   4.785  16.802  0.00  0.00    +0.000 A 
ATOM      8  C   UNL     1       4.211   5.757  17.774  0.00  0.00    +0.000 A 
ATOM      9 CL   UNL     1       4.758   7.381  17.594  0.00  0.00    +0.000 Cl
ATOM     10  N   UNL     1       3.541   5.551  18.928  0.00  0.00    +0.000 NA
ATOM     11  C   UNL     1       3.062   4.319  19.160  0.00  0.00    +0.000 A 
ATOM     12  C   UNL     1       2.419   4.053  20.361  0.00  0.00    +0.000 A 
ENDROOT
BRANCH   7  13
ATOM     13  C   UNL     1       5.231   5.011  15.583  0.00  0.00    +0.000 C 
ATOM     14  C   UNL     1       6.573   4.899  15.498  0.00  0.00    +0.000 C 
BRANCH  14  15
ATOM     15  C   UNL     1       7.390   4.531  16.608  0.00  0.00    +0.000 C 
ATOM     16  N   UNL     1       8.066   4.241  17.505  0.00  0.00    +0.000 NA
ENDBRANCH  14  15
BRANCH  14  17
ATOM     17  C   UNL     1       7.209   5.141  14.244  0.00  0.00    +0.000 C 
ATOM     18  N   UNL     1       7.745   5.313  13.232  0.00  0.00    +0.000 NA
ENDBRANCH  14  17
ENDBRANCH   7  13
TORSDOF 3
ENDMDL
MODEL 2
REMARK VINA RESULT:      -6.6      1.670      1.909
REMARK  Name = 
REMARK  4 active torsions:
REMARK  status: ('A' for Active; 'I' for Inactive)
REMARK    1  A    between atoms: C_1  and  C_2
REMARK    2  A    between atoms: C_7  and  C_8
REMARK    3  A    between atoms: C_9  and  C_10
REMARK    4  A    between atoms: C_9  and  C_12
REMARK                            x       y       z     vdW  Elec       q    Type
REMARK                         _______ _______ _______ _____ _____    ______ ____
ROOT
ATOM      1  C   UNL     1       1.389   2.576  21.967  0.00  0.00    +0.000 C 
ATOM      2  C   UNL     1       2.026   2.742  20.620  0.00  0.00    +0.000 A 
ATOM      3  C   UNL     1       1.370   2.348  19.455  0.00  0.00    +0.000 A 
ATOM      4  C   UNL     1       1.990   2.508  18.215  0.00  0.00    +0.000 A 
ATOM      5  C   UNL     1       3.282   3.052  18.133  0.00  0.00    +0.000 A 
ATOM      6  C   UNL     1       3.953   3.168  16.906  0.00  0.00    +0.000 A 
ATOM      7  C   UNL     1       5.251   3.679  16.866  0.00  0.00    +0.000 A 
ATOM      8  C   UNL     1       5.794   4.108  18.075  0.00  0.00    +0.000 A 
ATOM      9 CL   UNL     1       7.352   4.835  18.174  0.00  0.00    +0.000 Cl
ATOM     10  N   UNL     1       5.175   4.019  19.272  0.00  0.00    +0.000 NA
ATOM     11  C   UNL     1       3.948   3.477  19.302  0.00  0.00    +0.000 A 
ATOM     12  C   UNL     1       3.304   3.316  20.521  0.00  0.00    +0.000 A 
ENDROOT
BRANCH   7  13
ATOM     13  C   UNL     1       5.967   3.719  15.582  0.00  0.00    +0.000 C 
ATOM     14  C   UNL     1       6.068   4.803  14.784  0.00  0.00    +0.000 C 
BRANCH  14  15
ATOM     15  C   UNL     1       5.484   6.062  15.113  0.00  0.00    +0.000 C 
ATOM     16  N   UNL     1       5.022   7.092  15.377  0.00  0.00    +0.000 NA
ENDBRANCH  14  15
BRANCH  14  17
ATOM     17  C   UNL     1       6.804   4.698  13.567  0.00  0.00    +0.000 C 
ATOM     18  N   UNL     1       7.380   4.633  12.563  0.00  0.00    +0.000 NA
ENDBRANCH  14  17
ENDBRANCH   7  13
TORSDOF 3
ENDMDL
MODEL 3
REMARK VINA RESULT:      -6.6      3.007      3.931
REMARK  Name = 
REMARK  4 active torsions:
REMARK  status: ('A' for Active; 'I' for Inactive)
REMARK    1  A    between atoms: C_1  and  C_2
REMARK    2  A    between atoms: C_7  and  C_8
REMARK    3  A    between atoms: C_9  and  C_10
REMARK    4  A    between atoms: C_9  and  C_12
REMARK                            x       y       z     vdW  Elec       q    Type
REMARK                         _______ _______ _______ _____ _____    ______ ____
ROOT
ATOM      1  C   UNL     1      -0.043   8.976  21.831  0.00  0.00    +0.000 C 
ATOM      2  C   UNL     1       0.848   8.567  20.695  0.00  0.00    +0.000 A 
ATOM      3  C   UNL     1       0.979   9.361  19.556  0.00  0.00    +0.000 A 
ATOM      4  C   UNL     1       1.808   8.952  18.511  0.00  0.00    +0.000 A 
ATOM      5  C   UNL     1       2.504   7.734  18.593  0.00  0.00    +0.000 A 
ATOM      6  C   UNL     1       3.297   7.270  17.533  0.00  0.00    +0.000 A 
ATOM      7  C   UNL     1       3.946   6.039  17.633  0.00  0.00    +0.000 A 
ATOM      8  C   UNL     1       3.807   5.353  18.838  0.00  0.00    +0.000 A 
ATOM      9 CL   UNL     1       4.611   3.861  19.142  0.00  0.00    +0.000 Cl
ATOM     10  N   UNL     1       3.060   5.772  19.881  0.00  0.00    +0.000 NA
ATOM     11  C   UNL     1       2.400   6.933  19.750  0.00  0.00    +0.000 A 
ATOM     12  C   UNL     1       1.576   7.369  20.779  0.00  0.00    +0.000 A 
ENDROOT
BRANCH   7  13
ATOM     13  C   UNL     1       4.708   5.532  16.481  0.00  0.00    +0.000 C 
ATOM     14  C   UNL     1       6.033   5.707  16.290  0.00  0.00    +0.000 C 
BRANCH  14  15
ATOM     15  C   UNL     1       6.859   6.413  17.213  0.00  0.00    +0.000 C 
ATOM     16  N   UNL     1       7.543   6.989  17.953  0.00  0.00    +0.000 NA
ENDBRANCH  14  15
BRANCH  14  17
ATOM     17  C   UNL     1       6.642   5.152  15.127  0.00  0.00    +0.000 C 
ATOM     18  N   UNL     1       7.108   4.693  14.170  0.00  0.00    +0.000 NA
ENDBRANCH  14  17
ENDBRANCH   7  13
TORSDOF 3
ENDMDL
MODEL 4
REMARK VINA RESULT:      -6.3      2.449      3.115
REMARK  Name = 
REMARK  4 active torsions:
REMARK  status: ('A' for Active; 'I' for Inactive)
REMARK    1  A    between atoms: C_1  and  C_2
REMARK    2  A    between atoms: C_7  and  C_8
REMARK    3  A    between atoms: C_9  and  C_10
REMARK    4  A    between atoms: C_9  and  C_12
REMARK                            x       y       z     vdW  Elec       q    Type
REMARK                         _______ _______ _______ _____ _____    ______ ____
ROOT
ATOM      1  C   UNL     1       0.349   1.868  18.758  0.00  0.00    +0.000 C 
ATOM      2  C   UNL     1       1.378   2.959  18.750  0.00  0.00    +0.000 A 
ATOM      3  C   UNL     1       1.426   3.916  19.764  0.00  0.00    +0.000 A 
ATOM      4  C   UNL     1       2.390   4.923  19.728  0.00  0.00    +0.000 A 
ATOM      5  C   UNL     1       3.307   4.990  18.666  0.00  0.00    +0.000 A 
ATOM      6  C   UNL     1       4.248   6.028  18.574  0.00  0.00    +0.000 A 
ATOM      7  C   UNL     1       5.120   6.084  17.486  0.00  0.00    +0.000 A 
ATOM      8  C   UNL     1       5.039   5.044  16.562  0.00  0.00    +0.000 A 
ATOM      9 CL   UNL     1       6.102   4.931  15.212  0.00  0.00    +0.000 Cl
ATOM     10  N   UNL     1       4.153   4.026  16.624  0.00  0.00    +0.000 NA
ATOM     11  C   UNL     1       3.286   4.014  17.647  0.00  0.00    +0.000 A 
ATOM     12  C   UNL     1       2.323   3.017  17.714  0.00  0.00    +0.000 A 
ENDROOT
BRANCH   7  13
ATOM     13  C   UNL     1       6.045   7.221  17.365  0.00  0.00    +0.000 C 
ATOM     14  C   UNL     1       7.256   7.302  17.955  0.00  0.00    +0.000 C 
BRANCH  14  15
ATOM     15  C   UNL     1       7.788   6.262  18.773  0.00  0.00    +0.000 C 
ATOM     16  N   UNL     1       8.232   5.414  19.429  0.00  0.00    +0.000 NA
ENDBRANCH  14  15
BRANCH  14  17
ATOM     17  C   UNL     1       8.052   8.466  17.742  0.00  0.00    +0.000 C 
ATOM     18  N   UNL     1       8.673   9.430  17.579  0.00  0.00    +0.000 NA
ENDBRANCH  14  17
ENDBRANCH   7  13
TORSDOF 3
ENDMDL
MODEL 5
REMARK VINA RESULT:      -6.3      3.934      6.041
REMARK  Name = 
REMARK  4 active torsions:
REMARK  status: ('A' for Active; 'I' for Inactive)
REMARK    1  A    between atoms: C_1  and  C_2
REMARK    2  A    between atoms: C_7  and  C_8
REMARK    3  A    between atoms: C_9  and  C_10
REMARK    4  A    between atoms: C_9  and  C_12
REMARK                            x       y       z     vdW  Elec       q    Type
REMARK                         _______ _______ _______ _____ _____    ______ ____
ROOT
ATOM      1  C   UNL     1      -0.177  11.883  18.834  0.00  0.00    +0.000 C 
ATOM      2  C   UNL     1       0.420  10.557  19.200  0.00  0.00    +0.000 A 
ATOM      3  C   UNL     1       0.122   9.940  20.414  0.00  0.00    +0.000 A 
ATOM      4  C   UNL     1       0.698   8.710  20.733  0.00  0.00    +0.000 A 
ATOM      5  C   UNL     1       1.591   8.093  19.842  0.00  0.00    +0.000 A 
ATOM      6  C   UNL     1       2.232   6.886  20.163  0.00  0.00    +0.000 A 
ATOM      7  C   UNL     1       3.142   6.319  19.270  0.00  0.00    +0.000 A 
ATOM      8  C   UNL     1       3.320   6.978  18.054  0.00  0.00    +0.000 A 
ATOM      9 CL   UNL     1       4.348   6.359  16.819  0.00  0.00    +0.000 Cl
ATOM     10  N   UNL     1       2.716   8.135  17.709  0.00  0.00    +0.000 NA
ATOM     11  C   UNL     1       1.883   8.695  18.599  0.00  0.00    +0.000 A 
ATOM     12  C   UNL     1       1.288   9.913  18.304  0.00  0.00    +0.000 A 
ENDROOT
BRANCH   7  13
ATOM     13  C   UNL     1       3.862   5.097  19.656  0.00  0.00    +0.000 C 
ATOM     14  C   UNL     1       3.492   3.841  19.327  0.00  0.00    +0.000 C 
BRANCH  14  15
ATOM     15  C   UNL     1       2.337   3.558  18.540  0.00  0.00    +0.000 C 
ATOM     16  N   UNL     1       1.389   3.340  17.907  0.00  0.00    +0.000 NA
ENDBRANCH  14  15
BRANCH  14  17
ATOM     17  C   UNL     1       4.293   2.747  19.767  0.00  0.00    +0.000 C 
ATOM     18  N   UNL     1       4.917   1.842  20.132  0.00  0.00    +0.000 NA
ENDBRANCH  14  17
ENDBRANCH   7  13
TORSDOF 3
ENDMDL
MODEL 6
REMARK VINA RESULT:      -6.3      3.355      6.757
REMARK  Name = 
REMARK  4 active torsions:
REMARK  status: ('A' for Active; 'I' for Inactive)
REMARK    1  A    between atoms: C_1  and  C_2
REMARK    2  A    between atoms: C_7  and  C_8
REMARK    3  A    between atoms: C_9  and  C_10
REMARK    4  A    between atoms: C_9  and  C_12
REMARK                            x       y       z     vdW  Elec       q    Type
REMARK                         _______ _______ _______ _____ _____    ______ ____
ROOT
ATOM      1  C   UNL     1       5.863   3.785  14.855  0.00  0.00    +0.000 C 
ATOM      2  C   UNL     1       5.192   4.674  15.861  0.00  0.00    +0.000 A 
ATOM      3  C   UNL     1       5.508   6.029  15.951  0.00  0.00    +0.000 A 
ATOM      4  C   UNL     1       4.874   6.831  16.901  0.00  0.00    +0.000 A 
ATOM      5  C   UNL     1       3.929   6.278  17.780  0.00  0.00    +0.000 A 
ATOM      6  C   UNL     1       3.321   7.048  18.784  0.00  0.00    +0.000 A 
ATOM      7  C   UNL     1       2.413   6.457  19.664  0.00  0.00    +0.000 A 
ATOM      8  C   UNL     1       2.114   5.113  19.447  0.00  0.00    +0.000 A 
ATOM      9 CL   UNL     1       0.954   4.268  20.398  0.00  0.00    +0.000 Cl
ATOM     10  N   UNL     1       2.672   4.344  18.488  0.00  0.00    +0.000 NA
ATOM     11  C   UNL     1       3.583   4.913  17.683  0.00  0.00    +0.000 A 
ATOM     12  C   UNL     1       4.220   4.141  16.722  0.00  0.00    +0.000 A 
ENDROOT
BRANCH   7  13
ATOM     13  C   UNL     1       1.847   7.260  20.758  0.00  0.00    +0.000 C 
ATOM     14  C   UNL     1       1.297   8.485  20.618  0.00  0.00    +0.000 C 
BRANCH  14  15
ATOM     15  C   UNL     1       1.195   9.146  19.358  0.00  0.00    +0.000 C 
ATOM     16  N   UNL     1       1.116   9.670  18.326  0.00  0.00    +0.000 NA
ENDBRANCH  14  15
BRANCH  14  17
ATOM     17  C   UNL     1       0.779   9.146  21.770  0.00  0.00    +0.000 C 
ATOM     18  N   UNL     1       0.384   9.673  22.723  0.00  0.00    +0.000 NA
ENDBRANCH  14  17
ENDBRANCH   7  13
TORSDOF 3
ENDMDL
MODEL 7
REMARK VINA RESULT:      -6.1      3.741      4.804
REMARK  Name = 
REMARK  4 active torsions:
REMARK  status: ('A' for Active; 'I' for Inactive)
REMARK    1  A    between atoms: C_1  and  C_2
REMARK    2  A    between atoms: C_7  and  C_8
REMARK    3  A    between atoms: C_9  and  C_10
REMARK    4  A    between atoms: C_9  and  C_12
REMARK                            x       y       z     vdW  Elec       q    Type
REMARK                         _______ _______ _______ _____ _____    ______ ____
ROOT
ATOM      1  C   UNL     1      -0.118  10.862  21.101  0.00  0.00    +0.000 C 
ATOM      2  C   UNL     1       0.685  10.009  20.164  0.00  0.00    +0.000 A 
ATOM      3  C   UNL     1       0.958  10.426  18.861  0.00  0.00    +0.000 A 
ATOM      4  C   UNL     1       1.700   9.609  18.008  0.00  0.00    +0.000 A 
ATOM      5  C   UNL     1       2.164   8.359  18.449  0.00  0.00    +0.000 A 
ATOM      6  C   UNL     1       2.861   7.491  17.594  0.00  0.00    +0.000 A 
ATOM      7  C   UNL     1       3.276   6.241  18.054  0.00  0.00    +0.000 A 
ATOM      8  C   UNL     1       3.014   5.947  19.391  0.00  0.00    +0.000 A 
ATOM      9 CL   UNL     1       3.535   4.478  20.125  0.00  0.00    +0.000 Cl
ATOM     10  N   UNL     1       2.354   6.759  20.244  0.00  0.00    +0.000 NA
ATOM     11  C   UNL     1       1.916   7.936  19.772  0.00  0.00    +0.000 A 
ATOM     12  C   UNL     1       1.184   8.773  20.603  0.00  0.00    +0.000 A 
ENDROOT
BRANCH   7  13
ATOM     13  C   UNL     1       3.935   5.315  17.121  0.00  0.00    +0.000 C 
ATOM     14  C   UNL     1       5.153   5.503  16.571  0.00  0.00    +0.000 C 
BRANCH  14  15
ATOM     15  C   UNL     1       5.958   6.647  16.850  0.00  0.00    +0.000 C 
ATOM     16  N   UNL     1       6.601   7.587  17.071  0.00  0.00    +0.000 NA
ENDBRANCH  14  15
BRANCH  14  17
ATOM     17  C   UNL     1       5.672   4.513  15.686  0.00  0.00    +0.000 C 
ATOM     18  N   UNL     1       6.076   3.722  14.942  0.00  0.00    +0.000 NA
ENDBRANCH  14  17
ENDBRANCH   7  13
TORSDOF 3
ENDMDL
MODEL 8
REMARK VINA RESULT:      -5.9      1.964      6.392
REMARK  Name = 
REMARK  4 active torsions:
REMARK  status: ('A' for Active; 'I' for Inactive)
REMARK    1  A    between atoms: C_1  and  C_2
REMARK    2  A    between atoms: C_7  and  C_8
REMARK    3  A    between atoms: C_9  and  C_10
REMARK    4  A    between atoms: C_9  and  C_12
REMARK                            x       y       z     vdW  Elec       q    Type
REMARK                         _______ _______ _______ _____ _____    ______ ____
ROOT
ATOM      1  C   UNL     1       7.887   5.320  12.220  0.00  0.00    +0.000 C 
ATOM      2  C   UNL     1       7.096   4.876  13.414  0.00  0.00    +0.000 A 
ATOM      3  C   UNL     1       5.957   4.083  13.273  0.00  0.00    +0.000 A 
ATOM      4  C   UNL     1       5.236   3.690  14.401  0.00  0.00    +0.000 A 
ATOM      5  C   UNL     1       5.642   4.101  15.681  0.00  0.00    +0.000 A 
ATOM      6  C   UNL     1       4.901   3.771  16.827  0.00  0.00    +0.000 A 
ATOM      7  C   UNL     1       5.313   4.227  18.079  0.00  0.00    +0.000 A 
ATOM      8  C   UNL     1       6.501   4.955  18.122  0.00  0.00    +0.000 A 
ATOM      9 CL   UNL     1       7.179   5.515  19.603  0.00  0.00    +0.000 Cl
ATOM     10  N   UNL     1       7.243   5.284  17.043  0.00  0.00    +0.000 NA
ATOM     11  C   UNL     1       6.806   4.883  15.840  0.00  0.00    +0.000 A 
ATOM     12  C   UNL     1       7.510   5.251  14.702  0.00  0.00    +0.000 A 
ENDROOT
BRANCH   7  13
ATOM     13  C   UNL     1       4.482   3.938  19.258  0.00  0.00    +0.000 C 
ATOM     14  C   UNL     1       3.413   4.663  19.649  0.00  0.00    +0.000 C 
BRANCH  14  15
ATOM     15  C   UNL     1       2.956   5.811  18.938  0.00  0.00    +0.000 C 
ATOM     16  N   UNL     1       2.570   6.739  18.358  0.00  0.00    +0.000 NA
ENDBRANCH  14  15
BRANCH  14  17
ATOM     17  C   UNL     1       2.693   4.259  20.813  0.00  0.00    +0.000 C 
ATOM     18  N   UNL     1       2.128   3.905  21.760  0.00  0.00    +0.000 NA
ENDBRANCH  14  17
ENDBRANCH   7  13
TORSDOF 3
ENDMDL
MODEL 9
REMARK VINA RESULT:      -5.8      2.069      6.310
REMARK  Name = 
REMARK  4 active torsions:
REMARK  status: ('A' for Active; 'I' for Inactive)
REMARK    1  A    between atoms: C_1  and  C_2
REMARK    2  A    between atoms: C_7  and  C_8
REMARK    3  A    between atoms: C_9  and  C_10
REMARK    4  A    between atoms: C_9  and  C_12
REMARK                            x       y       z     vdW  Elec       q    Type
REMARK                         _______ _______ _______ _____ _____    ______ ____
ROOT
ATOM      1  C   UNL     1       7.783   4.920  12.288  0.00  0.00    +0.000 C 
ATOM      2  C   UNL     1       6.939   4.665  13.502  0.00  0.00    +0.000 A 
ATOM      3  C   UNL     1       5.681   4.072  13.397  0.00  0.00    +0.000 A 
ATOM      4  C   UNL     1       4.915   3.853  14.542  0.00  0.00    +0.000 A 
ATOM      5  C   UNL     1       5.397   4.239  15.803  0.00  0.00    +0.000 A 
ATOM      6  C   UNL     1       4.623   4.086  16.964  0.00  0.00    +0.000 A 
ATOM      7  C   UNL     1       5.118   4.515  18.196  0.00  0.00    +0.000 A 
ATOM      8  C   UNL     1       6.412   5.031  18.205  0.00  0.00    +0.000 A 
ATOM      9 CL   UNL     1       7.191   5.527  19.660  0.00  0.00    +0.000 Cl
ATOM     10  N   UNL     1       7.189   5.186  17.112  0.00  0.00    +0.000 NA
ATOM     11  C   UNL     1       6.679   4.817  15.927  0.00  0.00    +0.000 A 
ATOM     12  C   UNL     1       7.424   5.015  14.773  0.00  0.00    +0.000 A 
ENDROOT
BRANCH   7  13
ATOM     13  C   UNL     1       4.262   4.419  19.387  0.00  0.00    +0.000 C 
ATOM     14  C   UNL     1       3.618   3.303  19.792  0.00  0.00    +0.000 C 
BRANCH  14  15
ATOM     15  C   UNL     1       3.709   2.063  19.095  0.00  0.00    +0.000 C 
ATOM     16  N   UNL     1       3.799   1.053  18.530  0.00  0.00    +0.000 NA
ENDBRANCH  14  15
BRANCH  14  17
ATOM     17  C   UNL     1       2.825   3.355  20.976  0.00  0.00    +0.000 C 
ATOM     18  N   UNL     1       2.175   3.364  21.935  0.00  0.00    +0.000 NA
ENDBRANCH  14  17
ENDBRANCH   7  13
TORSDOF 3
ENDMDL
