MODEL 1
REMARK VINA RESULT:      -6.7      0.000      0.000
REMARK  Name = 
REMARK  7 active torsions:
REMARK  status: ('A' for Active; 'I' for Inactive)
REMARK    1  A    between atoms: C_1  and  N_2
REMARK    2  A    between atoms: N_2  and  C_3
REMARK    3  A    between atoms: N_2  and  C_4
REMARK    4  A    between atoms: C_4  and  C_5
REMARK    5  A    between atoms: C_5  and  N_6
REMARK    6  A    between atoms: N_6  and  C_7
REMARK    7  A    between atoms: C_20  and  C_21
REMARK                            x       y       z     vdW  Elec       q    Type
REMARK                         _______ _______ _______ _____ _____    ______ ____
ROOT
ATOM      1  N   UNL     1      -2.941  13.277  21.836  0.00  0.00    +0.000 N 
ATOM      2  C   UNL     1      -2.780  14.709  22.091  0.00  0.00    +0.000 C 
ATOM      3  C   UNL     1      -3.292  12.906  20.555  0.00  0.00    +0.000 A 
ATOM      4  N   UNL     1      -4.464  12.446  20.163  0.00  0.00    +0.000 NA
ATOM      5  N   UNL     1      -4.315  11.813  18.957  0.00  0.00    +0.000 NA
ATOM      6  C   UNL     1      -3.045  11.882  18.628  0.00  0.00    +0.000 A 
ATOM      7  N   UNL     1      -2.364  12.651  19.542  0.00  0.00    +0.000 N 
ATOM      8  C   UNL     1      -1.005  13.023  19.439  0.00  0.00    +0.000 A 
ATOM      9  C   UNL     1      -0.635  14.331  19.784  0.00  0.00    +0.000 A 
ATOM     10  C   UNL     1       0.704  14.712  19.811  0.00  0.00    +0.000 A 
ATOM     11  C   UNL     1       1.678  13.807  19.415  0.00  0.00    +0.000 A 
ATOM     12 CL   UNL     1       3.337  14.235  19.526  0.00  0.00    +0.000 Cl
ATOM     13  C   UNL     1       1.313  12.550  18.941  0.00  0.00    +0.000 A 
ATOM     14  C   UNL     1      -0.031  12.129  18.964  0.00  0.00    +0.000 A 
ATOM     15  C   UNL     1      -0.330  10.714  18.544  0.00  0.00    +0.000 C 
ATOM     16  N   UNL     1      -1.354  10.343  17.856  0.00  0.00    +0.000 NA
ATOM     17  C   UNL     1      -2.375  11.304  17.442  0.00  0.00    +0.000 C 
ENDROOT
BRANCH  15  18
ATOM     18  C   UNL     1       0.664   9.650  18.913  0.00  0.00    +0.000 A 
ATOM     19  C   UNL     1       1.480   9.056  17.944  0.00  0.00    +0.000 A 
ATOM     20  C   UNL     1       2.271   7.957  18.277  0.00  0.00    +0.000 A 
ATOM     21  C   UNL     1       2.285   7.481  19.588  0.00  0.00    +0.000 A 
ATOM     22  C   UNL     1       1.526   8.115  20.572  0.00  0.00    +0.000 A 
ATOM     23  C   UNL     1       0.714   9.202  20.238  0.00  0.00    +0.000 A 
ENDBRANCH  15  18
BRANCH   1  24
ATOM     24  C   UNL     1      -3.735  12.605  22.906  0.00  0.00    +0.000 C 
BRANCH  24  25
ATOM     25  C   UNL     1      -4.681  13.591  23.631  0.00  0.00    +0.000 C 
BRANCH  25  27
ATOM     26  C   UNL     1      -6.955  12.803  24.014  0.00  0.00    +0.000 C 
ATOM     27  N   UNL     1      -6.080  13.592  23.141  0.00  0.00    +0.000 NA
ATOM     28  C   UNL     1      -6.566  14.977  23.097  0.00  0.00    +0.000 C 
ENDBRANCH  25  27
ENDBRANCH  24  25
ENDBRANCH   1  24
TORSDOF 4
ENDMDL
MODEL 2
REMARK VINA RESULT:      -6.6      1.084      1.277
REMARK  Name = 
REMARK  7 active torsions:
REMARK  status: ('A' for Active; 'I' for Inactive)
REMARK    1  A    between atoms: C_1  and  N_2
REMARK    2  A    between atoms: N_2  and  C_3
REMARK    3  A    between atoms: N_2  and  C_4
REMARK    4  A    between atoms: C_4  and  C_5
REMARK    5  A    between atoms: C_5  and  N_6
REMARK    6  A    between atoms: N_6  and  C_7
REMARK    7  A    between atoms: C_20  and  C_21
REMARK                            x       y       z     vdW  Elec       q    Type
REMARK                         _______ _______ _______ _____ _____    ______ ____
ROOT
ATOM      1  N   UNL     1      -3.084  13.198  21.074  0.00  0.00    +0.000 N 
ATOM      2  C   UNL     1      -2.958  14.649  21.211  0.00  0.00    +0.000 C 
ATOM      3  C   UNL     1      -3.320  12.708  19.808  0.00  0.00    +0.000 A 
ATOM      4  N   UNL     1      -4.451  12.196  19.360  0.00  0.00    +0.000 NA
ATOM      5  N   UNL     1      -4.193  11.460  18.234  0.00  0.00    +0.000 NA
ATOM      6  C   UNL     1      -2.899  11.519  18.009  0.00  0.00    +0.000 A 
ATOM      7  N   UNL     1      -2.306  12.378  18.904  0.00  0.00    +0.000 N 
ATOM      8  C   UNL     1      -0.947  12.761  18.884  0.00  0.00    +0.000 A 
ATOM      9  C   UNL     1      -0.618  14.100  19.139  0.00  0.00    +0.000 A 
ATOM     10  C   UNL     1       0.710  14.504  19.245  0.00  0.00    +0.000 A 
ATOM     11  C   UNL     1       1.722  13.582  19.017  0.00  0.00    +0.000 A 
ATOM     12 CL   UNL     1       3.362  14.045  19.231  0.00  0.00    +0.000 Cl
ATOM     13  C   UNL     1       1.410  12.282  18.630  0.00  0.00    +0.000 A 
ATOM     14  C   UNL     1       0.072  11.843  18.577  0.00  0.00    +0.000 A 
ATOM     15  C   UNL     1      -0.178  10.392  18.263  0.00  0.00    +0.000 C 
ATOM     16  N   UNL     1      -1.136   9.944  17.528  0.00  0.00    +0.000 NA
ATOM     17  C   UNL     1      -2.125  10.848  16.942  0.00  0.00    +0.000 C 
ENDROOT
BRANCH  15  18
ATOM     18  C   UNL     1       0.789   9.381  18.812  0.00  0.00    +0.000 A 
ATOM     19  C   UNL     1       1.654   8.677  17.967  0.00  0.00    +0.000 A 
ATOM     20  C   UNL     1       2.421   7.627  18.471  0.00  0.00    +0.000 A 
ATOM     21  C   UNL     1       2.359   7.311  19.828  0.00  0.00    +0.000 A 
ATOM     22  C   UNL     1       1.550   8.056  20.686  0.00  0.00    +0.000 A 
ATOM     23  C   UNL     1       0.764   9.094  20.181  0.00  0.00    +0.000 A 
ENDBRANCH  15  18
BRANCH   1  24
ATOM     24  C   UNL     1      -3.962  12.612  22.129  0.00  0.00    +0.000 C 
BRANCH  24  25
ATOM     25  C   UNL     1      -3.172  12.262  23.412  0.00  0.00    +0.000 C 
BRANCH  25  27
ATOM     26  C   UNL     1      -3.540  14.187  24.860  0.00  0.00    +0.000 C 
ATOM     27  N   UNL     1      -3.777  12.752  24.673  0.00  0.00    +0.000 NA
ATOM     28  C   UNL     1      -5.224  12.503  24.633  0.00  0.00    +0.000 C 
ENDBRANCH  25  27
ENDBRANCH  24  25
ENDBRANCH   1  24
TORSDOF 4
ENDMDL
MODEL 3
REMARK VINA RESULT:      -6.5      3.526      5.467
REMARK  Name = 
REMARK  7 active torsions:
REMARK  status: ('A' for Active; 'I' for Inactive)
REMARK    1  A    between atoms: C_1  and  N_2
REMARK    2  A    between atoms: N_2  and  C_3
REMARK    3  A    between atoms: N_2  and  C_4
REMARK    4  A    between atoms: C_4  and  C_5
REMARK    5  A    between atoms: C_5  and  N_6
REMARK    6  A    between atoms: N_6  and  C_7
REMARK    7  A    between atoms: C_20  and  C_21
REMARK                            x       y       z     vdW  Elec       q    Type
REMARK                         _______ _______ _______ _____ _____    ______ ____
ROOT
ATOM      1  N   UNL     1       0.515  14.667  19.413  0.00  0.00    +0.000 N 
ATOM      2  C   UNL     1      -0.539  15.404  18.716  0.00  0.00    +0.000 C 
ATOM      3  C   UNL     1       0.154  13.999  20.564  0.00  0.00    +0.000 A 
ATOM      4  N   UNL     1       0.469  14.336  21.800  0.00  0.00    +0.000 NA
ATOM      5  N   UNL     1       0.298  13.249  22.616  0.00  0.00    +0.000 NA
ATOM      6  C   UNL     1      -0.110  12.250  21.865  0.00  0.00    +0.000 A 
ATOM      7  N   UNL     1      -0.324  12.686  20.579  0.00  0.00    +0.000 N 
ATOM      8  C   UNL     1      -0.867  11.905  19.535  0.00  0.00    +0.000 A 
ATOM      9  C   UNL     1      -1.796  12.491  18.666  0.00  0.00    +0.000 A 
ATOM     10  C   UNL     1      -2.272  11.801  17.554  0.00  0.00    +0.000 A 
ATOM     11  C   UNL     1      -1.879  10.486  17.350  0.00  0.00    +0.000 A 
ATOM     12 CL   UNL     1      -2.388   9.652  15.938  0.00  0.00    +0.000 Cl
ATOM     13  C   UNL     1      -1.063   9.847  18.280  0.00  0.00    +0.000 A 
ATOM     14  C   UNL     1      -0.526  10.551  19.377  0.00  0.00    +0.000 A 
ATOM     15  C   UNL     1       0.441   9.822  20.272  0.00  0.00    +0.000 C 
ATOM     16  N   UNL     1       0.498   9.936  21.553  0.00  0.00    +0.000 NA
ATOM     17  C   UNL     1      -0.385  10.854  22.271  0.00  0.00    +0.000 C 
ENDROOT
BRANCH  15  18
ATOM     18  C   UNL     1       1.387   8.847  19.632  0.00  0.00    +0.000 A 
ATOM     19  C   UNL     1       1.905   9.076  18.352  0.00  0.00    +0.000 A 
ATOM     20  C   UNL     1       2.643   8.083  17.710  0.00  0.00    +0.000 A 
ATOM     21  C   UNL     1       2.906   6.879  18.363  0.00  0.00    +0.000 A 
ATOM     22  C   UNL     1       2.451   6.675  19.666  0.00  0.00    +0.000 A 
ATOM     23  C   UNL     1       1.691   7.658  20.304  0.00  0.00    +0.000 A 
ENDBRANCH  15  18
BRANCH   1  24
ATOM     24  C   UNL     1       1.767  15.470  19.540  0.00  0.00    +0.000 C 
BRANCH  24  25
ATOM     25  C   UNL     1       1.517  16.977  19.295  0.00  0.00    +0.000 C 
BRANCH  25  27
ATOM     26  C   UNL     1       3.117  16.556  17.506  0.00  0.00    +0.000 C 
ATOM     27  N   UNL     1       2.282  17.563  18.168  0.00  0.00    +0.000 NA
ATOM     28  C   UNL     1       1.336  18.121  17.193  0.00  0.00    +0.000 C 
ENDBRANCH  25  27
ENDBRANCH  24  25
ENDBRANCH   1  24
TORSDOF 4
ENDMDL
MODEL 4
REMARK VINA RESULT:      -6.5      3.308      5.368
REMARK  Name = 
REMARK  7 active torsions:
REMARK  status: ('A' for Active; 'I' for Inactive)
REMARK    1  A    between atoms: C_1  and  N_2
REMARK    2  A    between atoms: N_2  and  C_3
REMARK    3  A    between atoms: N_2  and  C_4
REMARK    4  A    between atoms: C_4  and  C_5
REMARK    5  A    between atoms: C_5  and  N_6
REMARK    6  A    between atoms: N_6  and  C_7
REMARK    7  A    between atoms: C_20  and  C_21
REMARK                            x       y       z     vdW  Elec       q    Type
REMARK                         _______ _______ _______ _____ _____    ______ ____
ROOT
ATOM      1  N   UNL     1      -0.026  14.680  20.001  0.00  0.00    +0.000 N 
ATOM      2  C   UNL     1      -1.111  15.407  19.343  0.00  0.00    +0.000 C 
ATOM      3  C   UNL     1      -0.364  13.900  21.087  0.00  0.00    +0.000 A 
ATOM      4  N   UNL     1      -0.090  14.153  22.353  0.00  0.00    +0.000 NA
ATOM      5  N   UNL     1      -0.209  12.995  23.075  0.00  0.00    +0.000 NA
ATOM      6  C   UNL     1      -0.544  12.038  22.238  0.00  0.00    +0.000 A 
ATOM      7  N   UNL     1      -0.763  12.564  20.987  0.00  0.00    +0.000 N 
ATOM      8  C   UNL     1      -1.240  11.840  19.872  0.00  0.00    +0.000 A 
ATOM      9  C   UNL     1      -2.190  12.439  19.034  0.00  0.00    +0.000 A 
ATOM     10  C   UNL     1      -2.605  11.814  17.860  0.00  0.00    +0.000 A 
ATOM     11  C   UNL     1      -2.131  10.545  17.560  0.00  0.00    +0.000 A 
ATOM     12 CL   UNL     1      -2.566   9.801  16.076  0.00  0.00    +0.000 Cl
ATOM     13  C   UNL     1      -1.292   9.883  18.453  0.00  0.00    +0.000 A 
ATOM     14  C   UNL     1      -0.817  10.525  19.613  0.00  0.00    +0.000 A 
ATOM     15  C   UNL     1       0.178   9.784  20.467  0.00  0.00    +0.000 C 
ATOM     16  N   UNL     1       0.208   9.798  21.755  0.00  0.00    +0.000 NA
ATOM     17  C   UNL     1      -0.740  10.600  22.525  0.00  0.00    +0.000 C 
ENDROOT
BRANCH  15  18
ATOM     18  C   UNL     1       1.192   8.922  19.771  0.00  0.00    +0.000 A 
ATOM     19  C   UNL     1       1.681   9.261  18.504  0.00  0.00    +0.000 A 
ATOM     20  C   UNL     1       2.488   8.364  17.806  0.00  0.00    +0.000 A 
ATOM     21  C   UNL     1       2.847   7.150  18.390  0.00  0.00    +0.000 A 
ATOM     22  C   UNL     1       2.419   6.839  19.681  0.00  0.00    +0.000 A 
ATOM     23  C   UNL     1       1.591   7.725  20.375  0.00  0.00    +0.000 A 
ENDBRANCH  15  18
BRANCH   1  24
ATOM     24  C   UNL     1       1.173  15.541  20.218  0.00  0.00    +0.000 C 
BRANCH  24  25
ATOM     25  C   UNL     1       2.169  15.456  19.037  0.00  0.00    +0.000 C 
BRANCH  25  27
ATOM     26  C   UNL     1       2.695  13.184  18.329  0.00  0.00    +0.000 C 
ATOM     27  N   UNL     1       3.140  14.338  19.117  0.00  0.00    +0.000 NA
ATOM     28  C   UNL     1       4.437  14.800  18.606  0.00  0.00    +0.000 C 
ENDBRANCH  25  27
ENDBRANCH  24  25
ENDBRANCH   1  24
TORSDOF 4
ENDMDL
MODEL 5
REMARK VINA RESULT:      -6.4      8.634     11.987
REMARK  Name = 
REMARK  7 active torsions:
REMARK  status: ('A' for Active; 'I' for Inactive)
REMARK    1  A    between atoms: C_1  and  N_2
REMARK    2  A    between atoms: N_2  and  C_3
REMARK    3  A    between atoms: N_2  and  C_4
REMARK    4  A    between atoms: C_4  and  C_5
REMARK    5  A    between atoms: C_5  and  N_6
REMARK    6  A    between atoms: N_6  and  C_7
REMARK    7  A    between atoms: C_20  and  C_21
REMARK                            x       y       z     vdW  Elec       q    Type
REMARK                         _______ _______ _______ _____ _____    ______ ____
ROOT
ATOM      1  N   UNL     1       6.005   4.854  14.820  0.00  0.00    +0.000 N 
ATOM      2  C   UNL     1       5.988   6.057  13.988  0.00  0.00    +0.000 C 
ATOM      3  C   UNL     1       6.731   4.913  15.991  0.00  0.00    +0.000 A 
ATOM      4  N   UNL     1       7.880   4.313  16.236  0.00  0.00    +0.000 NA
ATOM      5  N   UNL     1       8.079   4.264  17.590  0.00  0.00    +0.000 NA
ATOM      6  C   UNL     1       7.038   4.827  18.164  0.00  0.00    +0.000 A 
ATOM      7  N   UNL     1       6.202   5.354  17.208  0.00  0.00    +0.000 N 
ATOM      8  C   UNL     1       5.047   6.121  17.472  0.00  0.00    +0.000 A 
ATOM      9  C   UNL     1       4.785   7.244  16.674  0.00  0.00    +0.000 A 
ATOM     10  C   UNL     1       3.602   7.965  16.818  0.00  0.00    +0.000 A 
ATOM     11  C   UNL     1       2.708   7.613  17.820  0.00  0.00    +0.000 A 
ATOM     12 CL   UNL     1       1.208   8.437  17.952  0.00  0.00    +0.000 Cl
ATOM     13  C   UNL     1       3.020   6.585  18.706  0.00  0.00    +0.000 A 
ATOM     14  C   UNL     1       4.184   5.809  18.536  0.00  0.00    +0.000 A 
ATOM     15  C   UNL     1       4.390   4.643  19.465  0.00  0.00    +0.000 C 
ATOM     16  N   UNL     1       5.522   4.277  19.958  0.00  0.00    +0.000 NA
ATOM     17  C   UNL     1       6.760   4.973  19.609  0.00  0.00    +0.000 C 
ENDROOT
BRANCH  15  18
ATOM     18  C   UNL     1       3.178   3.865  19.892  0.00  0.00    +0.000 A 
ATOM     19  C   UNL     1       2.399   3.171  18.959  0.00  0.00    +0.000 A 
ATOM     20  C   UNL     1       1.189   2.600  19.349  0.00  0.00    +0.000 A 
ATOM     21  C   UNL     1       0.778   2.679  20.679  0.00  0.00    +0.000 A 
ATOM     22  C   UNL     1       1.587   3.308  21.626  0.00  0.00    +0.000 A 
ATOM     23  C   UNL     1       2.789   3.902  21.235  0.00  0.00    +0.000 A 
ENDBRANCH  15  18
BRANCH   1  24
ATOM     24  C   UNL     1       6.247   3.621  14.015  0.00  0.00    +0.000 C 
BRANCH  24  25
ATOM     25  C   UNL     1       5.824   3.802  12.538  0.00  0.00    +0.000 C 
BRANCH  25  27
ATOM     26  C   UNL     1       4.005   3.229  11.020  0.00  0.00    +0.000 C 
ATOM     27  N   UNL     1       4.975   2.715  11.993  0.00  0.00    +0.000 NA
ATOM     28  C   UNL     1       5.837   1.724  11.336  0.00  0.00    +0.000 C 
ENDBRANCH  25  27
ENDBRANCH  24  25
ENDBRANCH   1  24
TORSDOF 4
ENDMDL
MODEL 6
REMARK VINA RESULT:      -6.4      1.145      1.380
REMARK  Name = 
REMARK  7 active torsions:
REMARK  status: ('A' for Active; 'I' for Inactive)
REMARK    1  A    between atoms: C_1  and  N_2
REMARK    2  A    between atoms: N_2  and  C_3
REMARK    3  A    between atoms: N_2  and  C_4
REMARK    4  A    between atoms: C_4  and  C_5
REMARK    5  A    between atoms: C_5  and  N_6
REMARK    6  A    between atoms: N_6  and  C_7
REMARK    7  A    between atoms: C_20  and  C_21
REMARK                            x       y       z     vdW  Elec       q    Type
REMARK                         _______ _______ _______ _____ _____    ______ ____
ROOT
ATOM      1  N   UNL     1      -2.061  13.839  21.824  0.00  0.00    +0.000 N 
ATOM      2  C   UNL     1      -1.782  15.275  21.839  0.00  0.00    +0.000 C 
ATOM      3  C   UNL     1      -2.656  13.330  20.690  0.00  0.00    +0.000 A 
ATOM      4  N   UNL     1      -3.903  12.914  20.574  0.00  0.00    +0.000 NA
ATOM      5  N   UNL     1      -4.007  12.118  19.464  0.00  0.00    +0.000 NA
ATOM      6  C   UNL     1      -2.814  12.043  18.916  0.00  0.00    +0.000 A 
ATOM      7  N   UNL     1      -1.940  12.872  19.580  0.00  0.00    +0.000 N 
ATOM      8  C   UNL     1      -0.605  13.121  19.194  0.00  0.00    +0.000 A 
ATOM      9  C   UNL     1      -0.110  14.430  19.278  0.00  0.00    +0.000 A 
ATOM     10  C   UNL     1       1.230  14.707  19.021  0.00  0.00    +0.000 A 
ATOM     11  C   UNL     1       2.068  13.685  18.598  0.00  0.00    +0.000 A 
ATOM     12 CL   UNL     1       3.740  13.994  18.362  0.00  0.00    +0.000 Cl
ATOM     13  C   UNL     1       1.558  12.408  18.380  0.00  0.00    +0.000 A 
ATOM     14  C   UNL     1       0.219  12.099  18.693  0.00  0.00    +0.000 A 
ATOM     15  C   UNL     1      -0.225  10.668  18.539  0.00  0.00    +0.000 C 
ATOM     16  N   UNL     1      -1.374  10.290  18.097  0.00  0.00    +0.000 NA
ATOM     17  C   UNL     1      -2.401  11.264  17.729  0.00  0.00    +0.000 C 
ENDROOT
BRANCH  15  18
ATOM     18  C   UNL     1       0.761   9.589  18.882  0.00  0.00    +0.000 A 
ATOM     19  C   UNL     1       1.554   8.993  17.894  0.00  0.00    +0.000 A 
ATOM     20  C   UNL     1       2.337   7.882  18.204  0.00  0.00    +0.000 A 
ATOM     21  C   UNL     1       2.366   7.394  19.510  0.00  0.00    +0.000 A 
ATOM     22  C   UNL     1       1.631   8.028  20.512  0.00  0.00    +0.000 A 
ATOM     23  C   UNL     1       0.828   9.128  20.201  0.00  0.00    +0.000 A 
ENDBRANCH  15  18
BRANCH   1  24
ATOM     24  C   UNL     1      -2.684  13.378  23.100  0.00  0.00    +0.000 C 
BRANCH  24  25
ATOM     25  C   UNL     1      -2.551  14.432  24.224  0.00  0.00    +0.000 C 
BRANCH  25  27
ATOM     26  C   UNL     1      -3.820  16.393  24.919  0.00  0.00    +0.000 C 
ATOM     27  N   UNL     1      -3.835  14.934  24.767  0.00  0.00    +0.000 NA
ATOM     28  C   UNL     1      -4.918  14.557  23.848  0.00  0.00    +0.000 C 
ENDBRANCH  25  27
ENDBRANCH  24  25
ENDBRANCH   1  24
TORSDOF 4
ENDMDL
MODEL 7
REMARK VINA RESULT:      -6.3      3.537      5.820
REMARK  Name = 
REMARK  7 active torsions:
REMARK  status: ('A' for Active; 'I' for Inactive)
REMARK    1  A    between atoms: C_1  and  N_2
REMARK    2  A    between atoms: N_2  and  C_3
REMARK    3  A    between atoms: N_2  and  C_4
REMARK    4  A    between atoms: C_4  and  C_5
REMARK    5  A    between atoms: C_5  and  N_6
REMARK    6  A    between atoms: N_6  and  C_7
REMARK    7  A    between atoms: C_20  and  C_21
REMARK                            x       y       z     vdW  Elec       q    Type
REMARK                         _______ _______ _______ _____ _____    ______ ____
ROOT
ATOM      1  N   UNL     1       0.607  14.567  19.331  0.00  0.00    +0.000 N 
ATOM      2  C   UNL     1      -0.414  15.344  18.629  0.00  0.00    +0.000 C 
ATOM      3  C   UNL     1       0.219  13.926  20.489  0.00  0.00    +0.000 A 
ATOM      4  N   UNL     1       0.551  14.258  21.721  0.00  0.00    +0.000 NA
ATOM      5  N   UNL     1       0.332  13.187  22.547  0.00  0.00    +0.000 NA
ATOM      6  C   UNL     1      -0.122  12.201  21.806  0.00  0.00    +0.000 A 
ATOM      7  N   UNL     1      -0.319  12.635  20.516  0.00  0.00    +0.000 N 
ATOM      8  C   UNL     1      -0.898  11.871  19.480  0.00  0.00    +0.000 A 
ATOM      9  C   UNL     1      -1.802  12.491  18.607  0.00  0.00    +0.000 A 
ATOM     10  C   UNL     1      -2.311  11.813  17.502  0.00  0.00    +0.000 A 
ATOM     11  C   UNL     1      -1.979  10.480  17.309  0.00  0.00    +0.000 A 
ATOM     12 CL   UNL     1      -2.528   9.657  15.905  0.00  0.00    +0.000 Cl
ATOM     13  C   UNL     1      -1.190   9.813  18.243  0.00  0.00    +0.000 A 
ATOM     14  C   UNL     1      -0.620  10.501  19.333  0.00  0.00    +0.000 A 
ATOM     15  C   UNL     1       0.315   9.737  20.232  0.00  0.00    +0.000 C 
ATOM     16  N   UNL     1       0.381   9.860  21.513  0.00  0.00    +0.000 NA
ATOM     17  C   UNL     1      -0.459  10.823  22.224  0.00  0.00    +0.000 C 
ENDROOT
BRANCH  15  18
ATOM     18  C   UNL     1       1.215   8.714  19.599  0.00  0.00    +0.000 A 
ATOM     19  C   UNL     1       1.557   7.536  20.274  0.00  0.00    +0.000 A 
ATOM     20  C   UNL     1       2.524   6.684  19.742  0.00  0.00    +0.000 A 
ATOM     21  C   UNL     1       3.115   6.982  18.514  0.00  0.00    +0.000 A 
ATOM     22  C   UNL     1       2.726   8.120  17.806  0.00  0.00    +0.000 A 
ATOM     23  C   UNL     1       1.774   8.988  18.346  0.00  0.00    +0.000 A 
ENDBRANCH  15  18
BRANCH   1  24
ATOM     24  C   UNL     1       1.894  15.312  19.449  0.00  0.00    +0.000 C 
BRANCH  24  25
ATOM     25  C   UNL     1       3.068  14.549  18.792  0.00  0.00    +0.000 C 
BRANCH  25  27
ATOM     26  C   UNL     1       3.134  16.521  17.362  0.00  0.00    +0.000 C 
ATOM     27  N   UNL     1       3.870  15.343  17.831  0.00  0.00    +0.000 NA
ATOM     28  C   UNL     1       5.107  15.779  18.492  0.00  0.00    +0.000 C 
ENDBRANCH  25  27
ENDBRANCH  24  25
ENDBRANCH   1  24
TORSDOF 4
ENDMDL
MODEL 8
REMARK VINA RESULT:      -6.2      3.332      5.431
REMARK  Name = 
REMARK  7 active torsions:
REMARK  status: ('A' for Active; 'I' for Inactive)
REMARK    1  A    between atoms: C_1  and  N_2
REMARK    2  A    between atoms: N_2  and  C_3
REMARK    3  A    between atoms: N_2  and  C_4
REMARK    4  A    between atoms: C_4  and  C_5
REMARK    5  A    between atoms: C_5  and  N_6
REMARK    6  A    between atoms: N_6  and  C_7
REMARK    7  A    between atoms: C_20  and  C_21
REMARK                            x       y       z     vdW  Elec       q    Type
REMARK                         _______ _______ _______ _____ _____    ______ ____
ROOT
ATOM      1  N   UNL     1       0.081  14.539  20.118  0.00  0.00    +0.000 N 
ATOM      2  C   UNL     1      -0.986  15.329  19.505  0.00  0.00    +0.000 C 
ATOM      3  C   UNL     1      -0.271  13.723  21.172  0.00  0.00    +0.000 A 
ATOM      4  N   UNL     1       0.022  13.910  22.445  0.00  0.00    +0.000 NA
ATOM      5  N   UNL     1      -0.126  12.725  23.116  0.00  0.00    +0.000 NA
ATOM      6  C   UNL     1      -0.498  11.817  22.241  0.00  0.00    +0.000 A 
ATOM      7  N   UNL     1      -0.712  12.405  21.017  0.00  0.00    +0.000 N 
ATOM      8  C   UNL     1      -1.222  11.747  19.876  0.00  0.00    +0.000 A 
ATOM      9  C   UNL     1      -2.160  12.412  19.075  0.00  0.00    +0.000 A 
ATOM     10  C   UNL     1      -2.606  11.853  17.880  0.00  0.00    +0.000 A 
ATOM     11  C   UNL     1      -2.174  10.585  17.518  0.00  0.00    +0.000 A 
ATOM     12 CL   UNL     1      -2.646   9.922  16.007  0.00  0.00    +0.000 Cl
ATOM     13  C   UNL     1      -1.348   9.858  18.371  0.00  0.00    +0.000 A 
ATOM     14  C   UNL     1      -0.842  10.433  19.554  0.00  0.00    +0.000 A 
ATOM     15  C   UNL     1       0.136   9.624  20.364  0.00  0.00    +0.000 C 
ATOM     16  N   UNL     1       0.179   9.578  21.650  0.00  0.00    +0.000 NA
ATOM     17  C   UNL     1      -0.737  10.375  22.466  0.00  0.00    +0.000 C 
ENDROOT
BRANCH  15  18
ATOM     18  C   UNL     1       1.116   8.762  19.619  0.00  0.00    +0.000 A 
ATOM     19  C   UNL     1       1.600   7.572  20.175  0.00  0.00    +0.000 A 
ATOM     20  C   UNL     1       2.632   6.878  19.546  0.00  0.00    +0.000 A 
ATOM     21  C   UNL     1       3.149   7.344  18.337  0.00  0.00    +0.000 A 
ATOM     22  C   UNL     1       2.620   8.491  17.745  0.00  0.00    +0.000 A 
ATOM     23  C   UNL     1       1.602   9.203  18.384  0.00  0.00    +0.000 A 
ENDBRANCH  15  18
BRANCH   1  24
ATOM     24  C   UNL     1       1.309  15.352  20.361  0.00  0.00    +0.000 C 
BRANCH  24  25
ATOM     25  C   UNL     1       2.593  14.605  19.930  0.00  0.00    +0.000 C 
BRANCH  25  27
ATOM     26  C   UNL     1       3.957  14.892  17.931  0.00  0.00    +0.000 C 
ATOM     27  N   UNL     1       2.709  14.348  18.475  0.00  0.00    +0.000 NA
ATOM     28  C   UNL     1       2.677  12.897  18.246  0.00  0.00    +0.000 C 
ENDBRANCH  25  27
ENDBRANCH  24  25
ENDBRANCH   1  24
TORSDOF 4
ENDMDL
MODEL 9
REMARK VINA RESULT:      -6.2      3.546      5.364
REMARK  Name = 
REMARK  7 active torsions:
REMARK  status: ('A' for Active; 'I' for Inactive)
REMARK    1  A    between atoms: C_1  and  N_2
REMARK    2  A    between atoms: N_2  and  C_3
REMARK    3  A    between atoms: N_2  and  C_4
REMARK    4  A    between atoms: C_4  and  C_5
REMARK    5  A    between atoms: C_5  and  N_6
REMARK    6  A    between atoms: N_6  and  C_7
REMARK    7  A    between atoms: C_20  and  C_21
REMARK                            x       y       z     vdW  Elec       q    Type
REMARK                         _______ _______ _______ _____ _____    ______ ____
ROOT
ATOM      1  N   UNL     1       0.676  14.615  19.327  0.00  0.00    +0.000 N 
ATOM      2  C   UNL     1      -0.335  15.366  18.585  0.00  0.00    +0.000 C 
ATOM      3  C   UNL     1       0.270  14.003  20.494  0.00  0.00    +0.000 A 
ATOM      4  N   UNL     1       0.576  14.371  21.723  0.00  0.00    +0.000 NA
ATOM      5  N   UNL     1       0.348  13.321  22.574  0.00  0.00    +0.000 NA
ATOM      6  C   UNL     1      -0.087  12.312  21.851  0.00  0.00    +0.000 A 
ATOM      7  N   UNL     1      -0.261  12.711  20.546  0.00  0.00    +0.000 N 
ATOM      8  C   UNL     1      -0.816  11.914  19.520  0.00  0.00    +0.000 A 
ATOM      9  C   UNL     1      -1.707  12.505  18.614  0.00  0.00    +0.000 A 
ATOM     10  C   UNL     1      -2.190  11.794  17.518  0.00  0.00    +0.000 A 
ATOM     11  C   UNL     1      -1.847  10.458  17.368  0.00  0.00    +0.000 A 
ATOM     12 CL   UNL     1      -2.364   9.595  15.977  0.00  0.00    +0.000 Cl
ATOM     13  C   UNL     1      -1.072   9.822  18.334  0.00  0.00    +0.000 A 
ATOM     14  C   UNL     1      -0.527  10.543  19.416  0.00  0.00    +0.000 A 
ATOM     15  C   UNL     1       0.395   9.809  20.354  0.00  0.00    +0.000 C 
ATOM     16  N   UNL     1       0.435   9.967  21.631  0.00  0.00    +0.000 NA
ATOM     17  C   UNL     1      -0.424  10.944  22.300  0.00  0.00    +0.000 C 
ENDROOT
BRANCH  15  18
ATOM     18  C   UNL     1       1.312   8.776  19.766  0.00  0.00    +0.000 A 
ATOM     19  C   UNL     1       1.884   8.953  18.500  0.00  0.00    +0.000 A 
ATOM     20  C   UNL     1       2.593   7.911  17.904  0.00  0.00    +0.000 A 
ATOM     21  C   UNL     1       2.773   6.709  18.589  0.00  0.00    +0.000 A 
ATOM     22  C   UNL     1       2.265   6.555  19.879  0.00  0.00    +0.000 A 
ATOM     23  C   UNL     1       1.534   7.588  20.471  0.00  0.00    +0.000 A 
ENDBRANCH  15  18
BRANCH   1  24
ATOM     24  C   UNL     1       1.957  15.371  19.450  0.00  0.00    +0.000 C 
BRANCH  24  25
ATOM     25  C   UNL     1       1.965  16.642  18.568  0.00  0.00    +0.000 C 
BRANCH  25  27
ATOM     26  C   UNL     1       1.062  18.631  19.649  0.00  0.00    +0.000 C 
ATOM     27  N   UNL     1       2.281  17.900  19.286  0.00  0.00    +0.000 NA
ATOM     28  C   UNL     1       3.028  17.574  20.507  0.00  0.00    +0.000 C 
ENDBRANCH  25  27
ENDBRANCH  24  25
ENDBRANCH   1  24
TORSDOF 4
ENDMDL
