MODEL 1
REMARK VINA RESULT:      -8.0      0.000      0.000
REMARK  Name = 
REMARK  9 active torsions:
REMARK  status: ('A' for Active; 'I' for Inactive)
REMARK    1  A    between atoms: C_1  and  C_2
REMARK    2  A    between atoms: C_4  and  N_5
REMARK    3  A    between atoms: C_6  and  C_8
REMARK    4  A    between atoms: C_8  and  O_10
REMARK    5  A    between atoms: C_12  and  C_13
REMARK    6  A    between atoms: C_14  and  O_15
REMARK    7  A    between atoms: O_15  and  C_16
REMARK    8  A    between atoms: C_19  and  O_20
REMARK    9  A    between atoms: C_21  and  C_22
REMARK                            x       y       z     vdW  Elec       q    Type
REMARK                         _______ _______ _______ _____ _____    ______ ____
ROOT
ATOM      1  C   UNL     1       2.140   9.053  17.515  0.00  0.00    +0.000 C 
ATOM      2  C   UNL     1       1.077   9.263  18.562  0.00  0.00    +0.000 A 
ATOM      3  C   UNL     1      -0.038  10.008  18.151  0.00  0.00    +0.000 A 
ATOM      4  C   UNL     1      -1.073  10.344  19.016  0.00  0.00    +0.000 A 
ATOM      5  C   UNL     1      -1.026   9.877  20.330  0.00  0.00    +0.000 A 
ATOM      6  C   UNL     1       0.055   9.087  20.774  0.00  0.00    +0.000 A 
ATOM      7  C   UNL     1       0.064   8.589  22.197  0.00  0.00    +0.000 C 
ATOM      8  C   UNL     1       1.113   8.776  19.883  0.00  0.00    +0.000 A 
ENDROOT
BRANCH   4   9
ATOM      9  N   UNL     1      -2.145  11.163  18.615  0.00  0.00    +0.000 N 
ATOM     10  C   UNL     1      -3.327  10.731  18.047  0.00  0.00    +0.000 C 
ATOM     11  O   UNL     1      -3.732   9.598  17.803  0.00  0.00    +0.000 OA
ATOM     12  H   UNL     1      -2.043  12.171  18.709  0.00  0.00    +0.000 HD
BRANCH  10  13
ATOM     13  C   UNL     1      -4.280  11.859  17.655  0.00  0.00    +0.000 C 
ATOM     14  O   UNL     1      -4.732  11.968  16.537  0.00  0.00    +0.000 OA
BRANCH  13  15
ATOM     15  O   UNL     1      -4.525  12.667  18.707  0.00  0.00    +0.000 OA
ATOM     16  H   UNL     1      -3.718  13.226  18.859  0.00  0.00    +0.000 HD
ENDBRANCH  13  15
ENDBRANCH  10  13
ENDBRANCH   4   9
BRANCH   8  17
ATOM     17  O   UNL     1       2.180   8.085  20.431  0.00  0.00    +0.000 OA
BRANCH  17  18
ATOM     18  C   UNL     1       2.440   6.793  20.036  0.00  0.00    +0.000 A 
ATOM     19  C   UNL     1       1.681   5.793  20.627  0.00  0.00    +0.000 A 
ATOM     20  C   UNL     1       1.960   4.462  20.333  0.00  0.00    +0.000 A 
ATOM     21  C   UNL     1       2.977   4.136  19.420  0.00  0.00    +0.000 A 
ATOM     22  C   UNL     1       3.737   5.125  18.749  0.00  0.00    +0.000 A 
ATOM     23  C   UNL     1       3.417   6.454  19.091  0.00  0.00    +0.000 A 
BRANCH  22  24
ATOM     24  C   UNL     1       4.854   4.833  17.781  0.00  0.00    +0.000 A 
ATOM     25  C   UNL     1       4.554   4.393  16.468  0.00  0.00    +0.000 A 
ATOM     26  C   UNL     1       5.538   4.171  15.493  0.00  0.00    +0.000 A 
ATOM     27  C   UNL     1       6.877   4.309  15.815  0.00  0.00    +0.000 A 
ATOM     28  C   UNL     1       7.226   4.671  17.109  0.00  0.00    +0.000 A 
ATOM     29  C   UNL     1       6.240   4.955  18.071  0.00  0.00    +0.000 A 
ATOM     30 CL   UNL     1       6.895   5.524  19.577  0.00  0.00    +0.000 Cl
ENDBRANCH  22  24
BRANCH  21  31
ATOM     31  O   UNL     1       3.210   2.803  19.195  0.00  0.00    +0.000 OA
ATOM     32  H   UNL     1       4.110   2.686  18.850  0.00  0.00    +0.000 HD
ENDBRANCH  21  31
ENDBRANCH  17  18
ENDBRANCH   8  17
TORSDOF 7
ENDMDL
MODEL 2
REMARK VINA RESULT:      -8.0      2.592      3.563
REMARK  Name = 
REMARK  9 active torsions:
REMARK  status: ('A' for Active; 'I' for Inactive)
REMARK    1  A    between atoms: C_1  and  C_2
REMARK    2  A    between atoms: C_4  and  N_5
REMARK    3  A    between atoms: C_6  and  C_8
REMARK    4  A    between atoms: C_8  and  O_10
REMARK    5  A    between atoms: C_12  and  C_13
REMARK    6  A    between atoms: C_14  and  O_15
REMARK    7  A    between atoms: O_15  and  C_16
REMARK    8  A    between atoms: C_19  and  O_20
REMARK    9  A    between atoms: C_21  and  C_22
REMARK                            x       y       z     vdW  Elec       q    Type
REMARK                         _______ _______ _______ _____ _____    ______ ____
ROOT
ATOM      1  C   UNL     1      -1.825   9.808  17.480  0.00  0.00    +0.000 C 
ATOM      2  C   UNL     1      -1.473  10.902  18.453  0.00  0.00    +0.000 A 
ATOM      3  C   UNL     1      -2.554  11.660  18.928  0.00  0.00    +0.000 A 
ATOM      4  C   UNL     1      -2.388  12.746  19.780  0.00  0.00    +0.000 A 
ATOM      5  C   UNL     1      -1.102  13.061  20.221  0.00  0.00    +0.000 A 
ATOM      6  C   UNL     1       0.008  12.298  19.805  0.00  0.00    +0.000 A 
ATOM      7  C   UNL     1       1.380  12.660  20.314  0.00  0.00    +0.000 C 
ATOM      8  C   UNL     1      -0.179  11.210  18.916  0.00  0.00    +0.000 A 
ENDROOT
BRANCH   4   9
ATOM      9  N   UNL     1      -3.470  13.551  20.183  0.00  0.00    +0.000 N 
ATOM     10  C   UNL     1      -4.383  13.247  21.172  0.00  0.00    +0.000 C 
ATOM     11  O   UNL     1      -4.454  12.282  21.928  0.00  0.00    +0.000 OA
ATOM     12  H   UNL     1      -3.634  14.424  19.685  0.00  0.00    +0.000 HD
BRANCH  10  13
ATOM     13  C   UNL     1      -5.490  14.285  21.342  0.00  0.00    +0.000 C 
ATOM     14  O   UNL     1      -6.012  14.839  20.400  0.00  0.00    +0.000 OA
BRANCH  13  15
ATOM     15  O   UNL     1      -5.777  14.470  22.647  0.00  0.00    +0.000 OA
ATOM     16  H   UNL     1      -6.744  14.287  22.778  0.00  0.00    +0.000 HD
ENDBRANCH  13  15
ENDBRANCH  10  13
ENDBRANCH   4   9
BRANCH   8  17
ATOM     17  O   UNL     1       0.975  10.582  18.479  0.00  0.00    +0.000 OA
BRANCH  17  18
ATOM     18  C   UNL     1       1.331   9.357  18.992  0.00  0.00    +0.000 A 
ATOM     19  C   UNL     1       0.962   9.098  20.305  0.00  0.00    +0.000 A 
ATOM     20  C   UNL     1       1.371   7.911  20.907  0.00  0.00    +0.000 A 
ATOM     21  C   UNL     1       2.121   6.970  20.179  0.00  0.00    +0.000 A 
ATOM     22  C   UNL     1       2.468   7.167  18.821  0.00  0.00    +0.000 A 
ATOM     23  C   UNL     1       2.035   8.388  18.266  0.00  0.00    +0.000 A 
BRANCH  22  24
ATOM     24  C   UNL     1       3.290   6.204  18.002  0.00  0.00    +0.000 A 
ATOM     25  C   UNL     1       4.563   6.597  17.520  0.00  0.00    +0.000 A 
ATOM     26  C   UNL     1       5.412   5.731  16.814  0.00  0.00    +0.000 A 
ATOM     27  C   UNL     1       4.990   4.452  16.495  0.00  0.00    +0.000 A 
ATOM     28  C   UNL     1       3.721   4.044  16.885  0.00  0.00    +0.000 A 
ATOM     29  C   UNL     1       2.892   4.887  17.647  0.00  0.00    +0.000 A 
ATOM     30 CL   UNL     1       1.411   4.126  18.144  0.00  0.00    +0.000 Cl
ENDBRANCH  22  24
BRANCH  21  31
ATOM     31  O   UNL     1       2.507   5.834  20.844  0.00  0.00    +0.000 OA
ATOM     32  H   UNL     1       3.220   6.051  21.467  0.00  0.00    +0.000 HD
ENDBRANCH  21  31
ENDBRANCH  17  18
ENDBRANCH   8  17
TORSDOF 7
ENDMDL
MODEL 3
REMARK VINA RESULT:      -7.9      2.708      3.774
REMARK  Name = 
REMARK  9 active torsions:
REMARK  status: ('A' for Active; 'I' for Inactive)
REMARK    1  A    between atoms: C_1  and  C_2
REMARK    2  A    between atoms: C_4  and  N_5
REMARK    3  A    between atoms: C_6  and  C_8
REMARK    4  A    between atoms: C_8  and  O_10
REMARK    5  A    between atoms: C_12  and  C_13
REMARK    6  A    between atoms: C_14  and  O_15
REMARK    7  A    between atoms: O_15  and  C_16
REMARK    8  A    between atoms: C_19  and  O_20
REMARK    9  A    between atoms: C_21  and  C_22
REMARK                            x       y       z     vdW  Elec       q    Type
REMARK                         _______ _______ _______ _____ _____    ______ ____
ROOT
ATOM      1  C   UNL     1       1.090  12.631  20.767  0.00  0.00    +0.000 C 
ATOM      2  C   UNL     1      -0.164  12.175  20.069  0.00  0.00    +0.000 A 
ATOM      3  C   UNL     1      -1.361  12.718  20.560  0.00  0.00    +0.000 A 
ATOM      4  C   UNL     1      -2.607  12.348  20.067  0.00  0.00    +0.000 A 
ATOM      5  C   UNL     1      -2.666  11.442  19.007  0.00  0.00    +0.000 A 
ATOM      6  C   UNL     1      -1.485  10.906  18.453  0.00  0.00    +0.000 A 
ATOM      7  C   UNL     1      -1.589   9.941  17.299  0.00  0.00    +0.000 C 
ATOM      8  C   UNL     1      -0.226  11.276  18.986  0.00  0.00    +0.000 A 
ENDROOT
BRANCH   4   9
ATOM      9  N   UNL     1      -3.804  12.834  20.623  0.00  0.00    +0.000 N 
ATOM     10  C   UNL     1      -4.212  12.681  21.933  0.00  0.00    +0.000 C 
ATOM     11  O   UNL     1      -3.651  12.155  22.890  0.00  0.00    +0.000 OA
ATOM     12  H   UNL     1      -4.462  13.312  20.010  0.00  0.00    +0.000 HD
BRANCH  10  13
ATOM     13  C   UNL     1      -5.593  13.261  22.230  0.00  0.00    +0.000 C 
ATOM     14  O   UNL     1      -6.568  12.564  22.400  0.00  0.00    +0.000 OA
BRANCH  13  15
ATOM     15  O   UNL     1      -5.548  14.609  22.275  0.00  0.00    +0.000 OA
ATOM     16  H   UNL     1      -6.469  14.952  22.133  0.00  0.00    +0.000 HD
ENDBRANCH  13  15
ENDBRANCH  10  13
ENDBRANCH   4   9
BRANCH   8  17
ATOM     17  O   UNL     1       0.873  10.625  18.451  0.00  0.00    +0.000 OA
BRANCH  17  18
ATOM     18  C   UNL     1       1.272   9.412  18.962  0.00  0.00    +0.000 A 
ATOM     19  C   UNL     1       0.925   9.143  20.279  0.00  0.00    +0.000 A 
ATOM     20  C   UNL     1       1.378   7.971  20.877  0.00  0.00    +0.000 A 
ATOM     21  C   UNL     1       2.150   7.054  20.143  0.00  0.00    +0.000 A 
ATOM     22  C   UNL     1       2.478   7.259  18.781  0.00  0.00    +0.000 A 
ATOM     23  C   UNL     1       2.000   8.465  18.230  0.00  0.00    +0.000 A 
BRANCH  22  24
ATOM     24  C   UNL     1       3.322   6.323  17.955  0.00  0.00    +0.000 A 
ATOM     25  C   UNL     1       4.567   6.762  17.443  0.00  0.00    +0.000 A 
ATOM     26  C   UNL     1       5.437   5.925  16.728  0.00  0.00    +0.000 A 
ATOM     27  C   UNL     1       5.061   4.625  16.430  0.00  0.00    +0.000 A 
ATOM     28  C   UNL     1       3.819   4.170  16.851  0.00  0.00    +0.000 A 
ATOM     29  C   UNL     1       2.972   4.987  17.621  0.00  0.00    +0.000 A 
ATOM     30 CL   UNL     1       1.534   4.171  18.158  0.00  0.00    +0.000 Cl
ENDBRANCH  22  24
BRANCH  21  31
ATOM     31  O   UNL     1       2.579   5.931  20.805  0.00  0.00    +0.000 OA
ATOM     32  H   UNL     1       2.812   5.245  20.158  0.00  0.00    +0.000 HD
ENDBRANCH  21  31
ENDBRANCH  17  18
ENDBRANCH   8  17
TORSDOF 7
ENDMDL
MODEL 4
REMARK VINA RESULT:      -7.8      0.437      1.765
REMARK  Name = 
REMARK  9 active torsions:
REMARK  status: ('A' for Active; 'I' for Inactive)
REMARK    1  A    between atoms: C_1  and  C_2
REMARK    2  A    between atoms: C_4  and  N_5
REMARK    3  A    between atoms: C_6  and  C_8
REMARK    4  A    between atoms: C_8  and  O_10
REMARK    5  A    between atoms: C_12  and  C_13
REMARK    6  A    between atoms: C_14  and  O_15
REMARK    7  A    between atoms: O_15  and  C_16
REMARK    8  A    between atoms: C_19  and  O_20
REMARK    9  A    between atoms: C_21  and  C_22
REMARK                            x       y       z     vdW  Elec       q    Type
REMARK                         _______ _______ _______ _____ _____    ______ ____
ROOT
ATOM      1  C   UNL     1      -0.157   8.754  22.277  0.00  0.00    +0.000 C 
ATOM      2  C   UNL     1       0.030   9.192  20.848  0.00  0.00    +0.000 A 
ATOM      3  C   UNL     1      -1.024   9.941  20.303  0.00  0.00    +0.000 A 
ATOM      4  C   UNL     1      -1.034  10.364  18.979  0.00  0.00    +0.000 A 
ATOM      5  C   UNL     1       0.071  10.078  18.176  0.00  0.00    +0.000 A 
ATOM      6  C   UNL     1       1.173   9.366  18.696  0.00  0.00    +0.000 A 
ATOM      7  C   UNL     1       2.354   9.089  17.802  0.00  0.00    +0.000 C 
ATOM      8  C   UNL     1       1.152   8.922  20.041  0.00  0.00    +0.000 A 
ENDROOT
BRANCH   4   9
ATOM      9  N   UNL     1      -2.133  11.041  18.420  0.00  0.00    +0.000 N 
ATOM     10  C   UNL     1      -3.124  10.478  17.641  0.00  0.00    +0.000 C 
ATOM     11  O   UNL     1      -3.307   9.313  17.297  0.00  0.00    +0.000 OA
ATOM     12  H   UNL     1      -2.201  12.048  18.558  0.00  0.00    +0.000 HD
BRANCH  10  13
ATOM     13  C   UNL     1      -4.154  11.477  17.119  0.00  0.00    +0.000 C 
ATOM     14  O   UNL     1      -4.996  11.975  17.832  0.00  0.00    +0.000 OA
BRANCH  13  15
ATOM     15  O   UNL     1      -3.975  11.706  15.801  0.00  0.00    +0.000 OA
ATOM     16  H   UNL     1      -3.136  12.227  15.691  0.00  0.00    +0.000 HD
ENDBRANCH  13  15
ENDBRANCH  10  13
ENDBRANCH   4   9
BRANCH   8  17
ATOM     17  O   UNL     1       2.227   8.144  20.437  0.00  0.00    +0.000 OA
BRANCH  17  18
ATOM     18  C   UNL     1       2.375   6.869  19.941  0.00  0.00    +0.000 A 
ATOM     19  C   UNL     1       1.486   5.910  20.406  0.00  0.00    +0.000 A 
ATOM     20  C   UNL     1       1.643   4.586  20.008  0.00  0.00    +0.000 A 
ATOM     21  C   UNL     1       2.671   4.231  19.117  0.00  0.00    +0.000 A 
ATOM     22  C   UNL     1       3.564   5.186  18.573  0.00  0.00    +0.000 A 
ATOM     23  C   UNL     1       3.363   6.508  19.017  0.00  0.00    +0.000 A 
BRANCH  22  24
ATOM     24  C   UNL     1       4.698   4.858  17.636  0.00  0.00    +0.000 A 
ATOM     25  C   UNL     1       4.421   4.456  16.306  0.00  0.00    +0.000 A 
ATOM     26  C   UNL     1       5.425   4.205  15.359  0.00  0.00    +0.000 A 
ATOM     27  C   UNL     1       6.758   4.274  15.727  0.00  0.00    +0.000 A 
ATOM     28  C   UNL     1       7.080   4.596  17.038  0.00  0.00    +0.000 A 
ATOM     29  C   UNL     1       6.078   4.909  17.973  0.00  0.00    +0.000 A 
ATOM     30 CL   UNL     1       6.708   5.420  19.510  0.00  0.00    +0.000 Cl
ENDBRANCH  22  24
BRANCH  21  31
ATOM     31  O   UNL     1       2.778   2.904  18.786  0.00  0.00    +0.000 OA
ATOM     32  H   UNL     1       2.230   2.721  18.005  0.00  0.00    +0.000 HD
ENDBRANCH  21  31
ENDBRANCH  17  18
ENDBRANCH   8  17
TORSDOF 7
ENDMDL
MODEL 5
REMARK VINA RESULT:      -7.7      2.209      3.259
REMARK  Name = 
REMARK  9 active torsions:
REMARK  status: ('A' for Active; 'I' for Inactive)
REMARK    1  A    between atoms: C_1  and  C_2
REMARK    2  A    between atoms: C_4  and  N_5
REMARK    3  A    between atoms: C_6  and  C_8
REMARK    4  A    between atoms: C_8  and  O_10
REMARK    5  A    between atoms: C_12  and  C_13
REMARK    6  A    between atoms: C_14  and  O_15
REMARK    7  A    between atoms: O_15  and  C_16
REMARK    8  A    between atoms: C_19  and  O_20
REMARK    9  A    between atoms: C_21  and  C_22
REMARK                            x       y       z     vdW  Elec       q    Type
REMARK                         _______ _______ _______ _____ _____    ______ ____
ROOT
ATOM      1  C   UNL     1      -1.471   9.504  16.904  0.00  0.00    +0.000 C 
ATOM      2  C   UNL     1      -1.606  10.529  18.000  0.00  0.00    +0.000 A 
ATOM      3  C   UNL     1      -2.898  11.042  18.191  0.00  0.00    +0.000 A 
ATOM      4  C   UNL     1      -3.176  12.041  19.116  0.00  0.00    +0.000 A 
ATOM      5  C   UNL     1      -2.139  12.514  19.922  0.00  0.00    +0.000 A 
ATOM      6  C   UNL     1      -0.834  11.995  19.795  0.00  0.00    +0.000 A 
ATOM      7  C   UNL     1       0.256  12.521  20.693  0.00  0.00    +0.000 C 
ATOM      8  C   UNL     1      -0.566  10.994  18.828  0.00  0.00    +0.000 A 
ENDROOT
BRANCH   4   9
ATOM      9  N   UNL     1      -4.458  12.607  19.242  0.00  0.00    +0.000 N 
ATOM     10  C   UNL     1      -5.657  11.945  19.076  0.00  0.00    +0.000 C 
ATOM     11  O   UNL     1      -5.894  10.764  18.835  0.00  0.00    +0.000 OA
ATOM     12  H   UNL     1      -4.528  13.604  19.434  0.00  0.00    +0.000 HD
BRANCH  10  13
ATOM     13  C   UNL     1      -6.888  12.838  19.210  0.00  0.00    +0.000 C 
ATOM     14  O   UNL     1      -7.114  13.489  20.206  0.00  0.00    +0.000 OA
BRANCH  13  15
ATOM     15  O   UNL     1      -7.641  12.789  18.091  0.00  0.00    +0.000 OA
ATOM     16  H   UNL     1      -7.902  11.843  17.939  0.00  0.00    +0.000 HD
ENDBRANCH  13  15
ENDBRANCH  10  13
ENDBRANCH   4   9
BRANCH   8  17
ATOM     17  O   UNL     1       0.760  10.617  18.700  0.00  0.00    +0.000 OA
BRANCH  17  18
ATOM     18  C   UNL     1       1.177   9.392  19.168  0.00  0.00    +0.000 A 
ATOM     19  C   UNL     1       0.871   9.089  20.488  0.00  0.00    +0.000 A 
ATOM     20  C   UNL     1       1.343   7.903  21.041  0.00  0.00    +0.000 A 
ATOM     21  C   UNL     1       2.093   7.006  20.261  0.00  0.00    +0.000 A 
ATOM     22  C   UNL     1       2.378   7.247  18.895  0.00  0.00    +0.000 A 
ATOM     23  C   UNL     1       1.882   8.466  18.390  0.00  0.00    +0.000 A 
BRANCH  22  24
ATOM     24  C   UNL     1       3.198   6.334  18.020  0.00  0.00    +0.000 A 
ATOM     25  C   UNL     1       4.406   6.802  17.448  0.00  0.00    +0.000 A 
ATOM     26  C   UNL     1       5.255   5.987  16.683  0.00  0.00    +0.000 A 
ATOM     27  C   UNL     1       4.890   4.682  16.396  0.00  0.00    +0.000 A 
ATOM     28  C   UNL     1       3.681   4.199  16.875  0.00  0.00    +0.000 A 
ATOM     29  C   UNL     1       2.858   4.993  17.694  0.00  0.00    +0.000 A 
ATOM     30 CL   UNL     1       1.466   4.144  18.297  0.00  0.00    +0.000 Cl
ENDBRANCH  22  24
BRANCH  21  31
ATOM     31  O   UNL     1       2.543   5.868  20.880  0.00  0.00    +0.000 OA
ATOM     32  H   UNL     1       2.286   5.092  20.355  0.00  0.00    +0.000 HD
ENDBRANCH  21  31
ENDBRANCH  17  18
ENDBRANCH   8  17
TORSDOF 7
ENDMDL
MODEL 6
REMARK VINA RESULT:      -7.6      3.947      9.836
REMARK  Name = 
REMARK  9 active torsions:
REMARK  status: ('A' for Active; 'I' for Inactive)
REMARK    1  A    between atoms: C_1  and  C_2
REMARK    2  A    between atoms: C_4  and  N_5
REMARK    3  A    between atoms: C_6  and  C_8
REMARK    4  A    between atoms: C_8  and  O_10
REMARK    5  A    between atoms: C_12  and  C_13
REMARK    6  A    between atoms: C_14  and  O_15
REMARK    7  A    between atoms: O_15  and  C_16
REMARK    8  A    between atoms: C_19  and  O_20
REMARK    9  A    between atoms: C_21  and  C_22
REMARK                            x       y       z     vdW  Elec       q    Type
REMARK                         _______ _______ _______ _____ _____    ______ ____
ROOT
ATOM      1  C   UNL     1      -0.130   9.413  22.298  0.00  0.00    +0.000 C 
ATOM      2  C   UNL     1       0.663   8.754  21.199  0.00  0.00    +0.000 A 
ATOM      3  C   UNL     1       1.081   7.440  21.460  0.00  0.00    +0.000 A 
ATOM      4  C   UNL     1       1.876   6.720  20.576  0.00  0.00    +0.000 A 
ATOM      5  C   UNL     1       2.227   7.307  19.360  0.00  0.00    +0.000 A 
ATOM      6  C   UNL     1       1.791   8.609  19.037  0.00  0.00    +0.000 A 
ATOM      7  C   UNL     1       2.179   9.204  17.707  0.00  0.00    +0.000 C 
ATOM      8  C   UNL     1       1.003   9.337  19.963  0.00  0.00    +0.000 A 
ENDROOT
BRANCH   4   9
ATOM      9  N   UNL     1       2.358   5.434  20.884  0.00  0.00    +0.000 N 
ATOM     10  C   UNL     1       1.814   4.239  20.458  0.00  0.00    +0.000 C 
ATOM     11  O   UNL     1       0.861   4.012  19.718  0.00  0.00    +0.000 OA
ATOM     12  H   UNL     1       3.158   5.356  21.509  0.00  0.00    +0.000 HD
BRANCH  10  13
ATOM     13  C   UNL     1       2.517   3.001  21.009  0.00  0.00    +0.000 C 
ATOM     14  O   UNL     1       2.524   2.727  22.188  0.00  0.00    +0.000 OA
BRANCH  13  15
ATOM     15  O   UNL     1       3.095   2.296  20.014  0.00  0.00    +0.000 OA
ATOM     16  H   UNL     1       4.063   2.211  20.220  0.00  0.00    +0.000 HD
ENDBRANCH  13  15
ENDBRANCH  10  13
ENDBRANCH   4   9
BRANCH   8  17
ATOM     17  O   UNL     1       0.707  10.642  19.609  0.00  0.00    +0.000 OA
BRANCH  17  18
ATOM     18  C   UNL     1      -0.588  11.002  19.316  0.00  0.00    +0.000 A 
ATOM     19  C   UNL     1      -1.110  10.539  18.116  0.00  0.00    +0.000 A 
ATOM     20  C   UNL     1      -2.383  10.943  17.726  0.00  0.00    +0.000 A 
ATOM     21  C   UNL     1      -3.145  11.783  18.556  0.00  0.00    +0.000 A 
ATOM     22  C   UNL     1      -2.676  12.231  19.815  0.00  0.00    +0.000 A 
ATOM     23  C   UNL     1      -1.378  11.798  20.155  0.00  0.00    +0.000 A 
BRANCH  22  24
ATOM     24  C   UNL     1      -3.439  13.152  20.733  0.00  0.00    +0.000 A 
ATOM     25  C   UNL     1      -4.581  12.674  21.420  0.00  0.00    +0.000 A 
ATOM     26  C   UNL     1      -5.298  13.451  22.343  0.00  0.00    +0.000 A 
ATOM     27  C   UNL     1      -4.942  14.771  22.563  0.00  0.00    +0.000 A 
ATOM     28  C   UNL     1      -3.871  15.306  21.860  0.00  0.00    +0.000 A 
ATOM     29  C   UNL     1      -3.112  14.512  20.981  0.00  0.00    +0.000 A 
ATOM     30 CL   UNL     1      -1.736  15.343  20.320  0.00  0.00    +0.000 Cl
ENDBRANCH  22  24
BRANCH  21  31
ATOM     31  O   UNL     1      -4.382  12.157  18.096  0.00  0.00    +0.000 OA
ATOM     32  H   UNL     1      -4.583  11.671  17.280  0.00  0.00    +0.000 HD
ENDBRANCH  21  31
ENDBRANCH  17  18
ENDBRANCH   8  17
TORSDOF 7
ENDMDL
MODEL 7
REMARK VINA RESULT:      -7.5      1.096      1.546
REMARK  Name = 
REMARK  9 active torsions:
REMARK  status: ('A' for Active; 'I' for Inactive)
REMARK    1  A    between atoms: C_1  and  C_2
REMARK    2  A    between atoms: C_4  and  N_5
REMARK    3  A    between atoms: C_6  and  C_8
REMARK    4  A    between atoms: C_8  and  O_10
REMARK    5  A    between atoms: C_12  and  C_13
REMARK    6  A    between atoms: C_14  and  O_15
REMARK    7  A    between atoms: O_15  and  C_16
REMARK    8  A    between atoms: C_19  and  O_20
REMARK    9  A    between atoms: C_21  and  C_22
REMARK                            x       y       z     vdW  Elec       q    Type
REMARK                         _______ _______ _______ _____ _____    ______ ____
ROOT
ATOM      1  C   UNL     1       2.081   8.903  17.575  0.00  0.00    +0.000 C 
ATOM      2  C   UNL     1       0.966   9.248  18.527  0.00  0.00    +0.000 A 
ATOM      3  C   UNL     1      -0.125   9.925  17.960  0.00  0.00    +0.000 A 
ATOM      4  C   UNL     1      -1.202  10.371  18.716  0.00  0.00    +0.000 A 
ATOM      5  C   UNL     1      -1.225  10.087  20.082  0.00  0.00    +0.000 A 
ATOM      6  C   UNL     1      -0.171   9.369  20.686  0.00  0.00    +0.000 A 
ATOM      7  C   UNL     1      -0.239   9.069  22.161  0.00  0.00    +0.000 C 
ATOM      8  C   UNL     1       0.931   8.946  19.902  0.00  0.00    +0.000 A 
ENDROOT
BRANCH   4   9
ATOM      9  N   UNL     1      -2.250  11.123  18.153  0.00  0.00    +0.000 N 
ATOM     10  C   UNL     1      -3.472  10.630  17.742  0.00  0.00    +0.000 C 
ATOM     11  O   UNL     1      -3.939   9.496  17.799  0.00  0.00    +0.000 OA
ATOM     12  H   UNL     1      -2.098  12.116  17.989  0.00  0.00    +0.000 HD
BRANCH  10  13
ATOM     13  C   UNL     1      -4.386  11.675  17.106  0.00  0.00    +0.000 C 
ATOM     14  O   UNL     1      -5.284  12.212  17.716  0.00  0.00    +0.000 OA
BRANCH  13  15
ATOM     15  O   UNL     1      -4.041  11.894  15.820  0.00  0.00    +0.000 OA
ATOM     16  H   UNL     1      -4.100  11.030  15.335  0.00  0.00    +0.000 HD
ENDBRANCH  13  15
ENDBRANCH  10  13
ENDBRANCH   4   9
BRANCH   8  17
ATOM     17  O   UNL     1       1.966   8.339  20.593  0.00  0.00    +0.000 OA
BRANCH  17  18
ATOM     18  C   UNL     1       2.326   7.045  20.300  0.00  0.00    +0.000 A 
ATOM     19  C   UNL     1       1.501   6.040  20.785  0.00  0.00    +0.000 A 
ATOM     20  C   UNL     1       1.862   4.710  20.596  0.00  0.00    +0.000 A 
ATOM     21  C   UNL     1       3.035   4.388  19.890  0.00  0.00    +0.000 A 
ATOM     22  C   UNL     1       3.875   5.379  19.327  0.00  0.00    +0.000 A 
ATOM     23  C   UNL     1       3.464   6.708  19.556  0.00  0.00    +0.000 A 
BRANCH  22  24
ATOM     24  C   UNL     1       5.155   5.092  18.584  0.00  0.00    +0.000 A 
ATOM     25  C   UNL     1       6.398   5.463  19.152  0.00  0.00    +0.000 A 
ATOM     26  C   UNL     1       7.631   5.165  18.552  0.00  0.00    +0.000 A 
ATOM     27  C   UNL     1       7.668   4.542  17.315  0.00  0.00    +0.000 A 
ATOM     28  C   UNL     1       6.474   4.221  16.686  0.00  0.00    +0.000 A 
ATOM     29  C   UNL     1       5.238   4.463  17.313  0.00  0.00    +0.000 A 
ATOM     30 CL   UNL     1       3.881   3.855  16.413  0.00  0.00    +0.000 Cl
ENDBRANCH  22  24
BRANCH  21  31
ATOM     31  O   UNL     1       3.338   3.057  19.761  0.00  0.00    +0.000 OA
ATOM     32  H   UNL     1       3.338   2.815  18.820  0.00  0.00    +0.000 HD
ENDBRANCH  21  31
ENDBRANCH  17  18
ENDBRANCH   8  17
TORSDOF 7
ENDMDL
MODEL 8
REMARK VINA RESULT:      -7.5      3.030      4.069
REMARK  Name = 
REMARK  9 active torsions:
REMARK  status: ('A' for Active; 'I' for Inactive)
REMARK    1  A    between atoms: C_1  and  C_2
REMARK    2  A    between atoms: C_4  and  N_5
REMARK    3  A    between atoms: C_6  and  C_8
REMARK    4  A    between atoms: C_8  and  O_10
REMARK    5  A    between atoms: C_12  and  C_13
REMARK    6  A    between atoms: C_14  and  O_15
REMARK    7  A    between atoms: O_15  and  C_16
REMARK    8  A    between atoms: C_19  and  O_20
REMARK    9  A    between atoms: C_21  and  C_22
REMARK                            x       y       z     vdW  Elec       q    Type
REMARK                         _______ _______ _______ _____ _____    ______ ____
ROOT
ATOM      1  C   UNL     1      -2.122  10.095  18.125  0.00  0.00    +0.000 C 
ATOM      2  C   UNL     1      -1.365  11.247  18.732  0.00  0.00    +0.000 A 
ATOM      3  C   UNL     1      -2.153  12.225  19.358  0.00  0.00    +0.000 A 
ATOM      4  C   UNL     1      -1.612  13.382  19.907  0.00  0.00    +0.000 A 
ATOM      5  C   UNL     1      -0.227  13.550  19.883  0.00  0.00    +0.000 A 
ATOM      6  C   UNL     1       0.607  12.570  19.304  0.00  0.00    +0.000 A 
ATOM      7  C   UNL     1       2.100  12.781  19.310  0.00  0.00    +0.000 C 
ATOM      8  C   UNL     1       0.034  11.410  18.727  0.00  0.00    +0.000 A 
ENDROOT
BRANCH   4   9
ATOM      9  N   UNL     1      -2.418  14.395  20.457  0.00  0.00    +0.000 N 
ATOM     10  C   UNL     1      -2.753  14.533  21.789  0.00  0.00    +0.000 C 
ATOM     11  O   UNL     1      -2.421  13.876  22.770  0.00  0.00    +0.000 OA
ATOM     12  H   UNL     1      -2.834  15.077  19.825  0.00  0.00    +0.000 HD
BRANCH  10  13
ATOM     13  C   UNL     1      -3.700  15.696  22.078  0.00  0.00    +0.000 C 
ATOM     14  O   UNL     1      -3.311  16.763  22.496  0.00  0.00    +0.000 OA
BRANCH  13  15
ATOM     15  O   UNL     1      -4.976  15.355  21.799  0.00  0.00    +0.000 OA
ATOM     16  H   UNL     1      -5.307  14.776  22.535  0.00  0.00    +0.000 HD
ENDBRANCH  13  15
ENDBRANCH  10  13
ENDBRANCH   4   9
BRANCH   8  17
ATOM     17  O   UNL     1       0.916  10.553  18.091  0.00  0.00    +0.000 OA
BRANCH  17  18
ATOM     18  C   UNL     1       1.293   9.377  18.697  0.00  0.00    +0.000 A 
ATOM     19  C   UNL     1       0.936   9.217  20.029  0.00  0.00    +0.000 A 
ATOM     20  C   UNL     1       1.366   8.088  20.719  0.00  0.00    +0.000 A 
ATOM     21  C   UNL     1       2.125   7.103  20.063  0.00  0.00    +0.000 A 
ATOM     22  C   UNL     1       2.461   7.197  18.690  0.00  0.00    +0.000 A 
ATOM     23  C   UNL     1       2.006   8.364  18.045  0.00  0.00    +0.000 A 
BRANCH  22  24
ATOM     24  C   UNL     1       3.292   6.185  17.944  0.00  0.00    +0.000 A 
ATOM     25  C   UNL     1       4.574   6.543  17.461  0.00  0.00    +0.000 A 
ATOM     26  C   UNL     1       5.431   5.635  16.821  0.00  0.00    +0.000 A 
ATOM     27  C   UNL     1       5.008   4.340  16.572  0.00  0.00    +0.000 A 
ATOM     28  C   UNL     1       3.732   3.960  16.965  0.00  0.00    +0.000 A 
ATOM     29  C   UNL     1       2.894   4.850  17.661  0.00  0.00    +0.000 A 
ATOM     30 CL   UNL     1       1.402   4.125  18.179  0.00  0.00    +0.000 Cl
ENDBRANCH  22  24
BRANCH  21  31
ATOM     31  O   UNL     1       2.531   6.028  20.812  0.00  0.00    +0.000 OA
ATOM     32  H   UNL     1       2.331   5.207  20.333  0.00  0.00    +0.000 HD
ENDBRANCH  21  31
ENDBRANCH  17  18
ENDBRANCH   8  17
TORSDOF 7
ENDMDL
MODEL 9
REMARK VINA RESULT:      -7.5      4.354      8.351
REMARK  Name = 
REMARK  9 active torsions:
REMARK  status: ('A' for Active; 'I' for Inactive)
REMARK    1  A    between atoms: C_1  and  C_2
REMARK    2  A    between atoms: C_4  and  N_5
REMARK    3  A    between atoms: C_6  and  C_8
REMARK    4  A    between atoms: C_8  and  O_10
REMARK    5  A    between atoms: C_12  and  C_13
REMARK    6  A    between atoms: C_14  and  O_15
REMARK    7  A    between atoms: O_15  and  C_16
REMARK    8  A    between atoms: C_19  and  O_20
REMARK    9  A    between atoms: C_21  and  C_22
REMARK                            x       y       z     vdW  Elec       q    Type
REMARK                         _______ _______ _______ _____ _____    ______ ____
ROOT
ATOM      1  C   UNL     1       8.084   5.319  20.184  0.00  0.00    +0.000 C 
ATOM      2  C   UNL     1       7.643   6.120  18.987  0.00  0.00    +0.000 A 
ATOM      3  C   UNL     1       8.314   7.338  18.795  0.00  0.00    +0.000 A 
ATOM      4  C   UNL     1       7.979   8.223  17.777  0.00  0.00    +0.000 A 
ATOM      5  C   UNL     1       6.973   7.862  16.879  0.00  0.00    +0.000 A 
ATOM      6  C   UNL     1       6.303   6.627  17.008  0.00  0.00    +0.000 A 
ATOM      7  C   UNL     1       5.232   6.266  16.011  0.00  0.00    +0.000 C 
ATOM      8  C   UNL     1       6.642   5.750  18.069  0.00  0.00    +0.000 A 
ENDROOT
BRANCH   4   9
ATOM      9  N   UNL     1       8.601   9.478  17.643  0.00  0.00    +0.000 N 
ATOM     10  C   UNL     1       9.063  10.268  18.676  0.00  0.00    +0.000 C 
ATOM     11  O   UNL     1       9.085  10.071  19.888  0.00  0.00    +0.000 OA
ATOM     12  H   UNL     1       8.693   9.874  16.710  0.00  0.00    +0.000 HD
BRANCH  10  13
ATOM     13  C   UNL     1       9.634  11.612  18.228  0.00  0.00    +0.000 C 
ATOM     14  O   UNL     1       9.174  12.670  18.598  0.00  0.00    +0.000 OA
BRANCH  13  15
ATOM     15  O   UNL     1      10.684  11.435  17.400  0.00  0.00    +0.000 OA
ATOM     16  H   UNL     1      11.507  11.390  17.954  0.00  0.00    +0.000 HD
ENDBRANCH  13  15
ENDBRANCH  10  13
ENDBRANCH   4   9
BRANCH   8  17
ATOM     17  O   UNL     1       5.865   4.610  18.181  0.00  0.00    +0.000 OA
BRANCH  17  18
ATOM     18  C   UNL     1       4.659   4.658  18.841  0.00  0.00    +0.000 A 
ATOM     19  C   UNL     1       4.098   3.443  19.209  0.00  0.00    +0.000 A 
ATOM     20  C   UNL     1       2.839   3.425  19.800  0.00  0.00    +0.000 A 
ATOM     21  C   UNL     1       2.158   4.628  20.053  0.00  0.00    +0.000 A 
ATOM     22  C   UNL     1       2.718   5.893  19.749  0.00  0.00    +0.000 A 
ATOM     23  C   UNL     1       3.990   5.850  19.145  0.00  0.00    +0.000 A 
BRANCH  22  24
ATOM     24  C   UNL     1       2.023   7.211  19.975  0.00  0.00    +0.000 A 
ATOM     25  C   UNL     1       1.440   7.494  21.234  0.00  0.00    +0.000 A 
ATOM     26  C   UNL     1       0.841   8.726  21.539  0.00  0.00    +0.000 A 
ATOM     27  C   UNL     1       0.734   9.705  20.566  0.00  0.00    +0.000 A 
ATOM     28  C   UNL     1       1.228   9.449  19.294  0.00  0.00    +0.000 A 
ATOM     29  C   UNL     1       1.885   8.239  19.004  0.00  0.00    +0.000 A 
ATOM     30 CL   UNL     1       2.547   8.187  17.398  0.00  0.00    +0.000 Cl
ENDBRANCH  22  24
BRANCH  21  31
ATOM     31  O   UNL     1       0.912   4.532  20.619  0.00  0.00    +0.000 OA
ATOM     32  H   UNL     1       0.355   3.950  20.076  0.00  0.00    +0.000 HD
ENDBRANCH  21  31
ENDBRANCH  17  18
ENDBRANCH   8  17
TORSDOF 7
ENDMDL
