MODEL 1
REMARK VINA RESULT:      -9.3      0.000      0.000
REMARK  Name = 
REMARK  6 active torsions:
REMARK  status: ('A' for Active; 'I' for Inactive)
REMARK    1  A    between atoms: C_1  and  C_2
REMARK    2  A    between atoms: C_2  and  C_3
REMARK    3  A    between atoms: N_5  and  C_6
REMARK    4  A    between atoms: C_6  and  C_7
REMARK    5  A    between atoms: C_11  and  N_12
REMARK    6  A    between atoms: C_22  and  C_23
REMARK                            x       y       z     vdW  Elec       q    Type
REMARK                         _______ _______ _______ _____ _____    ______ ____
ROOT
ATOM      1  N   UNL     1       2.781   8.318  18.188  0.00  0.00    +0.000 N 
ATOM      2  C   UNL     1       2.979   6.965  17.992  0.00  0.00    +0.000 A 
ATOM      3  N   UNL     1       2.107   6.058  18.346  0.00  0.00    +0.000 NA
ATOM      4  C   UNL     1       2.349   4.688  18.142  0.00  0.00    +0.000 A 
ATOM      5  C   UNL     1       1.404   3.779  18.613  0.00  0.00    +0.000 A 
ATOM      6  C   UNL     1       1.629   2.407  18.503  0.00  0.00    +0.000 A 
ATOM      7  C   UNL     1       2.806   1.938  17.918  0.00  0.00    +0.000 A 
ATOM      8  C   UNL     1       3.749   2.831  17.403  0.00  0.00    +0.000 A 
ATOM      9  C   UNL     1       3.496   4.200  17.492  0.00  0.00    +0.000 A 
ATOM     10  N   UNL     1       4.363   5.188  17.010  0.00  0.00    +0.000 N 
ATOM     11  C   UNL     1       5.404   5.205  16.110  0.00  0.00    +0.000 A 
ATOM     12  C   UNL     1       5.611   4.227  15.018  0.00  0.00    +0.000 C 
ATOM     13  N   UNL     1       6.007   6.380  16.195  0.00  0.00    +0.000 NA
ATOM     14  N   UNL     1       5.216   7.214  16.957  0.00  0.00    +0.000 NA
ATOM     15  C   UNL     1       4.182   6.499  17.344  0.00  0.00    +0.000 A 
ATOM     16  H   UNL     1       3.536   8.915  17.865  0.00  0.00    +0.000 HD
ENDROOT
BRANCH   1  21
ATOM     17  C   UNL     1      -0.174  10.533  18.912  0.00  0.00    +0.000 A 
ATOM     18  C   UNL     1      -0.484  10.103  20.203  0.00  0.00    +0.000 A 
ATOM     19  C   UNL     1       0.317   9.142  20.827  0.00  0.00    +0.000 A 
ATOM     20  C   UNL     1       1.415   8.593  20.160  0.00  0.00    +0.000 A 
ATOM     21  C   UNL     1       1.725   8.970  18.847  0.00  0.00    +0.000 A 
ATOM     22  C   UNL     1       0.919   9.948  18.248  0.00  0.00    +0.000 A 
BRANCH  17  23
ATOM     23  C   UNL     1      -0.953  11.633  18.241  0.00  0.00    +0.000 C 
BRANCH  23  26
ATOM     24  C   UNL     1      -3.132  11.223  17.225  0.00  0.00    +0.000 C 
ATOM     25  O   UNL     1      -3.717  11.691  18.197  0.00  0.00    +0.000 OA
ATOM     26  N   UNL     1      -1.757  11.167  17.134  0.00  0.00    +0.000 N 
ATOM     27  H   UNL     1      -1.315  10.657  16.382  0.00  0.00    +0.000 HD
BRANCH  24  29
ATOM     28  C   UNL     1      -2.880  10.253  14.918  0.00  0.00    +0.000 C 
ATOM     29  C   UNL     1      -3.852  10.675  16.007  0.00  0.00    +0.000 C 
ENDBRANCH  24  29
ENDBRANCH  23  26
ENDBRANCH  17  23
ENDBRANCH   1  21
TORSDOF 4
ENDMDL
MODEL 2
REMARK VINA RESULT:      -8.9      1.852      3.260
REMARK  Name = 
REMARK  6 active torsions:
REMARK  status: ('A' for Active; 'I' for Inactive)
REMARK    1  A    between atoms: C_1  and  C_2
REMARK    2  A    between atoms: C_2  and  C_3
REMARK    3  A    between atoms: N_5  and  C_6
REMARK    4  A    between atoms: C_6  and  C_7
REMARK    5  A    between atoms: C_11  and  N_12
REMARK    6  A    between atoms: C_22  and  C_23
REMARK                            x       y       z     vdW  Elec       q    Type
REMARK                         _______ _______ _______ _____ _____    ______ ____
ROOT
ATOM      1  N   UNL     1       1.428   7.012  20.977  0.00  0.00    +0.000 N 
ATOM      2  C   UNL     1       2.222   6.316  20.085  0.00  0.00    +0.000 A 
ATOM      3  N   UNL     1       2.883   6.894  19.118  0.00  0.00    +0.000 NA
ATOM      4  C   UNL     1       3.672   6.151  18.222  0.00  0.00    +0.000 A 
ATOM      5  C   UNL     1       4.287   6.830  17.173  0.00  0.00    +0.000 A 
ATOM      6  C   UNL     1       5.020   6.131  16.214  0.00  0.00    +0.000 A 
ATOM      7  C   UNL     1       5.139   4.743  16.301  0.00  0.00    +0.000 A 
ATOM      8  C   UNL     1       4.563   4.046  17.367  0.00  0.00    +0.000 A 
ATOM      9  C   UNL     1       3.861   4.762  18.336  0.00  0.00    +0.000 A 
ATOM     10  N   UNL     1       3.245   4.175  19.447  0.00  0.00    +0.000 N 
ATOM     11  C   UNL     1       3.375   2.971  20.101  0.00  0.00    +0.000 A 
ATOM     12  C   UNL     1       4.576   2.106  20.076  0.00  0.00    +0.000 C 
ATOM     13  N   UNL     1       2.386   2.863  20.973  0.00  0.00    +0.000 NA
ATOM     14  N   UNL     1       1.763   4.090  21.070  0.00  0.00    +0.000 NA
ATOM     15  C   UNL     1       2.371   4.886  20.218  0.00  0.00    +0.000 A 
ATOM     16  H   UNL     1       0.970   6.443  21.682  0.00  0.00    +0.000 HD
ENDROOT
BRANCH   1  21
ATOM     17  C   UNL     1       0.365  10.455  19.890  0.00  0.00    +0.000 A 
ATOM     18  C   UNL     1       0.287  11.084  21.134  0.00  0.00    +0.000 A 
ATOM     19  C   UNL     1       0.640  10.384  22.291  0.00  0.00    +0.000 A 
ATOM     20  C   UNL     1       1.053   9.051  22.215  0.00  0.00    +0.000 A 
ATOM     21  C   UNL     1       1.099   8.378  20.987  0.00  0.00    +0.000 A 
ATOM     22  C   UNL     1       0.756   9.105  19.838  0.00  0.00    +0.000 A 
BRANCH  17  23
ATOM     23  C   UNL     1       0.085  11.200  18.612  0.00  0.00    +0.000 C 
BRANCH  23  26
ATOM     24  C   UNL     1      -1.986  10.739  17.409  0.00  0.00    +0.000 C 
ATOM     25  O   UNL     1      -2.553  11.686  17.945  0.00  0.00    +0.000 OA
ATOM     26  N   UNL     1      -0.666  10.423  17.653  0.00  0.00    +0.000 N 
ATOM     27  H   UNL     1      -0.273   9.562  17.298  0.00  0.00    +0.000 HD
BRANCH  24  29
ATOM     28  C   UNL     1      -2.968  10.545  15.101  0.00  0.00    +0.000 C 
ATOM     29  C   UNL     1      -2.662   9.826  16.404  0.00  0.00    +0.000 C 
ENDBRANCH  24  29
ENDBRANCH  23  26
ENDBRANCH  17  23
ENDBRANCH   1  21
TORSDOF 4
ENDMDL
MODEL 3
REMARK VINA RESULT:      -8.9      1.304      1.335
REMARK  Name = 
REMARK  6 active torsions:
REMARK  status: ('A' for Active; 'I' for Inactive)
REMARK    1  A    between atoms: C_1  and  C_2
REMARK    2  A    between atoms: C_2  and  C_3
REMARK    3  A    between atoms: N_5  and  C_6
REMARK    4  A    between atoms: C_6  and  C_7
REMARK    5  A    between atoms: C_11  and  N_12
REMARK    6  A    between atoms: C_22  and  C_23
REMARK                            x       y       z     vdW  Elec       q    Type
REMARK                         _______ _______ _______ _____ _____    ______ ____
ROOT
ATOM      1  N   UNL     1       2.211   8.534  18.344  0.00  0.00    +0.000 N 
ATOM      2  C   UNL     1       2.591   7.242  18.651  0.00  0.00    +0.000 A 
ATOM      3  N   UNL     1       2.007   6.528  19.577  0.00  0.00    +0.000 NA
ATOM      4  C   UNL     1       2.430   5.219  19.870  0.00  0.00    +0.000 A 
ATOM      5  C   UNL     1       1.806   4.550  20.920  0.00  0.00    +0.000 A 
ATOM      6  C   UNL     1       2.236   3.279  21.300  0.00  0.00    +0.000 A 
ATOM      7  C   UNL     1       3.298   2.671  20.630  0.00  0.00    +0.000 A 
ATOM      8  C   UNL     1       3.913   3.309  19.548  0.00  0.00    +0.000 A 
ATOM      9  C   UNL     1       3.451   4.566  19.159  0.00  0.00    +0.000 A 
ATOM     10  N   UNL     1       3.985   5.298  18.091  0.00  0.00    +0.000 N 
ATOM     11  C   UNL     1       4.754   4.986  16.994  0.00  0.00    +0.000 A 
ATOM     12  C   UNL     1       4.858   3.647  16.370  0.00  0.00    +0.000 C 
ATOM     13  N   UNL     1       5.141   6.115  16.423  0.00  0.00    +0.000 NA
ATOM     14  N   UNL     1       4.426   7.149  16.990  0.00  0.00    +0.000 NA
ATOM     15  C   UNL     1       3.662   6.612  17.915  0.00  0.00    +0.000 A 
ATOM     16  H   UNL     1       2.746   8.977  17.603  0.00  0.00    +0.000 HD
ENDROOT
BRANCH   1  21
ATOM     17  C   UNL     1      -0.528  11.047  18.940  0.00  0.00    +0.000 A 
ATOM     18  C   UNL     1      -0.778  10.810  20.292  0.00  0.00    +0.000 A 
ATOM     19  C   UNL     1      -0.005   9.877  20.991  0.00  0.00    +0.000 A 
ATOM     20  C   UNL     1       1.005   9.164  20.339  0.00  0.00    +0.000 A 
ATOM     21  C   UNL     1       1.250   9.346  18.972  0.00  0.00    +0.000 A 
ATOM     22  C   UNL     1       0.474  10.298  18.296  0.00  0.00    +0.000 A 
BRANCH  17  23
ATOM     23  C   UNL     1      -1.272  12.109  18.176  0.00  0.00    +0.000 C 
BRANCH  23  26
ATOM     24  C   UNL     1      -3.341  11.359  17.123  0.00  0.00    +0.000 C 
ATOM     25  O   UNL     1      -3.991  11.609  18.134  0.00  0.00    +0.000 OA
ATOM     26  N   UNL     1      -1.984  11.592  17.030  0.00  0.00    +0.000 N 
ATOM     27  H   UNL     1      -1.462  11.252  16.234  0.00  0.00    +0.000 HD
BRANCH  24  29
ATOM     28  C   UNL     1      -2.898  10.274  14.898  0.00  0.00    +0.000 C 
ATOM     29  C   UNL     1      -3.956  10.789  15.860  0.00  0.00    +0.000 C 
ENDBRANCH  24  29
ENDBRANCH  23  26
ENDBRANCH  17  23
ENDBRANCH   1  21
TORSDOF 4
ENDMDL
MODEL 4
REMARK VINA RESULT:      -8.9      2.084      3.090
REMARK  Name = 
REMARK  6 active torsions:
REMARK  status: ('A' for Active; 'I' for Inactive)
REMARK    1  A    between atoms: C_1  and  C_2
REMARK    2  A    between atoms: C_2  and  C_3
REMARK    3  A    between atoms: N_5  and  C_6
REMARK    4  A    between atoms: C_6  and  C_7
REMARK    5  A    between atoms: C_11  and  N_12
REMARK    6  A    between atoms: C_22  and  C_23
REMARK                            x       y       z     vdW  Elec       q    Type
REMARK                         _______ _______ _______ _____ _____    ______ ____
ROOT
ATOM      1  N   UNL     1       2.739   8.286  18.085  0.00  0.00    +0.000 N 
ATOM      2  C   UNL     1       2.966   6.931  17.938  0.00  0.00    +0.000 A 
ATOM      3  N   UNL     1       2.084   6.022  18.258  0.00  0.00    +0.000 NA
ATOM      4  C   UNL     1       2.357   4.650  18.106  0.00  0.00    +0.000 A 
ATOM      5  C   UNL     1       1.395   3.740  18.537  0.00  0.00    +0.000 A 
ATOM      6  C   UNL     1       1.643   2.369  18.477  0.00  0.00    +0.000 A 
ATOM      7  C   UNL     1       2.862   1.902  17.984  0.00  0.00    +0.000 A 
ATOM      8  C   UNL     1       3.826   2.796  17.509  0.00  0.00    +0.000 A 
ATOM      9  C   UNL     1       3.550   4.163  17.545  0.00  0.00    +0.000 A 
ATOM     10  N   UNL     1       4.435   5.150  17.096  0.00  0.00    +0.000 N 
ATOM     11  C   UNL     1       5.532   5.160  16.266  0.00  0.00    +0.000 A 
ATOM     12  C   UNL     1       5.824   4.158  15.215  0.00  0.00    +0.000 C 
ATOM     13  N   UNL     1       6.114   6.345  16.360  0.00  0.00    +0.000 NA
ATOM     14  N   UNL     1       5.264   7.186  17.046  0.00  0.00    +0.000 NA
ATOM     15  C   UNL     1       4.216   6.466  17.382  0.00  0.00    +0.000 A 
ATOM     16  H   UNL     1       3.507   8.886  17.797  0.00  0.00    +0.000 HD
ENDROOT
BRANCH   1  21
ATOM     17  C   UNL     1       0.406   9.885  20.567  0.00  0.00    +0.000 A 
ATOM     18  C   UNL     1      -0.544  10.417  19.694  0.00  0.00    +0.000 A 
ATOM     19  C   UNL     1      -0.429  10.190  18.319  0.00  0.00    +0.000 A 
ATOM     20  C   UNL     1       0.641   9.449  17.810  0.00  0.00    +0.000 A 
ATOM     21  C   UNL     1       1.634   8.940  18.656  0.00  0.00    +0.000 A 
ATOM     22  C   UNL     1       1.490   9.166  20.032  0.00  0.00    +0.000 A 
BRANCH  17  23
ATOM     23  C   UNL     1       0.268  10.026  22.060  0.00  0.00    +0.000 C 
BRANCH  23  26
ATOM     24  C   UNL     1      -1.238  11.745  22.911  0.00  0.00    +0.000 C 
ATOM     25  O   UNL     1      -0.337  12.578  22.933  0.00  0.00    +0.000 OA
ATOM     26  N   UNL     1      -1.050  10.451  22.472  0.00  0.00    +0.000 N 
ATOM     27  H   UNL     1      -1.778   9.761  22.593  0.00  0.00    +0.000 HD
BRANCH  24  29
ATOM     28  C   UNL     1      -3.501  12.574  22.188  0.00  0.00    +0.000 C 
ATOM     29  C   UNL     1      -2.661  12.049  23.341  0.00  0.00    +0.000 C 
ENDBRANCH  24  29
ENDBRANCH  23  26
ENDBRANCH  17  23
ENDBRANCH   1  21
TORSDOF 4
ENDMDL
MODEL 5
REMARK VINA RESULT:      -8.8      0.798      1.007
REMARK  Name = 
REMARK  6 active torsions:
REMARK  status: ('A' for Active; 'I' for Inactive)
REMARK    1  A    between atoms: C_1  and  C_2
REMARK    2  A    between atoms: C_2  and  C_3
REMARK    3  A    between atoms: N_5  and  C_6
REMARK    4  A    between atoms: C_6  and  C_7
REMARK    5  A    between atoms: C_11  and  N_12
REMARK    6  A    between atoms: C_22  and  C_23
REMARK                            x       y       z     vdW  Elec       q    Type
REMARK                         _______ _______ _______ _____ _____    ______ ____
ROOT
ATOM      1  N   UNL     1       2.790   8.279  18.183  0.00  0.00    +0.000 N 
ATOM      2  C   UNL     1       2.998   6.927  17.988  0.00  0.00    +0.000 A 
ATOM      3  N   UNL     1       2.131   6.014  18.339  0.00  0.00    +0.000 NA
ATOM      4  C   UNL     1       2.383   4.646  18.137  0.00  0.00    +0.000 A 
ATOM      5  C   UNL     1       1.443   3.731  18.605  0.00  0.00    +0.000 A 
ATOM      6  C   UNL     1       1.678   2.360  18.495  0.00  0.00    +0.000 A 
ATOM      7  C   UNL     1       2.861   1.899  17.917  0.00  0.00    +0.000 A 
ATOM      8  C   UNL     1       3.800   2.798  17.405  0.00  0.00    +0.000 A 
ATOM      9  C   UNL     1       3.537   4.165  17.492  0.00  0.00    +0.000 A 
ATOM     10  N   UNL     1       4.399   5.159  17.014  0.00  0.00    +0.000 N 
ATOM     11  C   UNL     1       5.444   5.183  16.118  0.00  0.00    +0.000 A 
ATOM     12  C   UNL     1       5.663   4.206  15.027  0.00  0.00    +0.000 C 
ATOM     13  N   UNL     1       6.038   6.362  16.206  0.00  0.00    +0.000 NA
ATOM     14  N   UNL     1       5.238   7.191  16.964  0.00  0.00    +0.000 NA
ATOM     15  C   UNL     1       4.208   6.469  17.346  0.00  0.00    +0.000 A 
ATOM     16  H   UNL     1       3.543   8.881  17.863  0.00  0.00    +0.000 HD
ENDROOT
BRANCH   1  21
ATOM     17  C   UNL     1      -0.228  10.417  18.875  0.00  0.00    +0.000 A 
ATOM     18  C   UNL     1      -0.489  10.041  20.194  0.00  0.00    +0.000 A 
ATOM     19  C   UNL     1       0.362   9.142  20.843  0.00  0.00    +0.000 A 
ATOM     20  C   UNL     1       1.464   8.601  20.174  0.00  0.00    +0.000 A 
ATOM     21  C   UNL     1       1.727   8.924  18.837  0.00  0.00    +0.000 A 
ATOM     22  C   UNL     1       0.869   9.840  18.212  0.00  0.00    +0.000 A 
BRANCH  17  23
ATOM     23  C   UNL     1      -1.065  11.453  18.172  0.00  0.00    +0.000 C 
BRANCH  23  26
ATOM     24  C   UNL     1      -3.309  11.154  17.266  0.00  0.00    +0.000 C 
ATOM     25  O   UNL     1      -2.888  11.168  16.114  0.00  0.00    +0.000 OA
ATOM     26  N   UNL     1      -2.484  11.265  18.366  0.00  0.00    +0.000 N 
ATOM     27  H   UNL     1      -2.878  11.383  19.289  0.00  0.00    +0.000 HD
BRANCH  24  29
ATOM     28  C   UNL     1      -5.596  12.199  17.185  0.00  0.00    +0.000 C 
ATOM     29  C   UNL     1      -4.778  10.992  17.612  0.00  0.00    +0.000 C 
ENDBRANCH  24  29
ENDBRANCH  23  26
ENDBRANCH  17  23
ENDBRANCH   1  21
TORSDOF 4
ENDMDL
MODEL 6
REMARK VINA RESULT:      -8.8      4.546      8.138
REMARK  Name = 
REMARK  6 active torsions:
REMARK  status: ('A' for Active; 'I' for Inactive)
REMARK    1  A    between atoms: C_1  and  C_2
REMARK    2  A    between atoms: C_2  and  C_3
REMARK    3  A    between atoms: N_5  and  C_6
REMARK    4  A    between atoms: C_6  and  C_7
REMARK    5  A    between atoms: C_11  and  N_12
REMARK    6  A    between atoms: C_22  and  C_23
REMARK                            x       y       z     vdW  Elec       q    Type
REMARK                         _______ _______ _______ _____ _____    ______ ____
ROOT
ATOM      1  N   UNL     1       5.512   3.633  17.517  0.00  0.00    +0.000 N 
ATOM      2  C   UNL     1       4.576   4.248  18.326  0.00  0.00    +0.000 A 
ATOM      3  N   UNL     1       4.066   5.421  18.062  0.00  0.00    +0.000 NA
ATOM      4  C   UNL     1       3.125   6.021  18.918  0.00  0.00    +0.000 A 
ATOM      5  C   UNL     1       2.683   7.305  18.607  0.00  0.00    +0.000 A 
ATOM      6  C   UNL     1       1.806   7.975  19.460  0.00  0.00    +0.000 A 
ATOM      7  C   UNL     1       1.367   7.360  20.633  0.00  0.00    +0.000 A 
ATOM      8  C   UNL     1       1.767   6.058  20.945  0.00  0.00    +0.000 A 
ATOM      9  C   UNL     1       2.619   5.388  20.066  0.00  0.00    +0.000 A 
ATOM     10  N   UNL     1       3.083   4.083  20.271  0.00  0.00    +0.000 N 
ATOM     11  C   UNL     1       2.677   3.023  21.049  0.00  0.00    +0.000 A 
ATOM     12  C   UNL     1       1.307   2.817  21.572  0.00  0.00    +0.000 C 
ATOM     13  N   UNL     1       3.615   2.091  21.003  0.00  0.00    +0.000 NA
ATOM     14  N   UNL     1       4.506   2.428  20.006  0.00  0.00    +0.000 NA
ATOM     15  C   UNL     1       4.099   3.577  19.513  0.00  0.00    +0.000 A 
ATOM     16  H   UNL     1       5.826   2.721  17.836  0.00  0.00    +0.000 HD
ENDROOT
BRANCH   1  21
ATOM     17  C   UNL     1       6.543   4.183  13.939  0.00  0.00    +0.000 A 
ATOM     18  C   UNL     1       7.349   5.312  14.094  0.00  0.00    +0.000 A 
ATOM     19  C   UNL     1       7.582   5.831  15.372  0.00  0.00    +0.000 A 
ATOM     20  C   UNL     1       6.998   5.238  16.495  0.00  0.00    +0.000 A 
ATOM     21  C   UNL     1       6.149   4.131  16.367  0.00  0.00    +0.000 A 
ATOM     22  C   UNL     1       5.943   3.618  15.079  0.00  0.00    +0.000 A 
BRANCH  17  23
ATOM     23  C   UNL     1       6.343   3.538  12.594  0.00  0.00    +0.000 C 
BRANCH  23  26
ATOM     24  C   UNL     1       4.474   2.747  11.242  0.00  0.00    +0.000 C 
ATOM     25  O   UNL     1       5.071   1.716  10.949  0.00  0.00    +0.000 OA
ATOM     26  N   UNL     1       5.006   3.710  12.073  0.00  0.00    +0.000 N 
ATOM     27  H   UNL     1       4.543   4.602  12.184  0.00  0.00    +0.000 HD
BRANCH  24  29
ATOM     28  C   UNL     1       3.099   4.080   9.610  0.00  0.00    +0.000 C 
ATOM     29  C   UNL     1       3.077   3.068  10.744  0.00  0.00    +0.000 C 
ENDBRANCH  24  29
ENDBRANCH  23  26
ENDBRANCH  17  23
ENDBRANCH   1  21
TORSDOF 4
ENDMDL
MODEL 7
REMARK VINA RESULT:      -8.6      3.545      8.432
REMARK  Name = 
REMARK  6 active torsions:
REMARK  status: ('A' for Active; 'I' for Inactive)
REMARK    1  A    between atoms: C_1  and  C_2
REMARK    2  A    between atoms: C_2  and  C_3
REMARK    3  A    between atoms: N_5  and  C_6
REMARK    4  A    between atoms: C_6  and  C_7
REMARK    5  A    between atoms: C_11  and  N_12
REMARK    6  A    between atoms: C_22  and  C_23
REMARK                            x       y       z     vdW  Elec       q    Type
REMARK                         _______ _______ _______ _____ _____    ______ ____
ROOT
ATOM      1  N   UNL     1       2.083   7.419  20.282  0.00  0.00    +0.000 N 
ATOM      2  C   UNL     1       1.224   8.498  20.202  0.00  0.00    +0.000 A 
ATOM      3  N   UNL     1       0.640   8.864  19.092  0.00  0.00    +0.000 NA
ATOM      4  C   UNL     1      -0.219   9.977  19.046  0.00  0.00    +0.000 A 
ATOM      5  C   UNL     1      -0.745  10.347  17.812  0.00  0.00    +0.000 A 
ATOM      6  C   UNL     1      -1.543  11.486  17.698  0.00  0.00    +0.000 A 
ATOM      7  C   UNL     1      -1.817  12.261  18.825  0.00  0.00    +0.000 A 
ATOM      8  C   UNL     1      -1.332  11.886  20.081  0.00  0.00    +0.000 A 
ATOM      9  C   UNL     1      -0.562  10.727  20.184  0.00  0.00    +0.000 A 
ATOM     10  N   UNL     1      -0.025  10.251  21.387  0.00  0.00    +0.000 N 
ATOM     11  C   UNL     1      -0.295  10.467  22.718  0.00  0.00    +0.000 A 
ATOM     12  C   UNL     1      -1.585  10.944  23.268  0.00  0.00    +0.000 C 
ATOM     13  N   UNL     1       0.668   9.908  23.433  0.00  0.00    +0.000 NA
ATOM     14  N   UNL     1       1.423   9.118  22.592  0.00  0.00    +0.000 NA
ATOM     15  C   UNL     1       0.915   9.262  21.388  0.00  0.00    +0.000 A 
ATOM     16  H   UNL     1       2.468   7.241  21.205  0.00  0.00    +0.000 HD
ENDROOT
BRANCH   1  21
ATOM     17  C   UNL     1       4.117   6.070  17.417  0.00  0.00    +0.000 A 
ATOM     18  C   UNL     1       3.568   4.791  17.316  0.00  0.00    +0.000 A 
ATOM     19  C   UNL     1       2.507   4.421  18.148  0.00  0.00    +0.000 A 
ATOM     20  C   UNL     1       2.003   5.318  19.095  0.00  0.00    +0.000 A 
ATOM     21  C   UNL     1       2.562   6.592  19.251  0.00  0.00    +0.000 A 
ATOM     22  C   UNL     1       3.614   6.947  18.395  0.00  0.00    +0.000 A 
BRANCH  17  23
ATOM     23  C   UNL     1       5.196   6.539  16.477  0.00  0.00    +0.000 C 
BRANCH  23  26
ATOM     24  C   UNL     1       7.363   6.770  17.572  0.00  0.00    +0.000 C 
ATOM     25  O   UNL     1       7.613   5.579  17.413  0.00  0.00    +0.000 OA
ATOM     26  N   UNL     1       6.197   7.355  17.124  0.00  0.00    +0.000 N 
ATOM     27  H   UNL     1       5.968   8.303  17.388  0.00  0.00    +0.000 HD
BRANCH  24  29
ATOM     28  C   UNL     1       8.081   9.169  17.811  0.00  0.00    +0.000 C 
ATOM     29  C   UNL     1       8.312   7.734  18.257  0.00  0.00    +0.000 C 
ENDBRANCH  24  29
ENDBRANCH  23  26
ENDBRANCH  17  23
ENDBRANCH   1  21
TORSDOF 4
ENDMDL
MODEL 8
REMARK VINA RESULT:      -8.6      3.378      8.446
REMARK  Name = 
REMARK  6 active torsions:
REMARK  status: ('A' for Active; 'I' for Inactive)
REMARK    1  A    between atoms: C_1  and  C_2
REMARK    2  A    between atoms: C_2  and  C_3
REMARK    3  A    between atoms: N_5  and  C_6
REMARK    4  A    between atoms: C_6  and  C_7
REMARK    5  A    between atoms: C_11  and  N_12
REMARK    6  A    between atoms: C_22  and  C_23
REMARK                            x       y       z     vdW  Elec       q    Type
REMARK                         _______ _______ _______ _____ _____    ______ ____
ROOT
ATOM      1  N   UNL     1       2.196   7.475  20.241  0.00  0.00    +0.000 N 
ATOM      2  C   UNL     1       1.302   8.527  20.174  0.00  0.00    +0.000 A 
ATOM      3  N   UNL     1       0.707   8.888  19.069  0.00  0.00    +0.000 NA
ATOM      4  C   UNL     1      -0.188   9.972  19.037  0.00  0.00    +0.000 A 
ATOM      5  C   UNL     1      -0.726  10.341  17.806  0.00  0.00    +0.000 A 
ATOM      6  C   UNL     1      -1.561  11.454  17.706  0.00  0.00    +0.000 A 
ATOM      7  C   UNL     1      -1.860  12.206  18.843  0.00  0.00    +0.000 A 
ATOM      8  C   UNL     1      -1.362  11.832  20.094  0.00  0.00    +0.000 A 
ATOM      9  C   UNL     1      -0.555  10.697  20.184  0.00  0.00    +0.000 A 
ATOM     10  N   UNL     1      -0.003  10.224  21.380  0.00  0.00    +0.000 N 
ATOM     11  C   UNL     1      -0.280  10.415  22.714  0.00  0.00    +0.000 A 
ATOM     12  C   UNL     1      -1.585  10.842  23.269  0.00  0.00    +0.000 C 
ATOM     13  N   UNL     1       0.701   9.879  23.423  0.00  0.00    +0.000 NA
ATOM     14  N   UNL     1       1.481   9.124  22.572  0.00  0.00    +0.000 NA
ATOM     15  C   UNL     1       0.969   9.266  21.370  0.00  0.00    +0.000 A 
ATOM     16  H   UNL     1       2.587   7.300  21.162  0.00  0.00    +0.000 HD
ENDROOT
BRANCH   1  21
ATOM     17  C   UNL     1       4.361   6.153  17.462  0.00  0.00    +0.000 A 
ATOM     18  C   UNL     1       3.740   4.924  17.240  0.00  0.00    +0.000 A 
ATOM     19  C   UNL     1       2.594   4.582  17.964  0.00  0.00    +0.000 A 
ATOM     20  C   UNL     1       2.075   5.456  18.923  0.00  0.00    +0.000 A 
ATOM     21  C   UNL     1       2.701   6.678  19.201  0.00  0.00    +0.000 A 
ATOM     22  C   UNL     1       3.840   7.006  18.451  0.00  0.00    +0.000 A 
BRANCH  17  23
ATOM     23  C   UNL     1       5.540   6.599  16.638  0.00  0.00    +0.000 C 
BRANCH  23  26
ATOM     24  C   UNL     1       6.729   5.026  15.203  0.00  0.00    +0.000 C 
ATOM     25  O   UNL     1       7.567   4.806  16.072  0.00  0.00    +0.000 OA
ATOM     26  N   UNL     1       5.665   5.884  15.389  0.00  0.00    +0.000 N 
ATOM     27  H   UNL     1       5.074   6.141  14.611  0.00  0.00    +0.000 HD
BRANCH  24  29
ATOM     28  C   UNL     1       5.405   3.773  13.469  0.00  0.00    +0.000 C 
ATOM     29  C   UNL     1       6.755   4.365  13.838  0.00  0.00    +0.000 C 
ENDBRANCH  24  29
ENDBRANCH  23  26
ENDBRANCH  17  23
ENDBRANCH   1  21
TORSDOF 4
ENDMDL
MODEL 9
REMARK VINA RESULT:      -8.6      1.351      2.185
REMARK  Name = 
REMARK  6 active torsions:
REMARK  status: ('A' for Active; 'I' for Inactive)
REMARK    1  A    between atoms: C_1  and  C_2
REMARK    2  A    between atoms: C_2  and  C_3
REMARK    3  A    between atoms: N_5  and  C_6
REMARK    4  A    between atoms: C_6  and  C_7
REMARK    5  A    between atoms: C_11  and  N_12
REMARK    6  A    between atoms: C_22  and  C_23
REMARK                            x       y       z     vdW  Elec       q    Type
REMARK                         _______ _______ _______ _____ _____    ______ ____
ROOT
ATOM      1  N   UNL     1       2.804   8.169  18.185  0.00  0.00    +0.000 N 
ATOM      2  C   UNL     1       3.032   6.818  18.005  0.00  0.00    +0.000 A 
ATOM      3  N   UNL     1       2.189   5.896  18.387  0.00  0.00    +0.000 NA
ATOM      4  C   UNL     1       2.462   4.529  18.199  0.00  0.00    +0.000 A 
ATOM      5  C   UNL     1       1.548   3.605  18.698  0.00  0.00    +0.000 A 
ATOM      6  C   UNL     1       1.805   2.237  18.604  0.00  0.00    +0.000 A 
ATOM      7  C   UNL     1       2.984   1.788  18.007  0.00  0.00    +0.000 A 
ATOM      8  C   UNL     1       3.897   2.697  17.465  0.00  0.00    +0.000 A 
ATOM      9  C   UNL     1       3.610   4.060  17.538  0.00  0.00    +0.000 A 
ATOM     10  N   UNL     1       4.445   5.062  17.027  0.00  0.00    +0.000 N 
ATOM     11  C   UNL     1       5.471   5.092  16.111  0.00  0.00    +0.000 A 
ATOM     12  C   UNL     1       5.686   4.103  15.030  0.00  0.00    +0.000 C 
ATOM     13  N   UNL     1       6.045   6.282  16.169  0.00  0.00    +0.000 NA
ATOM     14  N   UNL     1       5.246   7.108  16.932  0.00  0.00    +0.000 NA
ATOM     15  C   UNL     1       4.237   6.373  17.345  0.00  0.00    +0.000 A 
ATOM     16  H   UNL     1       3.539   8.780  17.842  0.00  0.00    +0.000 HD
ENDROOT
BRANCH   1  21
ATOM     17  C   UNL     1      -0.246  10.253  18.906  0.00  0.00    +0.000 A 
ATOM     18  C   UNL     1      -0.465   9.902  20.239  0.00  0.00    +0.000 A 
ATOM     19  C   UNL     1       0.424   9.038  20.886  0.00  0.00    +0.000 A 
ATOM     20  C   UNL     1       1.521   8.507  20.202  0.00  0.00    +0.000 A 
ATOM     21  C   UNL     1       1.742   8.805  18.852  0.00  0.00    +0.000 A 
ATOM     22  C   UNL     1       0.848   9.686  18.228  0.00  0.00    +0.000 A 
BRANCH  17  23
ATOM     23  C   UNL     1      -1.125  11.252  18.201  0.00  0.00    +0.000 C 
BRANCH  23  26
ATOM     24  C   UNL     1      -0.726  13.520  19.004  0.00  0.00    +0.000 C 
ATOM     25  O   UNL     1      -1.402  13.325  20.009  0.00  0.00    +0.000 OA
ATOM     26  N   UNL     1      -0.504  12.549  18.051  0.00  0.00    +0.000 N 
ATOM     27  H   UNL     1      -0.056  12.784  17.176  0.00  0.00    +0.000 HD
BRANCH  24  29
ATOM     28  C   UNL     1       1.347  14.910  19.324  0.00  0.00    +0.000 C 
ATOM     29  C   UNL     1      -0.041  14.841  18.708  0.00  0.00    +0.000 C 
ENDBRANCH  24  29
ENDBRANCH  23  26
ENDBRANCH  17  23
ENDBRANCH   1  21
TORSDOF 4
ENDMDL
