MODEL 1
REMARK VINA RESULT:      -8.0      0.000      0.000
REMARK  Name = 
REMARK  5 active torsions:
REMARK  status: ('A' for Active; 'I' for Inactive)
REMARK    1  A    between atoms: C_1  and  N_2
REMARK    2  A    between atoms: C_5  and  N_6
REMARK    3  A    between atoms: C_7  and  C_9
REMARK    4  A    between atoms: C_12  and  C_13
REMARK    5  A    between atoms: C_20  and  C_21
REMARK                            x       y       z     vdW  Elec       q    Type
REMARK                         _______ _______ _______ _____ _____    ______ ____
ROOT
ATOM      1  C   UNL     1      -4.340  12.676  21.625  0.00  0.00    +0.000 C 
ATOM      2  N   UNL     1      -2.951  12.460  21.229  0.00  0.00    +0.000 N 
ATOM      3  C   UNL     1      -2.048  12.193  22.261  0.00  0.00    +0.000 C 
ATOM      4  O   UNL     1      -2.402  12.276  23.451  0.00  0.00    +0.000 OA
ATOM      5  C   UNL     1      -0.602  11.740  21.928  0.00  0.00    +0.000 C 
ATOM      6  N   UNL     1       0.114  12.783  21.198  0.00  0.00    +0.000 NA
ATOM      7  C   UNL     1      -0.282  13.217  20.056  0.00  0.00    +0.000 C 
ATOM      8  C   UNL     1      -1.392  12.601  19.284  0.00  0.00    +0.000 A 
ATOM      9  C   UNL     1      -1.118  12.317  17.930  0.00  0.00    +0.000 A 
ATOM     10  C   UNL     1      -2.080  11.723  17.124  0.00  0.00    +0.000 A 
ATOM     11  C   UNL     1      -3.331  11.450  17.652  0.00  0.00    +0.000 A 
ATOM     12  C   UNL     1      -3.619  11.768  18.984  0.00  0.00    +0.000 A 
ATOM     13  C   UNL     1      -2.643  12.300  19.843  0.00  0.00    +0.000 A 
ENDROOT
BRANCH   7  14
ATOM     14  C   UNL     1       0.469  14.359  19.445  0.00  0.00    +0.000 A 
ATOM     15  C   UNL     1       1.824  14.194  19.117  0.00  0.00    +0.000 A 
ATOM     16  C   UNL     1       2.531  15.221  18.496  0.00  0.00    +0.000 A 
ATOM     17  C   UNL     1       1.892  16.435  18.212  0.00  0.00    +0.000 A 
ATOM     18  C   UNL     1       0.554  16.618  18.564  0.00  0.00    +0.000 A 
ATOM     19  C   UNL     1      -0.152  15.590  19.189  0.00  0.00    +0.000 A 
ENDBRANCH   7  14
BRANCH   5  20
ATOM     20  N   UNL     1      -0.456  10.445  21.315  0.00  0.00    +0.000 N 
ATOM     21  C   UNL     1       0.665   9.695  21.640  0.00  0.00    +0.000 C 
ATOM     22  O   UNL     1       1.320   9.889  22.658  0.00  0.00    +0.000 OA
ATOM     23  H   UNL     1      -0.942  10.307  20.444  0.00  0.00    +0.000 HD
BRANCH  21  24
ATOM     24  C   UNL     1       1.147   8.672  20.674  0.00  0.00    +0.000 A 
ATOM     25  C   UNL     1       1.510   9.021  19.370  0.00  0.00    +0.000 A 
ATOM     26  C   UNL     1       2.131   8.082  18.547  0.00  0.00    +0.000 A 
ATOM     27  C   UNL     1       2.387   6.779  18.999  0.00  0.00    +0.000 A 
ATOM     28  C   UNL     1       2.038   6.436  20.314  0.00  0.00    +0.000 A 
ATOM     29  C   UNL     1       1.407   7.373  21.140  0.00  0.00    +0.000 A 
BRANCH  27  30
ATOM     30  C   UNL     1       3.017   5.767  18.074  0.00  0.00    +0.000 C 
ATOM     31  F   UNL     1       2.100   4.977  17.445  0.00  0.00    +0.000 F 
ATOM     32  F   UNL     1       3.762   6.331  17.087  0.00  0.00    +0.000 F 
ATOM     33  F   UNL     1       3.846   4.911  18.735  0.00  0.00    +0.000 F 
ENDBRANCH  27  30
ENDBRANCH  21  24
ENDBRANCH   5  20
TORSDOF 4
ENDMDL
MODEL 2
REMARK VINA RESULT:      -7.9      0.920      1.476
REMARK  Name = 
REMARK  5 active torsions:
REMARK  status: ('A' for Active; 'I' for Inactive)
REMARK    1  A    between atoms: C_1  and  N_2
REMARK    2  A    between atoms: C_5  and  N_6
REMARK    3  A    between atoms: C_7  and  C_9
REMARK    4  A    between atoms: C_12  and  C_13
REMARK    5  A    between atoms: C_20  and  C_21
REMARK                            x       y       z     vdW  Elec       q    Type
REMARK                         _______ _______ _______ _____ _____    ______ ____
ROOT
ATOM      1  C   UNL     1      -3.055  12.448  22.135  0.00  0.00    +0.000 C 
ATOM      2  N   UNL     1      -1.812  12.199  21.409  0.00  0.00    +0.000 N 
ATOM      3  C   UNL     1      -0.721  11.782  22.177  0.00  0.00    +0.000 C 
ATOM      4  O   UNL     1      -0.789  11.762  23.418  0.00  0.00    +0.000 OA
ATOM      5  C   UNL     1       0.574  11.288  21.478  0.00  0.00    +0.000 C 
ATOM      6  N   UNL     1       1.182  12.360  20.695  0.00  0.00    +0.000 NA
ATOM      7  C   UNL     1       0.572  12.928  19.718  0.00  0.00    +0.000 C 
ATOM      8  C   UNL     1      -0.728  12.453  19.175  0.00  0.00    +0.000 A 
ATOM      9  C   UNL     1      -0.789  12.293  17.775  0.00  0.00    +0.000 A 
ATOM     10  C   UNL     1      -1.950  11.837  17.166  0.00  0.00    +0.000 A 
ATOM     11  C   UNL     1      -3.067  11.578  17.945  0.00  0.00    +0.000 A 
ATOM     12  C   UNL     1      -3.021  11.774  19.330  0.00  0.00    +0.000 A 
ATOM     13  C   UNL     1      -1.838  12.165  19.981  0.00  0.00    +0.000 A 
ENDROOT
BRANCH   7  14
ATOM     14  C   UNL     1       1.249  14.084  19.050  0.00  0.00    +0.000 A 
ATOM     15  C   UNL     1       0.648  15.351  19.091  0.00  0.00    +0.000 A 
ATOM     16  C   UNL     1       1.283  16.454  18.526  0.00  0.00    +0.000 A 
ATOM     17  C   UNL     1       2.525  16.296  17.896  0.00  0.00    +0.000 A 
ATOM     18  C   UNL     1       3.114  15.034  17.822  0.00  0.00    +0.000 A 
ATOM     19  C   UNL     1       2.475  13.929  18.385  0.00  0.00    +0.000 A 
ENDBRANCH   7  14
BRANCH   5  20
ATOM     20  N   UNL     1       0.479  10.056  20.739  0.00  0.00    +0.000 N 
ATOM     21  C   UNL     1       1.145   8.945  21.239  0.00  0.00    +0.000 C 
ATOM     22  O   UNL     1       1.482   8.848  22.413  0.00  0.00    +0.000 OA
ATOM     23  H   UNL     1       0.267  10.140  19.758  0.00  0.00    +0.000 HD
BRANCH  21  24
ATOM     24  C   UNL     1       1.546   7.868  20.296  0.00  0.00    +0.000 A 
ATOM     25  C   UNL     1       2.032   8.165  19.019  0.00  0.00    +0.000 A 
ATOM     26  C   UNL     1       2.573   7.153  18.229  0.00  0.00    +0.000 A 
ATOM     27  C   UNL     1       2.628   5.827  18.685  0.00  0.00    +0.000 A 
ATOM     28  C   UNL     1       2.158   5.534  19.975  0.00  0.00    +0.000 A 
ATOM     29  C   UNL     1       1.605   6.546  20.767  0.00  0.00    +0.000 A 
BRANCH  27  30
ATOM     30  C   UNL     1       3.176   4.741  17.793  0.00  0.00    +0.000 C 
ATOM     31  F   UNL     1       3.952   3.841  18.463  0.00  0.00    +0.000 F 
ATOM     32  F   UNL     1       2.208   4.011  17.178  0.00  0.00    +0.000 F 
ATOM     33  F   UNL     1       3.966   5.239  16.801  0.00  0.00    +0.000 F 
ENDBRANCH  27  30
ENDBRANCH  21  24
ENDBRANCH   5  20
TORSDOF 4
ENDMDL
MODEL 3
REMARK VINA RESULT:      -7.7      0.728      1.414
REMARK  Name = 
REMARK  5 active torsions:
REMARK  status: ('A' for Active; 'I' for Inactive)
REMARK    1  A    between atoms: C_1  and  N_2
REMARK    2  A    between atoms: C_5  and  N_6
REMARK    3  A    between atoms: C_7  and  C_9
REMARK    4  A    between atoms: C_12  and  C_13
REMARK    5  A    between atoms: C_20  and  C_21
REMARK                            x       y       z     vdW  Elec       q    Type
REMARK                         _______ _______ _______ _____ _____    ______ ____
ROOT
ATOM      1  C   UNL     1      -3.387  12.571  21.992  0.00  0.00    +0.000 C 
ATOM      2  N   UNL     1      -2.089  12.367  21.356  0.00  0.00    +0.000 N 
ATOM      3  C   UNL     1      -1.026  12.054  22.209  0.00  0.00    +0.000 C 
ATOM      4  O   UNL     1      -1.172  12.087  23.444  0.00  0.00    +0.000 OA
ATOM      5  C   UNL     1       0.337  11.609  21.616  0.00  0.00    +0.000 C 
ATOM      6  N   UNL     1       0.930  12.680  20.818  0.00  0.00    +0.000 NA
ATOM      7  C   UNL     1       0.351  13.163  19.779  0.00  0.00    +0.000 C 
ATOM      8  C   UNL     1      -0.881  12.585  19.182  0.00  0.00    +0.000 A 
ATOM      9  C   UNL     1      -0.844  12.358  17.791  0.00  0.00    +0.000 A 
ATOM     10  C   UNL     1      -1.935  11.803  17.136  0.00  0.00    +0.000 A 
ATOM     11  C   UNL     1      -3.082  11.511  17.858  0.00  0.00    +0.000 A 
ATOM     12  C   UNL     1      -3.135  11.774  19.232  0.00  0.00    +0.000 A 
ATOM     13  C   UNL     1      -2.022  12.266  19.933  0.00  0.00    +0.000 A 
ENDROOT
BRANCH   7  14
ATOM     14  C   UNL     1       1.000  14.327  19.097  0.00  0.00    +0.000 A 
ATOM     15  C   UNL     1       0.322  15.555  19.035  0.00  0.00    +0.000 A 
ATOM     16  C   UNL     1       0.926  16.668  18.457  0.00  0.00    +0.000 A 
ATOM     17  C   UNL     1       2.213  16.560  17.914  0.00  0.00    +0.000 A 
ATOM     18  C   UNL     1       2.882  15.335  17.943  0.00  0.00    +0.000 A 
ATOM     19  C   UNL     1       2.274  14.220  18.520  0.00  0.00    +0.000 A 
ENDBRANCH   7  14
BRANCH   5  20
ATOM     20  N   UNL     1       0.362  10.341  20.934  0.00  0.00    +0.000 N 
ATOM     21  C   UNL     1       1.042   9.292  21.538  0.00  0.00    +0.000 C 
ATOM     22  O   UNL     1       1.290   9.267  22.738  0.00  0.00    +0.000 OA
ATOM     23  H   UNL     1       0.224  10.369  19.937  0.00  0.00    +0.000 HD
BRANCH  21  24
ATOM     24  C   UNL     1       1.569   8.196  20.684  0.00  0.00    +0.000 A 
ATOM     25  C   UNL     1       1.564   6.868  21.122  0.00  0.00    +0.000 A 
ATOM     26  C   UNL     1       1.889   5.843  20.235  0.00  0.00    +0.000 A 
ATOM     27  C   UNL     1       2.240   6.118  18.905  0.00  0.00    +0.000 A 
ATOM     28  C   UNL     1       2.227   7.450  18.462  0.00  0.00    +0.000 A 
ATOM     29  C   UNL     1       1.910   8.482  19.351  0.00  0.00    +0.000 A 
BRANCH  27  30
ATOM     30  C   UNL     1       2.633   4.995  17.977  0.00  0.00    +0.000 C 
ATOM     31  F   UNL     1       1.585   4.511  17.252  0.00  0.00    +0.000 F 
ATOM     32  F   UNL     1       3.580   5.354  17.070  0.00  0.00    +0.000 F 
ATOM     33  F   UNL     1       3.138   3.924  18.651  0.00  0.00    +0.000 F 
ENDBRANCH  27  30
ENDBRANCH  21  24
ENDBRANCH   5  20
TORSDOF 4
ENDMDL
MODEL 4
REMARK VINA RESULT:      -7.6      5.121      9.931
REMARK  Name = 
REMARK  5 active torsions:
REMARK  status: ('A' for Active; 'I' for Inactive)
REMARK    1  A    between atoms: C_1  and  N_2
REMARK    2  A    between atoms: C_5  and  N_6
REMARK    3  A    between atoms: C_7  and  C_9
REMARK    4  A    between atoms: C_12  and  C_13
REMARK    5  A    between atoms: C_20  and  C_21
REMARK                            x       y       z     vdW  Elec       q    Type
REMARK                         _______ _______ _______ _____ _____    ______ ____
ROOT
ATOM      1  C   UNL     1       5.198   2.716  19.973  0.00  0.00    +0.000 C 
ATOM      2  N   UNL     1       4.945   3.657  18.886  0.00  0.00    +0.000 N 
ATOM      3  C   UNL     1       3.630   3.719  18.416  0.00  0.00    +0.000 C 
ATOM      4  O   UNL     1       2.773   2.914  18.821  0.00  0.00    +0.000 OA
ATOM      5  C   UNL     1       3.216   4.832  17.417  0.00  0.00    +0.000 C 
ATOM      6  N   UNL     1       3.951   4.703  16.162  0.00  0.00    +0.000 NA
ATOM      7  C   UNL     1       5.232   4.779  16.105  0.00  0.00    +0.000 C 
ATOM      8  C   UNL     1       6.083   5.171  17.259  0.00  0.00    +0.000 A 
ATOM      9  C   UNL     1       7.038   6.177  17.006  0.00  0.00    +0.000 A 
ATOM     10  C   UNL     1       7.871   6.631  18.020  0.00  0.00    +0.000 A 
ATOM     11  C   UNL     1       7.784   6.053  19.277  0.00  0.00    +0.000 A 
ATOM     12  C   UNL     1       6.865   5.026  19.519  0.00  0.00    +0.000 A 
ATOM     13  C   UNL     1       5.960   4.598  18.533  0.00  0.00    +0.000 A 
ENDROOT
BRANCH   7  14
ATOM     14  C   UNL     1       5.888   4.530  14.782  0.00  0.00    +0.000 A 
ATOM     15  C   UNL     1       5.262   3.686  13.852  0.00  0.00    +0.000 A 
ATOM     16  C   UNL     1       5.822   3.482  12.594  0.00  0.00    +0.000 A 
ATOM     17  C   UNL     1       7.029   4.110  12.257  0.00  0.00    +0.000 A 
ATOM     18  C   UNL     1       7.674   4.926  13.187  0.00  0.00    +0.000 A 
ATOM     19  C   UNL     1       7.113   5.127  14.449  0.00  0.00    +0.000 A 
ENDBRANCH   7  14
BRANCH   5  20
ATOM     20  N   UNL     1       3.221   6.183  17.917  0.00  0.00    +0.000 N 
ATOM     21  C   UNL     1       2.438   6.467  19.028  0.00  0.00    +0.000 C 
ATOM     22  O   UNL     1       2.054   5.602  19.806  0.00  0.00    +0.000 OA
ATOM     23  H   UNL     1       3.473   6.901  17.258  0.00  0.00    +0.000 HD
BRANCH  21  24
ATOM     24  C   UNL     1       1.970   7.863  19.235  0.00  0.00    +0.000 A 
ATOM     25  C   UNL     1       1.868   8.760  18.167  0.00  0.00    +0.000 A 
ATOM     26  C   UNL     1       1.254   9.997  18.354  0.00  0.00    +0.000 A 
ATOM     27  C   UNL     1       0.745  10.371  19.607  0.00  0.00    +0.000 A 
ATOM     28  C   UNL     1       0.832   9.462  20.674  0.00  0.00    +0.000 A 
ATOM     29  C   UNL     1       1.455   8.223  20.491  0.00  0.00    +0.000 A 
BRANCH  27  30
ATOM     30  C   UNL     1       0.127  11.734  19.797  0.00  0.00    +0.000 C 
ATOM     31  F   UNL     1       0.402  12.591  18.772  0.00  0.00    +0.000 F 
ATOM     32  F   UNL     1      -1.228  11.700  19.900  0.00  0.00    +0.000 F 
ATOM     33  F   UNL     1       0.580  12.352  20.924  0.00  0.00    +0.000 F 
ENDBRANCH  27  30
ENDBRANCH  21  24
ENDBRANCH   5  20
TORSDOF 4
ENDMDL
MODEL 5
REMARK VINA RESULT:      -7.6      0.708      1.314
REMARK  Name = 
REMARK  5 active torsions:
REMARK  status: ('A' for Active; 'I' for Inactive)
REMARK    1  A    between atoms: C_1  and  N_2
REMARK    2  A    between atoms: C_5  and  N_6
REMARK    3  A    between atoms: C_7  and  C_9
REMARK    4  A    between atoms: C_12  and  C_13
REMARK    5  A    between atoms: C_20  and  C_21
REMARK                            x       y       z     vdW  Elec       q    Type
REMARK                         _______ _______ _______ _____ _____    ______ ____
ROOT
ATOM      1  C   UNL     1      -3.448  12.553  22.035  0.00  0.00    +0.000 C 
ATOM      2  N   UNL     1      -2.135  12.345  21.430  0.00  0.00    +0.000 N 
ATOM      3  C   UNL     1      -1.097  12.012  22.305  0.00  0.00    +0.000 C 
ATOM      4  O   UNL     1      -1.274  12.031  23.537  0.00  0.00    +0.000 OA
ATOM      5  C   UNL     1       0.277  11.564  21.742  0.00  0.00    +0.000 C 
ATOM      6  N   UNL     1       0.899  12.640  20.974  0.00  0.00    +0.000 NA
ATOM      7  C   UNL     1       0.350  13.141  19.926  0.00  0.00    +0.000 C 
ATOM      8  C   UNL     1      -0.870  12.580  19.291  0.00  0.00    +0.000 A 
ATOM      9  C   UNL     1      -0.799  12.370  17.898  0.00  0.00    +0.000 A 
ATOM     10  C   UNL     1      -1.878  11.832  17.208  0.00  0.00    +0.000 A 
ATOM     11  C   UNL     1      -3.045  11.542  17.897  0.00  0.00    +0.000 A 
ATOM     12  C   UNL     1      -3.131  11.787  19.272  0.00  0.00    +0.000 A 
ATOM     13  C   UNL     1      -2.032  12.261  20.008  0.00  0.00    +0.000 A 
ENDROOT
BRANCH   7  14
ATOM     14  C   UNL     1       1.026  14.308  19.276  0.00  0.00    +0.000 A 
ATOM     15  C   UNL     1       2.322  14.153  18.759  0.00  0.00    +0.000 A 
ATOM     16  C   UNL     1       2.951  15.205  18.100  0.00  0.00    +0.000 A 
ATOM     17  C   UNL     1       2.295  16.436  17.965  0.00  0.00    +0.000 A 
ATOM     18  C   UNL     1       1.019  16.608  18.503  0.00  0.00    +0.000 A 
ATOM     19  C   UNL     1       0.391  15.554  19.166  0.00  0.00    +0.000 A 
ENDBRANCH   7  14
BRANCH   5  20
ATOM     20  N   UNL     1       0.310  10.304  21.045  0.00  0.00    +0.000 N 
ATOM     21  C   UNL     1       1.009   9.257  21.629  0.00  0.00    +0.000 C 
ATOM     22  O   UNL     1       1.272   9.221  22.825  0.00  0.00    +0.000 OA
ATOM     23  H   UNL     1       0.159  10.342  20.050  0.00  0.00    +0.000 HD
BRANCH  21  24
ATOM     24  C   UNL     1       1.540   8.177  20.755  0.00  0.00    +0.000 A 
ATOM     25  C   UNL     1       1.527   6.840  21.165  0.00  0.00    +0.000 A 
ATOM     26  C   UNL     1       1.855   5.833  20.260  0.00  0.00    +0.000 A 
ATOM     27  C   UNL     1       2.217   6.135  18.938  0.00  0.00    +0.000 A 
ATOM     28  C   UNL     1       2.211   7.476  18.523  0.00  0.00    +0.000 A 
ATOM     29  C   UNL     1       1.891   8.490  19.432  0.00  0.00    +0.000 A 
BRANCH  27  30
ATOM     30  C   UNL     1       2.614   5.030  17.990  0.00  0.00    +0.000 C 
ATOM     31  F   UNL     1       3.558   5.419  17.085  0.00  0.00    +0.000 F 
ATOM     32  F   UNL     1       3.127   3.940  18.619  0.00  0.00    +0.000 F 
ATOM     33  F   UNL     1       1.560   4.583  17.251  0.00  0.00    +0.000 F 
ENDBRANCH  27  30
ENDBRANCH  21  24
ENDBRANCH   5  20
TORSDOF 4
ENDMDL
MODEL 6
REMARK VINA RESULT:      -7.6      3.674      6.511
REMARK  Name = 
REMARK  5 active torsions:
REMARK  status: ('A' for Active; 'I' for Inactive)
REMARK    1  A    between atoms: C_1  and  N_2
REMARK    2  A    between atoms: C_5  and  N_6
REMARK    3  A    between atoms: C_7  and  C_9
REMARK    4  A    between atoms: C_12  and  C_13
REMARK    5  A    between atoms: C_20  and  C_21
REMARK                            x       y       z     vdW  Elec       q    Type
REMARK                         _______ _______ _______ _____ _____    ______ ____
ROOT
ATOM      1  C   UNL     1      -0.344   9.270  23.018  0.00  0.00    +0.000 C 
ATOM      2  N   UNL     1      -0.244  10.125  21.838  0.00  0.00    +0.000 N 
ATOM      3  C   UNL     1      -0.499  11.485  22.038  0.00  0.00    +0.000 C 
ATOM      4  O   UNL     1      -0.917  11.899  23.134  0.00  0.00    +0.000 OA
ATOM      5  C   UNL     1      -0.211  12.501  20.901  0.00  0.00    +0.000 C 
ATOM      6  N   UNL     1      -1.052  12.231  19.738  0.00  0.00    +0.000 NA
ATOM      7  C   UNL     1      -1.001  11.119  19.098  0.00  0.00    +0.000 C 
ATOM      8  C   UNL     1       0.017  10.068  19.356  0.00  0.00    +0.000 A 
ATOM      9  C   UNL     1       0.690   9.570  18.222  0.00  0.00    +0.000 A 
ATOM     10  C   UNL     1       1.675   8.599  18.354  0.00  0.00    +0.000 A 
ATOM     11  C   UNL     1       1.961   8.093  19.611  0.00  0.00    +0.000 A 
ATOM     12  C   UNL     1       1.266   8.557  20.734  0.00  0.00    +0.000 A 
ATOM     13  C   UNL     1       0.318   9.590  20.640  0.00  0.00    +0.000 A 
ENDROOT
BRANCH   7  14
ATOM     14  C   UNL     1      -1.980  10.910  17.984  0.00  0.00    +0.000 A 
ATOM     15  C   UNL     1      -3.166  11.661  17.959  0.00  0.00    +0.000 A 
ATOM     16  C   UNL     1      -4.066  11.527  16.905  0.00  0.00    +0.000 A 
ATOM     17  C   UNL     1      -3.797  10.624  15.869  0.00  0.00    +0.000 A 
ATOM     18  C   UNL     1      -2.636   9.850  15.901  0.00  0.00    +0.000 A 
ATOM     19  C   UNL     1      -1.736   9.983  16.960  0.00  0.00    +0.000 A 
ENDBRANCH   7  14
BRANCH   5  20
ATOM     20  N   UNL     1       1.171  12.697  20.544  0.00  0.00    +0.000 N 
ATOM     21  C   UNL     1       1.855  13.743  21.146  0.00  0.00    +0.000 C 
ATOM     22  O   UNL     1       1.490  14.256  22.197  0.00  0.00    +0.000 OA
ATOM     23  H   UNL     1       1.455  12.332  19.649  0.00  0.00    +0.000 HD
BRANCH  21  24
ATOM     24  C   UNL     1       3.030  14.326  20.445  0.00  0.00    +0.000 A 
ATOM     25  C   UNL     1       4.093  14.890  21.157  0.00  0.00    +0.000 A 
ATOM     26  C   UNL     1       5.259  15.259  20.487  0.00  0.00    +0.000 A 
ATOM     27  C   UNL     1       5.383  15.089  19.101  0.00  0.00    +0.000 A 
ATOM     28  C   UNL     1       4.322  14.506  18.390  0.00  0.00    +0.000 A 
ATOM     29  C   UNL     1       3.147  14.143  19.057  0.00  0.00    +0.000 A 
BRANCH  27  30
ATOM     30  C   UNL     1       6.637  15.539  18.392  0.00  0.00    +0.000 C 
ATOM     31  F   UNL     1       6.751  15.026  17.133  0.00  0.00    +0.000 F 
ATOM     32  F   UNL     1       6.721  16.889  18.253  0.00  0.00    +0.000 F 
ATOM     33  F   UNL     1       7.767  15.153  19.049  0.00  0.00    +0.000 F 
ENDBRANCH  27  30
ENDBRANCH  21  24
ENDBRANCH   5  20
TORSDOF 4
ENDMDL
MODEL 7
REMARK VINA RESULT:      -7.4      3.683      6.522
REMARK  Name = 
REMARK  5 active torsions:
REMARK  status: ('A' for Active; 'I' for Inactive)
REMARK    1  A    between atoms: C_1  and  N_2
REMARK    2  A    between atoms: C_5  and  N_6
REMARK    3  A    between atoms: C_7  and  C_9
REMARK    4  A    between atoms: C_12  and  C_13
REMARK    5  A    between atoms: C_20  and  C_21
REMARK                            x       y       z     vdW  Elec       q    Type
REMARK                         _______ _______ _______ _____ _____    ______ ____
ROOT
ATOM      1  C   UNL     1      -0.284   9.046  22.875  0.00  0.00    +0.000 C 
ATOM      2  N   UNL     1      -0.210   9.974  21.750  0.00  0.00    +0.000 N 
ATOM      3  C   UNL     1      -0.496  11.312  22.033  0.00  0.00    +0.000 C 
ATOM      4  O   UNL     1      -0.919  11.647  23.154  0.00  0.00    +0.000 OA
ATOM      5  C   UNL     1      -0.237  12.403  20.961  0.00  0.00    +0.000 C 
ATOM      6  N   UNL     1      -1.077  12.185  19.786  0.00  0.00    +0.000 NA
ATOM      7  C   UNL     1      -1.003  11.116  19.078  0.00  0.00    +0.000 C 
ATOM      8  C   UNL     1       0.042  10.076  19.268  0.00  0.00    +0.000 A 
ATOM      9  C   UNL     1       0.721   9.665  18.103  0.00  0.00    +0.000 A 
ATOM     10  C   UNL     1       1.729   8.712  18.172  0.00  0.00    +0.000 A 
ATOM     11  C   UNL     1       2.034   8.136  19.395  0.00  0.00    +0.000 A 
ATOM     12  C   UNL     1       1.333   8.513  20.546  0.00  0.00    +0.000 A 
ATOM     13  C   UNL     1       0.360   9.527  20.519  0.00  0.00    +0.000 A 
ENDROOT
BRANCH   7  14
ATOM     14  C   UNL     1      -1.981  10.953  17.956  0.00  0.00    +0.000 A 
ATOM     15  C   UNL     1      -1.733   9.996  16.960  0.00  0.00    +0.000 A 
ATOM     16  C   UNL     1      -2.653   9.786  15.937  0.00  0.00    +0.000 A 
ATOM     17  C   UNL     1      -3.829  10.546  15.889  0.00  0.00    +0.000 A 
ATOM     18  C   UNL     1      -4.069  11.521  16.858  0.00  0.00    +0.000 A 
ATOM     19  C   UNL     1      -3.144  11.733  17.881  0.00  0.00    +0.000 A 
ENDBRANCH   7  14
BRANCH   5  20
ATOM     20  N   UNL     1       1.137  12.653  20.612  0.00  0.00    +0.000 N 
ATOM     21  C   UNL     1       1.767  13.745  21.195  0.00  0.00    +0.000 C 
ATOM     22  O   UNL     1       1.366  14.267  22.228  0.00  0.00    +0.000 OA
ATOM     23  H   UNL     1       1.448  12.280  19.730  0.00  0.00    +0.000 HD
BRANCH  21  24
ATOM     24  C   UNL     1       2.920  14.365  20.491  0.00  0.00    +0.000 A 
ATOM     25  C   UNL     1       3.963  14.969  21.199  0.00  0.00    +0.000 A 
ATOM     26  C   UNL     1       5.116  15.374  20.528  0.00  0.00    +0.000 A 
ATOM     27  C   UNL     1       5.247  15.200  19.142  0.00  0.00    +0.000 A 
ATOM     28  C   UNL     1       4.207  14.577  18.435  0.00  0.00    +0.000 A 
ATOM     29  C   UNL     1       3.045  14.177  19.104  0.00  0.00    +0.000 A 
BRANCH  27  30
ATOM     30  C   UNL     1       6.485  15.689  18.431  0.00  0.00    +0.000 C 
ATOM     31  F   UNL     1       7.631  15.452  19.131  0.00  0.00    +0.000 F 
ATOM     32  F   UNL     1       6.667  15.115  17.213  0.00  0.00    +0.000 F 
ATOM     33  F   UNL     1       6.458  17.035  18.218  0.00  0.00    +0.000 F 
ENDBRANCH  27  30
ENDBRANCH  21  24
ENDBRANCH   5  20
TORSDOF 4
ENDMDL
MODEL 8
REMARK VINA RESULT:      -7.3      0.676      1.211
REMARK  Name = 
REMARK  5 active torsions:
REMARK  status: ('A' for Active; 'I' for Inactive)
REMARK    1  A    between atoms: C_1  and  N_2
REMARK    2  A    between atoms: C_5  and  N_6
REMARK    3  A    between atoms: C_7  and  C_9
REMARK    4  A    between atoms: C_12  and  C_13
REMARK    5  A    between atoms: C_20  and  C_21
REMARK                            x       y       z     vdW  Elec       q    Type
REMARK                         _______ _______ _______ _____ _____    ______ ____
ROOT
ATOM      1  C   UNL     1      -4.450  12.766  21.678  0.00  0.00    +0.000 C 
ATOM      2  N   UNL     1      -3.031  12.500  21.458  0.00  0.00    +0.000 N 
ATOM      3  C   UNL     1      -2.290  12.127  22.583  0.00  0.00    +0.000 C 
ATOM      4  O   UNL     1      -2.800  12.160  23.718  0.00  0.00    +0.000 OA
ATOM      5  C   UNL     1      -0.834  11.618  22.418  0.00  0.00    +0.000 C 
ATOM      6  N   UNL     1       0.021  12.662  21.860  0.00  0.00    +0.000 NA
ATOM      7  C   UNL     1      -0.195  13.181  20.705  0.00  0.00    +0.000 C 
ATOM      8  C   UNL     1      -1.215  12.670  19.753  0.00  0.00    +0.000 A 
ATOM      9  C   UNL     1      -0.771  12.450  18.433  0.00  0.00    +0.000 A 
ATOM     10  C   UNL     1      -1.639  11.956  17.468  0.00  0.00    +0.000 A 
ATOM     11  C   UNL     1      -2.962  11.719  17.805  0.00  0.00    +0.000 A 
ATOM     12  C   UNL     1      -3.415  11.974  19.104  0.00  0.00    +0.000 A 
ATOM     13  C   UNL     1      -2.543  12.405  20.119  0.00  0.00    +0.000 A 
ENDROOT
BRANCH   7  14
ATOM     14  C   UNL     1       0.683  14.315  20.274  0.00  0.00    +0.000 A 
ATOM     15  C   UNL     1       0.203  15.239  19.334  0.00  0.00    +0.000 A 
ATOM     16  C   UNL     1       0.978  16.333  18.959  0.00  0.00    +0.000 A 
ATOM     17  C   UNL     1       2.254  16.506  19.510  0.00  0.00    +0.000 A 
ATOM     18  C   UNL     1       2.752  15.575  20.422  0.00  0.00    +0.000 A 
ATOM     19  C   UNL     1       1.976  14.477  20.794  0.00  0.00    +0.000 A 
ENDBRANCH   7  14
BRANCH   5  20
ATOM     20  N   UNL     1      -0.664  10.354  21.748  0.00  0.00    +0.000 N 
ATOM     21  C   UNL     1       0.498   9.637  22.001  0.00  0.00    +0.000 C 
ATOM     22  O   UNL     1       1.184   9.817  23.000  0.00  0.00    +0.000 OA
ATOM     23  H   UNL     1      -1.178  10.232  20.891  0.00  0.00    +0.000 HD
BRANCH  21  24
ATOM     24  C   UNL     1       0.979   8.672  20.977  0.00  0.00    +0.000 A 
ATOM     25  C   UNL     1       1.330   9.094  19.691  0.00  0.00    +0.000 A 
ATOM     26  C   UNL     1       1.951   8.207  18.814  0.00  0.00    +0.000 A 
ATOM     27  C   UNL     1       2.220   6.883  19.191  0.00  0.00    +0.000 A 
ATOM     28  C   UNL     1       1.884   6.466  20.489  0.00  0.00    +0.000 A 
ATOM     29  C   UNL     1       1.252   7.351  21.369  0.00  0.00    +0.000 A 
BRANCH  27  30
ATOM     30  C   UNL     1       2.851   5.928  18.208  0.00  0.00    +0.000 C 
ATOM     31  F   UNL     1       3.758   5.089  18.786  0.00  0.00    +0.000 F 
ATOM     32  F   UNL     1       1.948   5.126  17.583  0.00  0.00    +0.000 F 
ATOM     33  F   UNL     1       3.529   6.578  17.222  0.00  0.00    +0.000 F 
ENDBRANCH  27  30
ENDBRANCH  21  24
ENDBRANCH   5  20
TORSDOF 4
ENDMDL
MODEL 9
REMARK VINA RESULT:      -7.3      5.116      9.960
REMARK  Name = 
REMARK  5 active torsions:
REMARK  status: ('A' for Active; 'I' for Inactive)
REMARK    1  A    between atoms: C_1  and  N_2
REMARK    2  A    between atoms: C_5  and  N_6
REMARK    3  A    between atoms: C_7  and  C_9
REMARK    4  A    between atoms: C_12  and  C_13
REMARK    5  A    between atoms: C_20  and  C_21
REMARK                            x       y       z     vdW  Elec       q    Type
REMARK                         _______ _______ _______ _____ _____    ______ ____
ROOT
ATOM      1  C   UNL     1       5.401   2.903  20.018  0.00  0.00    +0.000 C 
ATOM      2  N   UNL     1       5.082   3.782  18.896  0.00  0.00    +0.000 N 
ATOM      3  C   UNL     1       3.759   3.756  18.447  0.00  0.00    +0.000 C 
ATOM      4  O   UNL     1       2.951   2.926  18.901  0.00  0.00    +0.000 OA
ATOM      5  C   UNL     1       3.272   4.802  17.410  0.00  0.00    +0.000 C 
ATOM      6  N   UNL     1       3.993   4.657  16.148  0.00  0.00    +0.000 NA
ATOM      7  C   UNL     1       5.267   4.798  16.066  0.00  0.00    +0.000 C 
ATOM      8  C   UNL     1       6.114   5.282  17.187  0.00  0.00    +0.000 A 
ATOM      9  C   UNL     1       7.010   6.325  16.876  0.00  0.00    +0.000 A 
ATOM     10  C   UNL     1       7.834   6.864  17.855  0.00  0.00    +0.000 A 
ATOM     11  C   UNL     1       7.797   6.337  19.136  0.00  0.00    +0.000 A 
ATOM     12  C   UNL     1       6.937   5.275  19.437  0.00  0.00    +0.000 A 
ATOM     13  C   UNL     1       6.040   4.759  18.487  0.00  0.00    +0.000 A 
ENDROOT
BRANCH   7  14
ATOM     14  C   UNL     1       5.914   4.526  14.743  0.00  0.00    +0.000 A 
ATOM     15  C   UNL     1       5.279   3.674  13.828  0.00  0.00    +0.000 A 
ATOM     16  C   UNL     1       5.831   3.449  12.570  0.00  0.00    +0.000 A 
ATOM     17  C   UNL     1       7.040   4.064  12.219  0.00  0.00    +0.000 A 
ATOM     18  C   UNL     1       7.695   4.888  13.135  0.00  0.00    +0.000 A 
ATOM     19  C   UNL     1       7.142   5.109  14.397  0.00  0.00    +0.000 A 
ENDBRANCH   7  14
BRANCH   5  20
ATOM     20  N   UNL     1       3.213   6.171  17.853  0.00  0.00    +0.000 N 
ATOM     21  C   UNL     1       2.358   6.478  18.903  0.00  0.00    +0.000 C 
ATOM     22  O   UNL     1       1.951   5.635  19.693  0.00  0.00    +0.000 OA
ATOM     23  H   UNL     1       3.486   6.869  17.180  0.00  0.00    +0.000 HD
BRANCH  21  24
ATOM     24  C   UNL     1       1.844   7.868  19.023  0.00  0.00    +0.000 A 
ATOM     25  C   UNL     1       1.348   8.356  20.236  0.00  0.00    +0.000 A 
ATOM     26  C   UNL     1       1.048   9.710  20.369  0.00  0.00    +0.000 A 
ATOM     27  C   UNL     1       1.220  10.600  19.299  0.00  0.00    +0.000 A 
ATOM     28  C   UNL     1       1.735  10.112  18.087  0.00  0.00    +0.000 A 
ATOM     29  C   UNL     1       2.029   8.752  17.947  0.00  0.00    +0.000 A 
BRANCH  27  30
ATOM     30  C   UNL     1       0.844  12.053  19.453  0.00  0.00    +0.000 C 
ATOM     31  F   UNL     1       0.704  12.432  20.756  0.00  0.00    +0.000 F 
ATOM     32  F   UNL     1       1.755  12.905  18.913  0.00  0.00    +0.000 F 
ATOM     33  F   UNL     1      -0.347  12.342  18.858  0.00  0.00    +0.000 F 
ENDBRANCH  27  30
ENDBRANCH  21  24
ENDBRANCH   5  20
TORSDOF 4
ENDMDL
