MODEL 1
REMARK VINA RESULT:      -7.2      0.000      0.000
REMARK  Name = 
REMARK  7 active torsions:
REMARK  status: ('A' for Active; 'I' for Inactive)
REMARK    1  A    between atoms: C_1  and  C_2
REMARK    2  A    between atoms: C_2  and  N_3
REMARK    3  A    between atoms: C_7  and  C_8
REMARK    4  A    between atoms: C_12  and  C_14
REMARK    5  A    between atoms: C_14  and  C_15
REMARK    6  A    between atoms: C_15  and  C_16
REMARK    7  A    between atoms: C_15  and  N_17
REMARK                            x       y       z     vdW  Elec       q    Type
REMARK                         _______ _______ _______ _____ _____    ______ ____
ROOT
ATOM      1  C   UNL     1       3.329   4.640  18.454  0.00  0.00    +0.000 C 
ATOM      2  C   UNL     1       3.415   4.061  17.038  0.00  0.00    +0.000 C 
ATOM      3  C   UNL     1       4.839   3.933  16.509  0.00  0.00    +0.000 C 
ATOM      4  N   UNL     1       5.640   5.144  16.672  0.00  0.00    +0.000 N 
ATOM      5  C   UNL     1       6.821   5.353  15.939  0.00  0.00    +0.000 C 
ATOM      6  O   UNL     1       7.564   6.316  16.142  0.00  0.00    +0.000 OA
ATOM      7  C   UNL     1       5.586   5.774  17.991  0.00  0.00    +0.000 C 
ATOM      8  C   UNL     1       4.171   5.918  18.544  0.00  0.00    +0.000 C 
ENDROOT
BRANCH   1  13
ATOM      9  N   UNL     1       2.906   3.153  20.508  0.00  0.00    +0.000 N 
ATOM     10  C   UNL     1       3.632   2.189  21.147  0.00  0.00    +0.000 A 
ATOM     11  N   UNL     1       4.814   2.086  20.587  0.00  0.00    +0.000 NA
ATOM     12  N   UNL     1       4.860   2.984  19.554  0.00  0.00    +0.000 NA
ATOM     13  C   UNL     1       3.704   3.620  19.491  0.00  0.00    +0.000 A 
BRANCH   9  15
ATOM     14  C   UNL     1       0.519   3.003  19.883  0.00  0.00    +0.000 C 
ATOM     15  C   UNL     1       1.553   3.509  20.878  0.00  0.00    +0.000 C 
ENDBRANCH   9  15
ENDBRANCH   1  13
BRANCH   5  16
ATOM     16  C   UNL     1       7.133   4.359  14.829  0.00  0.00    +0.000 C 
BRANCH  16  17
ATOM     17  C   UNL     1       6.837   4.902  13.423  0.00  0.00    +0.000 C 
ATOM     18  C   UNL     1       8.098   5.430  12.728  0.00  0.00    +0.000 C 
BRANCH  17  19
ATOM     19  N   UNL     1       6.215   3.846  12.608  0.00  0.00    +0.000 N 
ATOM     20  C   UNL     1       4.870   3.724  12.345  0.00  0.00    +0.000 A 
ATOM     21  C   UNL     1       4.690   2.643  11.512  0.00  0.00    +0.000 A 
ATOM     22  C   UNL     1       5.964   2.081  11.273  0.00  0.00    +0.000 A 
ATOM     23  C   UNL     1       6.887   2.839  11.963  0.00  0.00    +0.000 A 
ENDBRANCH  17  19
ENDBRANCH  16  17
ENDBRANCH   5  16
TORSDOF 5
ENDMDL
MODEL 2
REMARK VINA RESULT:      -6.9      4.711      8.203
REMARK  Name = 
REMARK  7 active torsions:
REMARK  status: ('A' for Active; 'I' for Inactive)
REMARK    1  A    between atoms: C_1  and  C_2
REMARK    2  A    between atoms: C_2  and  N_3
REMARK    3  A    between atoms: C_7  and  C_8
REMARK    4  A    between atoms: C_12  and  C_14
REMARK    5  A    between atoms: C_14  and  C_15
REMARK    6  A    between atoms: C_15  and  C_16
REMARK    7  A    between atoms: C_15  and  N_17
REMARK                            x       y       z     vdW  Elec       q    Type
REMARK                         _______ _______ _______ _____ _____    ______ ____
ROOT
ATOM      1  C   UNL     1       3.610   5.247  19.386  0.00  0.00    +0.000 C 
ATOM      2  C   UNL     1       2.805   6.070  20.396  0.00  0.00    +0.000 C 
ATOM      3  C   UNL     1       1.831   7.052  19.756  0.00  0.00    +0.000 C 
ATOM      4  N   UNL     1       2.427   7.876  18.707  0.00  0.00    +0.000 N 
ATOM      5  C   UNL     1       1.819   9.063  18.264  0.00  0.00    +0.000 C 
ATOM      6  O   UNL     1       2.252   9.710  17.308  0.00  0.00    +0.000 OA
ATOM      7  C   UNL     1       3.238   7.165  17.719  0.00  0.00    +0.000 C 
ATOM      8  C   UNL     1       4.225   6.176  18.333  0.00  0.00    +0.000 C 
ENDROOT
BRANCH   1  13
ATOM      9  N   UNL     1       1.781   3.440  19.403  0.00  0.00    +0.000 N 
ATOM     10  C   UNL     1       1.260   2.609  18.453  0.00  0.00    +0.000 A 
ATOM     11  N   UNL     1       1.912   2.766  17.325  0.00  0.00    +0.000 NA
ATOM     12  N   UNL     1       2.867   3.727  17.533  0.00  0.00    +0.000 NA
ATOM     13  C   UNL     1       2.781   4.150  18.781  0.00  0.00    +0.000 A 
BRANCH   9  15
ATOM     14  C   UNL     1       2.057   2.633  21.723  0.00  0.00    +0.000 C 
ATOM     15  C   UNL     1       1.280   3.516  20.758  0.00  0.00    +0.000 C 
ENDBRANCH   9  15
ENDBRANCH   1  13
BRANCH   5  16
ATOM     16  C   UNL     1       0.614   9.559  19.048  0.00  0.00    +0.000 C 
BRANCH  16  17
ATOM     17  C   UNL     1       0.934  10.740  19.976  0.00  0.00    +0.000 C 
ATOM     18  C   UNL     1       0.458  12.078  19.399  0.00  0.00    +0.000 C 
BRANCH  17  19
ATOM     19  N   UNL     1       0.321  10.511  21.295  0.00  0.00    +0.000 N 
ATOM     20  C   UNL     1      -0.676  11.273  21.859  0.00  0.00    +0.000 A 
ATOM     21  C   UNL     1      -1.013  10.714  23.071  0.00  0.00    +0.000 A 
ATOM     22  C   UNL     1      -0.183   9.585  23.256  0.00  0.00    +0.000 A 
ATOM     23  C   UNL     1       0.632   9.484  22.149  0.00  0.00    +0.000 A 
ENDBRANCH  17  19
ENDBRANCH  16  17
ENDBRANCH   5  16
TORSDOF 5
ENDMDL
MODEL 3
REMARK VINA RESULT:      -6.9      4.648      7.684
REMARK  Name = 
REMARK  7 active torsions:
REMARK  status: ('A' for Active; 'I' for Inactive)
REMARK    1  A    between atoms: C_1  and  C_2
REMARK    2  A    between atoms: C_2  and  N_3
REMARK    3  A    between atoms: C_7  and  C_8
REMARK    4  A    between atoms: C_12  and  C_14
REMARK    5  A    between atoms: C_14  and  C_15
REMARK    6  A    between atoms: C_15  and  C_16
REMARK    7  A    between atoms: C_15  and  N_17
REMARK                            x       y       z     vdW  Elec       q    Type
REMARK                         _______ _______ _______ _____ _____    ______ ____
ROOT
ATOM      1  C   UNL     1       3.971   4.247  18.528  0.00  0.00    +0.000 C 
ATOM      2  C   UNL     1       3.255   5.041  17.431  0.00  0.00    +0.000 C 
ATOM      3  C   UNL     1       3.057   6.516  17.766  0.00  0.00    +0.000 C 
ATOM      4  N   UNL     1       2.489   6.749  19.092  0.00  0.00    +0.000 N 
ATOM      5  C   UNL     1       1.899   7.976  19.438  0.00  0.00    +0.000 C 
ATOM      6  O   UNL     1       1.514   8.225  20.582  0.00  0.00    +0.000 OA
ATOM      7  C   UNL     1       3.101   6.001  20.190  0.00  0.00    +0.000 C 
ATOM      8  C   UNL     1       3.309   4.521  19.883  0.00  0.00    +0.000 C 
ENDROOT
BRANCH   1  13
ATOM      9  N   UNL     1       6.301   4.449  17.460  0.00  0.00    +0.000 N 
ATOM     10  C   UNL     1       7.522   4.857  17.917  0.00  0.00    +0.000 A 
ATOM     11  N   UNL     1       7.442   5.135  19.196  0.00  0.00    +0.000 NA
ATOM     12  N   UNL     1       6.145   4.921  19.584  0.00  0.00    +0.000 NA
ATOM     13  C   UNL     1       5.448   4.523  18.535  0.00  0.00    +0.000 A 
BRANCH   9  15
ATOM     14  C   UNL     1       7.006   4.739  15.109  0.00  0.00    +0.000 C 
ATOM     15  C   UNL     1       6.048   4.075  16.085  0.00  0.00    +0.000 C 
ENDBRANCH   9  15
ENDBRANCH   1  13
BRANCH   5  16
ATOM     16  C   UNL     1       1.702   8.990  18.320  0.00  0.00    +0.000 C 
BRANCH  16  17
ATOM     17  C   UNL     1       1.253  10.370  18.820  0.00  0.00    +0.000 C 
ATOM     18  C   UNL     1       2.095  11.506  18.227  0.00  0.00    +0.000 C 
BRANCH  17  19
ATOM     19  N   UNL     1      -0.169  10.572  18.497  0.00  0.00    +0.000 N 
ATOM     20  C   UNL     1      -0.920   9.786  17.654  0.00  0.00    +0.000 A 
ATOM     21  C   UNL     1      -2.210  10.268  17.649  0.00  0.00    +0.000 A 
ATOM     22  C   UNL     1      -2.240  11.392  18.505  0.00  0.00    +0.000 A 
ATOM     23  C   UNL     1      -0.969  11.560  19.013  0.00  0.00    +0.000 A 
ENDBRANCH  17  19
ENDBRANCH  16  17
ENDBRANCH   5  16
TORSDOF 5
ENDMDL
MODEL 4
REMARK VINA RESULT:      -6.8      5.775      7.636
REMARK  Name = 
REMARK  7 active torsions:
REMARK  status: ('A' for Active; 'I' for Inactive)
REMARK    1  A    between atoms: C_1  and  C_2
REMARK    2  A    between atoms: C_2  and  N_3
REMARK    3  A    between atoms: C_7  and  C_8
REMARK    4  A    between atoms: C_12  and  C_14
REMARK    5  A    between atoms: C_14  and  C_15
REMARK    6  A    between atoms: C_15  and  C_16
REMARK    7  A    between atoms: C_15  and  N_17
REMARK                            x       y       z     vdW  Elec       q    Type
REMARK                         _______ _______ _______ _____ _____    ______ ____
ROOT
ATOM      1  C   UNL     1       0.743  10.797  19.203  0.00  0.00    +0.000 C 
ATOM      2  C   UNL     1       1.832  10.452  18.183  0.00  0.00    +0.000 C 
ATOM      3  C   UNL     1       1.994   8.957  17.934  0.00  0.00    +0.000 C 
ATOM      4  N   UNL     1       2.095   8.162  19.156  0.00  0.00    +0.000 N 
ATOM      5  C   UNL     1       2.607   6.854  19.146  0.00  0.00    +0.000 C 
ATOM      6  O   UNL     1       2.599   6.133  20.147  0.00  0.00    +0.000 OA
ATOM      7  C   UNL     1       1.106   8.455  20.193  0.00  0.00    +0.000 C 
ATOM      8  C   UNL     1       0.926   9.946  20.465  0.00  0.00    +0.000 C 
ENDROOT
BRANCH   1  13
ATOM      9  N   UNL     1      -1.749  11.385  18.967  0.00  0.00    +0.000 N 
ATOM     10  C   UNL     1      -2.739  10.993  18.112  0.00  0.00    +0.000 A 
ATOM     11  N   UNL     1      -2.279  10.072  17.300  0.00  0.00    +0.000 NA
ATOM     12  N   UNL     1      -0.962   9.867  17.614  0.00  0.00    +0.000 NA
ATOM     13  C   UNL     1      -0.631  10.669  18.610  0.00  0.00    +0.000 A 
BRANCH   9  15
ATOM     14  C   UNL     1      -3.393  12.708  20.254  0.00  0.00    +0.000 C 
ATOM     15  C   UNL     1      -1.928  12.397  19.986  0.00  0.00    +0.000 C 
ENDBRANCH   9  15
ENDBRANCH   1  13
BRANCH   5  16
ATOM     16  C   UNL     1       3.229   6.362  17.847  0.00  0.00    +0.000 C 
BRANCH  16  17
ATOM     17  C   UNL     1       4.238   5.222  18.047  0.00  0.00    +0.000 C 
ATOM     18  C   UNL     1       4.125   4.148  16.958  0.00  0.00    +0.000 C 
BRANCH  17  19
ATOM     19  N   UNL     1       5.604   5.772  18.075  0.00  0.00    +0.000 N 
ATOM     20  C   UNL     1       6.097   6.737  17.228  0.00  0.00    +0.000 A 
ATOM     21  C   UNL     1       7.392   7.018  17.601  0.00  0.00    +0.000 A 
ATOM     22  C   UNL     1       7.700   6.186  18.701  0.00  0.00    +0.000 A 
ATOM     23  C   UNL     1       6.582   5.426  18.971  0.00  0.00    +0.000 A 
ENDBRANCH  17  19
ENDBRANCH  16  17
ENDBRANCH   5  16
TORSDOF 5
ENDMDL
MODEL 5
REMARK VINA RESULT:      -6.6      4.965      8.004
REMARK  Name = 
REMARK  7 active torsions:
REMARK  status: ('A' for Active; 'I' for Inactive)
REMARK    1  A    between atoms: C_1  and  C_2
REMARK    2  A    between atoms: C_2  and  N_3
REMARK    3  A    between atoms: C_7  and  C_8
REMARK    4  A    between atoms: C_12  and  C_14
REMARK    5  A    between atoms: C_14  and  C_15
REMARK    6  A    between atoms: C_15  and  C_16
REMARK    7  A    between atoms: C_15  and  N_17
REMARK                            x       y       z     vdW  Elec       q    Type
REMARK                         _______ _______ _______ _____ _____    ______ ____
ROOT
ATOM      1  C   UNL     1       3.149   4.655  18.558  0.00  0.00    +0.000 C 
ATOM      2  C   UNL     1       2.537   5.769  17.704  0.00  0.00    +0.000 C 
ATOM      3  C   UNL     1       2.485   7.124  18.403  0.00  0.00    +0.000 C 
ATOM      4  N   UNL     1       1.922   7.072  19.750  0.00  0.00    +0.000 N 
ATOM      5  C   UNL     1       1.455   8.227  20.400  0.00  0.00    +0.000 C 
ATOM      6  O   UNL     1       1.079   8.217  21.574  0.00  0.00    +0.000 OA
ATOM      7  C   UNL     1       2.436   6.012  20.617  0.00  0.00    +0.000 C 
ATOM      8  C   UNL     1       2.496   4.644  19.944  0.00  0.00    +0.000 C 
ENDROOT
BRANCH   1  13
ATOM      9  N   UNL     1       5.533   4.472  17.611  0.00  0.00    +0.000 N 
ATOM     10  C   UNL     1       6.771   4.795  18.089  0.00  0.00    +0.000 A 
ATOM     11  N   UNL     1       6.666   5.228  19.323  0.00  0.00    +0.000 NA
ATOM     12  N   UNL     1       5.337   5.206  19.656  0.00  0.00    +0.000 NA
ATOM     13  C   UNL     1       4.646   4.765  18.620  0.00  0.00    +0.000 A 
BRANCH   9  15
ATOM     14  C   UNL     1       5.597   5.001  15.198  0.00  0.00    +0.000 C 
ATOM     15  C   UNL     1       5.300   3.968  16.274  0.00  0.00    +0.000 C 
ENDBRANCH   9  15
ENDBRANCH   1  13
BRANCH   5  16
ATOM     16  C   UNL     1       1.382   9.504  19.577  0.00  0.00    +0.000 C 
BRANCH  16  17
ATOM     17  C   UNL     1       0.299  10.480  20.061  0.00  0.00    +0.000 C 
ATOM     18  C   UNL     1       0.870  11.866  20.387  0.00  0.00    +0.000 C 
BRANCH  17  19
ATOM     19  N   UNL     1      -0.754  10.595  19.038  0.00  0.00    +0.000 N 
ATOM     20  C   UNL     1      -1.837  11.440  19.094  0.00  0.00    +0.000 A 
ATOM     21  C   UNL     1      -2.563  11.289  17.934  0.00  0.00    +0.000 A 
ATOM     22  C   UNL     1      -1.907  10.309  17.155  0.00  0.00    +0.000 A 
ATOM     23  C   UNL     1      -0.797   9.895  17.859  0.00  0.00    +0.000 A 
ENDBRANCH  17  19
ENDBRANCH  16  17
ENDBRANCH   5  16
TORSDOF 5
ENDMDL
MODEL 6
REMARK VINA RESULT:      -6.5      4.813      8.231
REMARK  Name = 
REMARK  7 active torsions:
REMARK  status: ('A' for Active; 'I' for Inactive)
REMARK    1  A    between atoms: C_1  and  C_2
REMARK    2  A    between atoms: C_2  and  N_3
REMARK    3  A    between atoms: C_7  and  C_8
REMARK    4  A    between atoms: C_12  and  C_14
REMARK    5  A    between atoms: C_14  and  C_15
REMARK    6  A    between atoms: C_15  and  C_16
REMARK    7  A    between atoms: C_15  and  N_17
REMARK                            x       y       z     vdW  Elec       q    Type
REMARK                         _______ _______ _______ _____ _____    ______ ____
ROOT
ATOM      1  C   UNL     1       4.212   4.965  17.946  0.00  0.00    +0.000 C 
ATOM      2  C   UNL     1       3.632   6.256  17.361  0.00  0.00    +0.000 C 
ATOM      3  C   UNL     1       3.174   7.260  18.413  0.00  0.00    +0.000 C 
ATOM      4  N   UNL     1       2.324   6.680  19.452  0.00  0.00    +0.000 N 
ATOM      5  C   UNL     1       1.517   7.481  20.278  0.00  0.00    +0.000 C 
ATOM      6  O   UNL     1       0.880   7.018  21.227  0.00  0.00    +0.000 OA
ATOM      7  C   UNL     1       2.798   5.427  20.039  0.00  0.00    +0.000 C 
ATOM      8  C   UNL     1       3.260   4.402  19.007  0.00  0.00    +0.000 C 
ENDROOT
BRANCH   1  13
ATOM      9  N   UNL     1       6.711   5.530  17.729  0.00  0.00    +0.000 N 
ATOM     10  C   UNL     1       7.731   5.677  18.625  0.00  0.00    +0.000 A 
ATOM     11  N   UNL     1       7.300   5.399  19.833  0.00  0.00    +0.000 NA
ATOM     12  N   UNL     1       5.972   5.079  19.731  0.00  0.00    +0.000 NA
ATOM     13  C   UNL     1       5.607   5.172  18.465  0.00  0.00    +0.000 A 
BRANCH   9  15
ATOM     14  C   UNL     1       6.811   4.489  15.490  0.00  0.00    +0.000 C 
ATOM     15  C   UNL     1       6.855   5.770  16.309  0.00  0.00    +0.000 C 
ENDBRANCH   9  15
ENDBRANCH   1  13
BRANCH   5  16
ATOM     16  C   UNL     1       1.415   8.957  19.926  0.00  0.00    +0.000 C 
BRANCH  16  17
ATOM     17  C   UNL     1       0.167   9.638  20.508  0.00  0.00    +0.000 C 
ATOM     18  C   UNL     1       0.464  10.374  21.819  0.00  0.00    +0.000 C 
BRANCH  17  19
ATOM     19  N   UNL     1      -0.391  10.573  19.517  0.00  0.00    +0.000 N 
ATOM     20  C   UNL     1      -1.284  10.249  18.522  0.00  0.00    +0.000 A 
ATOM     21  C   UNL     1      -1.603  11.399  17.836  0.00  0.00    +0.000 A 
ATOM     22  C   UNL     1      -0.868  12.454  18.425  0.00  0.00    +0.000 A 
ATOM     23  C   UNL     1      -0.127  11.917  19.456  0.00  0.00    +0.000 A 
ENDBRANCH  17  19
ENDBRANCH  16  17
ENDBRANCH   5  16
TORSDOF 5
ENDMDL
MODEL 7
REMARK VINA RESULT:      -6.4      4.820      7.843
REMARK  Name = 
REMARK  7 active torsions:
REMARK  status: ('A' for Active; 'I' for Inactive)
REMARK    1  A    between atoms: C_1  and  C_2
REMARK    2  A    between atoms: C_2  and  N_3
REMARK    3  A    between atoms: C_7  and  C_8
REMARK    4  A    between atoms: C_12  and  C_14
REMARK    5  A    between atoms: C_14  and  C_15
REMARK    6  A    between atoms: C_15  and  C_16
REMARK    7  A    between atoms: C_15  and  N_17
REMARK                            x       y       z     vdW  Elec       q    Type
REMARK                         _______ _______ _______ _____ _____    ______ ____
ROOT
ATOM      1  C   UNL     1       4.082   5.085  19.108  0.00  0.00    +0.000 C 
ATOM      2  C   UNL     1       3.346   5.871  20.197  0.00  0.00    +0.000 C 
ATOM      3  C   UNL     1       2.274   6.813  19.661  0.00  0.00    +0.000 C 
ATOM      4  N   UNL     1       2.731   7.663  18.564  0.00  0.00    +0.000 N 
ATOM      5  C   UNL     1       2.034   8.824  18.189  0.00  0.00    +0.000 C 
ATOM      6  O   UNL     1       2.344   9.492  17.200  0.00  0.00    +0.000 OA
ATOM      7  C   UNL     1       3.471   6.989  17.498  0.00  0.00    +0.000 C 
ATOM      8  C   UNL     1       4.553   6.041  18.006  0.00  0.00    +0.000 C 
ENDROOT
BRANCH   1  13
ATOM      9  N   UNL     1       2.682   2.938  19.316  0.00  0.00    +0.000 N 
ATOM     10  C   UNL     1       1.950   2.195  18.435  0.00  0.00    +0.000 A 
ATOM     11  N   UNL     1       2.074   2.694  17.228  0.00  0.00    +0.000 NA
ATOM     12  N   UNL     1       2.888   3.793  17.320  0.00  0.00    +0.000 NA
ATOM     13  C   UNL     1       3.245   3.955  18.581  0.00  0.00    +0.000 A 
BRANCH   9  15
ATOM     14  C   UNL     1       1.414   2.828  21.434  0.00  0.00    +0.000 C 
ATOM     15  C   UNL     1       2.753   2.656  20.734  0.00  0.00    +0.000 C 
ENDBRANCH   9  15
ENDBRANCH   1  13
BRANCH   5  16
ATOM     16  C   UNL     1       0.891   9.268  19.091  0.00  0.00    +0.000 C 
BRANCH  16  17
ATOM     17  C   UNL     1       0.198  10.551  18.610  0.00  0.00    +0.000 C 
ATOM     18  C   UNL     1      -1.319  10.512  18.837  0.00  0.00    +0.000 C 
BRANCH  17  19
ATOM     19  N   UNL     1       0.782  11.714  19.298  0.00  0.00    +0.000 N 
ATOM     20  C   UNL     1       0.516  12.098  20.592  0.00  0.00    +0.000 A 
ATOM     21  C   UNL     1       1.289  13.200  20.883  0.00  0.00    +0.000 A 
ATOM     22  C   UNL     1       2.037  13.504  19.723  0.00  0.00    +0.000 A 
ATOM     23  C   UNL     1       1.704  12.575  18.760  0.00  0.00    +0.000 A 
ENDBRANCH  17  19
ENDBRANCH  16  17
ENDBRANCH   5  16
TORSDOF 5
ENDMDL
MODEL 8
REMARK VINA RESULT:      -6.4      3.089      7.060
REMARK  Name = 
REMARK  7 active torsions:
REMARK  status: ('A' for Active; 'I' for Inactive)
REMARK    1  A    between atoms: C_1  and  C_2
REMARK    2  A    between atoms: C_2  and  N_3
REMARK    3  A    between atoms: C_7  and  C_8
REMARK    4  A    between atoms: C_12  and  C_14
REMARK    5  A    between atoms: C_14  and  C_15
REMARK    6  A    between atoms: C_15  and  C_16
REMARK    7  A    between atoms: C_15  and  N_17
REMARK                            x       y       z     vdW  Elec       q    Type
REMARK                         _______ _______ _______ _____ _____    ______ ____
ROOT
ATOM      1  C   UNL     1       6.078   5.497  16.197  0.00  0.00    +0.000 C 
ATOM      2  C   UNL     1       4.811   6.330  16.411  0.00  0.00    +0.000 C 
ATOM      3  C   UNL     1       3.809   5.694  17.370  0.00  0.00    +0.000 C 
ATOM      4  N   UNL     1       3.519   4.292  17.077  0.00  0.00    +0.000 N 
ATOM      5  C   UNL     1       2.381   3.650  17.593  0.00  0.00    +0.000 C 
ATOM      6  O   UNL     1       2.180   2.442  17.444  0.00  0.00    +0.000 OA
ATOM      7  C   UNL     1       4.680   3.438  16.830  0.00  0.00    +0.000 C 
ATOM      8  C   UNL     1       5.698   4.048  15.871  0.00  0.00    +0.000 C 
ENDROOT
BRANCH   1  13
ATOM      9  N   UNL     1       7.555   6.759  17.882  0.00  0.00    +0.000 N 
ATOM     10  C   UNL     1       8.275   6.383  18.980  0.00  0.00    +0.000 A 
ATOM     11  N   UNL     1       8.214   5.080  19.120  0.00  0.00    +0.000 NA
ATOM     12  N   UNL     1       7.429   4.593  18.109  0.00  0.00    +0.000 NA
ATOM     13  C   UNL     1       7.014   5.604  17.367  0.00  0.00    +0.000 A 
BRANCH   9  15
ATOM     14  C   UNL     1       8.363   9.076  18.175  0.00  0.00    +0.000 C 
ATOM     15  C   UNL     1       7.413   8.134  17.452  0.00  0.00    +0.000 C 
ENDBRANCH   9  15
ENDBRANCH   1  13
BRANCH   5  16
ATOM     16  C   UNL     1       1.361   4.520  18.312  0.00  0.00    +0.000 C 
BRANCH  16  17
ATOM     17  C   UNL     1       1.834   5.000  19.692  0.00  0.00    +0.000 C 
ATOM     18  C   UNL     1       0.816   5.929  20.364  0.00  0.00    +0.000 C 
BRANCH  17  19
ATOM     19  N   UNL     1       2.103   3.837  20.554  0.00  0.00    +0.000 N 
ATOM     20  C   UNL     1       1.177   3.189  21.337  0.00  0.00    +0.000 A 
ATOM     21  C   UNL     1       1.801   2.127  21.953  0.00  0.00    +0.000 A 
ATOM     22  C   UNL     1       3.153   2.140  21.541  0.00  0.00    +0.000 A 
ATOM     23  C   UNL     1       3.314   3.206  20.681  0.00  0.00    +0.000 A 
ENDBRANCH  17  19
ENDBRANCH  16  17
ENDBRANCH   5  16
TORSDOF 5
ENDMDL
MODEL 9
REMARK VINA RESULT:      -6.4      5.418      8.423
REMARK  Name = 
REMARK  7 active torsions:
REMARK  status: ('A' for Active; 'I' for Inactive)
REMARK    1  A    between atoms: C_1  and  C_2
REMARK    2  A    between atoms: C_2  and  N_3
REMARK    3  A    between atoms: C_7  and  C_8
REMARK    4  A    between atoms: C_12  and  C_14
REMARK    5  A    between atoms: C_14  and  C_15
REMARK    6  A    between atoms: C_15  and  C_16
REMARK    7  A    between atoms: C_15  and  N_17
REMARK                            x       y       z     vdW  Elec       q    Type
REMARK                         _______ _______ _______ _____ _____    ______ ____
ROOT
ATOM      1  C   UNL     1       3.583   5.453  19.368  0.00  0.00    +0.000 C 
ATOM      2  C   UNL     1       2.809   6.243  20.428  0.00  0.00    +0.000 C 
ATOM      3  C   UNL     1       1.784   7.212  19.849  0.00  0.00    +0.000 C 
ATOM      4  N   UNL     1       2.312   8.065  18.786  0.00  0.00    +0.000 N 
ATOM      5  C   UNL     1       1.657   9.243  18.391  0.00  0.00    +0.000 C 
ATOM      6  O   UNL     1       2.030   9.914  17.426  0.00  0.00    +0.000 OA
ATOM      7  C   UNL     1       3.090   7.386  17.751  0.00  0.00    +0.000 C 
ATOM      8  C   UNL     1       4.127   6.411  18.302  0.00  0.00    +0.000 C 
ENDROOT
BRANCH   1  13
ATOM      9  N   UNL     1       2.415   3.163  19.401  0.00  0.00    +0.000 N 
ATOM     10  C   UNL     1       1.591   2.507  18.533  0.00  0.00    +0.000 A 
ATOM     11  N   UNL     1       1.449   3.217  17.439  0.00  0.00    +0.000 NA
ATOM     12  N   UNL     1       2.178   4.365  17.597  0.00  0.00    +0.000 NA
ATOM     13  C   UNL     1       2.751   4.346  18.787  0.00  0.00    +0.000 A 
BRANCH   9  15
ATOM     14  C   UNL     1       1.599   2.651  21.677  0.00  0.00    +0.000 C 
ATOM     15  C   UNL     1       2.771   2.650  20.707  0.00  0.00    +0.000 C 
ENDBRANCH   9  15
ENDBRANCH   1  13
BRANCH   5  16
ATOM     16  C   UNL     1       0.480   9.700  19.239  0.00  0.00    +0.000 C 
BRANCH  16  17
ATOM     17  C   UNL     1      -0.415  10.731  18.536  0.00  0.00    +0.000 C 
ATOM     18  C   UNL     1      -1.422  10.074  17.584  0.00  0.00    +0.000 C 
BRANCH  17  19
ATOM     19  N   UNL     1      -1.124  11.538  19.543  0.00  0.00    +0.000 N 
ATOM     20  C   UNL     1      -2.394  12.048  19.412  0.00  0.00    +0.000 A 
ATOM     21  C   UNL     1      -2.720  12.701  20.580  0.00  0.00    +0.000 A 
ATOM     22  C   UNL     1      -1.605  12.596  21.442  0.00  0.00    +0.000 A 
ATOM     23  C   UNL     1      -0.633  11.877  20.778  0.00  0.00    +0.000 A 
ENDBRANCH  17  19
ENDBRANCH  16  17
ENDBRANCH   5  16
TORSDOF 5
ENDMDL
