MODEL 1
REMARK VINA RESULT:      -7.2      0.000      0.000
REMARK  Name = 
REMARK  10 active torsions:
REMARK  status: ('A' for Active; 'I' for Inactive)
REMARK    1  A    between atoms: C_1  and  C_2
REMARK    2  A    between atoms: C_2  and  C_3
REMARK    3  A    between atoms: C_3  and  C_4
REMARK    4  A    between atoms: C_8  and  C_9
REMARK    5  A    between atoms: C_10  and  C_11
REMARK    6  A    between atoms: N_12  and  C_13
REMARK    7  A    between atoms: C_13  and  C_14
REMARK    8  A    between atoms: C_20  and  N_21
REMARK    9  A    between atoms: C_22  and  C_23
REMARK   10  A    between atoms: C_23  and  C_24
REMARK                            x       y       z     vdW  Elec       q    Type
REMARK                         _______ _______ _______ _____ _____    ______ ____
ROOT
ATOM      1  C   UNL     1       5.854   6.053  17.466  0.00  0.00    +0.000 A 
ATOM      2  N   UNL     1       4.873   6.371  18.355  0.00  0.00    +0.000 NA
ATOM      3  C   UNL     1       3.929   5.428  18.526  0.00  0.00    +0.000 A 
ATOM      4  C   UNL     1       3.853   4.199  17.876  0.00  0.00    +0.000 A 
ATOM      5  C   UNL     1       2.711   3.514  18.423  0.00  0.00    +0.000 A 
ATOM      6  C   UNL     1       2.219   2.136  18.151  0.00  0.00    +0.000 C 
ATOM      7  C   UNL     1       2.094   4.382  19.322  0.00  0.00    +0.000 A 
ATOM      8  C   UNL     1       0.856   4.163  20.123  0.00  0.00    +0.000 C 
ATOM      9  N   UNL     1       2.858   5.529  19.392  0.00  0.00    +0.000 N 
ATOM     10  C   UNL     1       4.875   3.901  16.934  0.00  0.00    +0.000 A 
ATOM     11  C   UNL     1       5.924   4.839  16.745  0.00  0.00    +0.000 A 
ENDROOT
BRANCH  10  12
ATOM     12  N   UNL     1       4.863   2.721  16.169  0.00  0.00    +0.000 N 
ATOM     13  H   UNL     1       5.117   2.844  15.201  0.00  0.00    +0.000 HD
ATOM     14  H   UNL     1       4.007   2.189  16.274  0.00  0.00    +0.000 HD
ENDBRANCH  10  12
BRANCH  11  15
ATOM     15  C   UNL     1       7.124   4.476  15.878  0.00  0.00    +0.000 C 
ATOM     16  C   UNL     1       7.075   4.849  14.397  0.00  0.00    +0.000 C 
ENDBRANCH  11  15
BRANCH   1  17
ATOM     17  C   UNL     1       6.863   7.170  17.274  0.00  0.00    +0.000 C 
BRANCH  17  19
ATOM     18  C   UNL     1       7.972   5.912  19.194  0.00  0.00    +0.000 C 
ATOM     19  C   UNL     1       7.981   7.162  18.324  0.00  0.00    +0.000 C 
ENDBRANCH  17  19
ENDBRANCH   1  17
BRANCH   9  20
ATOM     20  C   UNL     1       2.639   6.638  20.318  0.00  0.00    +0.000 C 
BRANCH  20  21
ATOM     21  C   UNL     1       1.953   7.812  19.661  0.00  0.00    +0.000 A 
ATOM     22  C   UNL     1       2.102   8.041  18.295  0.00  0.00    +0.000 A 
ATOM     23  C   UNL     1       1.427   9.105  17.706  0.00  0.00    +0.000 A 
ATOM     24  C   UNL     1       0.635   9.929  18.493  0.00  0.00    +0.000 A 
ATOM     25  C   UNL     1       0.565   9.662  19.849  0.00  0.00    +0.000 A 
ATOM     26  N   UNL     1       1.203   8.630  20.449  0.00  0.00    +0.000 NA
ENDBRANCH  20  21
ENDBRANCH   9  20
TORSDOF 6
ENDMDL
MODEL 2
REMARK VINA RESULT:      -6.6      7.498     10.514
REMARK  Name = 
REMARK  10 active torsions:
REMARK  status: ('A' for Active; 'I' for Inactive)
REMARK    1  A    between atoms: C_1  and  C_2
REMARK    2  A    between atoms: C_2  and  C_3
REMARK    3  A    between atoms: C_3  and  C_4
REMARK    4  A    between atoms: C_8  and  C_9
REMARK    5  A    between atoms: C_10  and  C_11
REMARK    6  A    between atoms: N_12  and  C_13
REMARK    7  A    between atoms: C_13  and  C_14
REMARK    8  A    between atoms: C_20  and  N_21
REMARK    9  A    between atoms: C_22  and  C_23
REMARK   10  A    between atoms: C_23  and  C_24
REMARK                            x       y       z     vdW  Elec       q    Type
REMARK                         _______ _______ _______ _____ _____    ______ ____
ROOT
ATOM      1  C   UNL     1      -3.987  11.458  18.262  0.00  0.00    +0.000 A 
ATOM      2  N   UNL     1      -3.849  12.327  19.302  0.00  0.00    +0.000 NA
ATOM      3  C   UNL     1      -2.601  12.441  19.791  0.00  0.00    +0.000 A 
ATOM      4  C   UNL     1      -1.472  11.751  19.357  0.00  0.00    +0.000 A 
ATOM      5  C   UNL     1      -0.365  12.243  20.137  0.00  0.00    +0.000 A 
ATOM      6  C   UNL     1       1.082  11.913  20.030  0.00  0.00    +0.000 C 
ATOM      7  C   UNL     1      -0.876  13.148  21.063  0.00  0.00    +0.000 A 
ATOM      8  C   UNL     1      -0.148  13.905  22.122  0.00  0.00    +0.000 C 
ATOM      9  N   UNL     1      -2.230  13.277  20.825  0.00  0.00    +0.000 N 
ATOM     10  C   UNL     1      -1.646  10.832  18.288  0.00  0.00    +0.000 A 
ATOM     11  C   UNL     1      -2.932  10.703  17.701  0.00  0.00    +0.000 A 
ENDROOT
BRANCH  10  12
ATOM     12  N   UNL     1      -0.592  10.031  17.814  0.00  0.00    +0.000 N 
ATOM     13  H   UNL     1      -0.799   9.515  16.972  0.00  0.00    +0.000 HD
ATOM     14  H   UNL     1      -0.187   9.441  18.532  0.00  0.00    +0.000 HD
ENDBRANCH  10  12
BRANCH  11  15
ATOM     15  C   UNL     1      -3.116   9.861  16.443  0.00  0.00    +0.000 C 
ATOM     16  C   UNL     1      -2.953  10.552  15.090  0.00  0.00    +0.000 C 
ENDBRANCH  11  15
BRANCH   1  17
ATOM     17  C   UNL     1      -5.421  11.331  17.784  0.00  0.00    +0.000 C 
BRANCH  17  19
ATOM     18  C   UNL     1      -7.204  11.356  19.607  0.00  0.00    +0.000 C 
ATOM     19  C   UNL     1      -6.301  10.501  18.727  0.00  0.00    +0.000 C 
ENDBRANCH  17  19
ENDBRANCH   1  17
BRANCH   9  20
ATOM     20  C   UNL     1      -3.120  14.230  21.485  0.00  0.00    +0.000 C 
BRANCH  20  21
ATOM     21  C   UNL     1      -4.003  13.573  22.519  0.00  0.00    +0.000 A 
ATOM     22  C   UNL     1      -3.449  13.013  23.666  0.00  0.00    +0.000 A 
ATOM     23  C   UNL     1      -4.287  12.450  24.623  0.00  0.00    +0.000 A 
ATOM     24  C   UNL     1      -5.657  12.439  24.407  0.00  0.00    +0.000 A 
ATOM     25  C   UNL     1      -6.133  12.981  23.225  0.00  0.00    +0.000 A 
ATOM     26  N   UNL     1      -5.343  13.543  22.280  0.00  0.00    +0.000 NA
ENDBRANCH  20  21
ENDBRANCH   9  20
TORSDOF 6
ENDMDL
MODEL 3
REMARK VINA RESULT:      -6.6      6.779     10.884
REMARK  Name = 
REMARK  10 active torsions:
REMARK  status: ('A' for Active; 'I' for Inactive)
REMARK    1  A    between atoms: C_1  and  C_2
REMARK    2  A    between atoms: C_2  and  C_3
REMARK    3  A    between atoms: C_3  and  C_4
REMARK    4  A    between atoms: C_8  and  C_9
REMARK    5  A    between atoms: C_10  and  C_11
REMARK    6  A    between atoms: N_12  and  C_13
REMARK    7  A    between atoms: C_13  and  C_14
REMARK    8  A    between atoms: C_20  and  N_21
REMARK    9  A    between atoms: C_22  and  C_23
REMARK   10  A    between atoms: C_23  and  C_24
REMARK                            x       y       z     vdW  Elec       q    Type
REMARK                         _______ _______ _______ _____ _____    ______ ____
ROOT
ATOM      1  C   UNL     1      -3.949  11.900  18.895  0.00  0.00    +0.000 A 
ATOM      2  N   UNL     1      -2.811  12.204  19.577  0.00  0.00    +0.000 NA
ATOM      3  C   UNL     1      -3.001  12.750  20.793  0.00  0.00    +0.000 A 
ATOM      4  C   UNL     1      -4.223  13.045  21.390  0.00  0.00    +0.000 A 
ATOM      5  C   UNL     1      -3.927  13.560  22.701  0.00  0.00    +0.000 A 
ATOM      6  C   UNL     1      -4.859  13.950  23.793  0.00  0.00    +0.000 C 
ATOM      7  C   UNL     1      -2.540  13.631  22.818  0.00  0.00    +0.000 A 
ATOM      8  C   UNL     1      -1.730  14.130  23.967  0.00  0.00    +0.000 C 
ATOM      9  N   UNL     1      -1.993  13.113  21.662  0.00  0.00    +0.000 N 
ATOM     10  C   UNL     1      -5.397  12.741  20.647  0.00  0.00    +0.000 A 
ATOM     11  C   UNL     1      -5.259  12.122  19.377  0.00  0.00    +0.000 A 
ENDROOT
BRANCH  10  12
ATOM     12  N   UNL     1      -6.682  13.058  21.121  0.00  0.00    +0.000 N 
ATOM     13  H   UNL     1      -6.697  13.568  21.991  0.00  0.00    +0.000 HD
ATOM     14  H   UNL     1      -7.307  12.261  21.136  0.00  0.00    +0.000 HD
ENDBRANCH  10  12
BRANCH  11  15
ATOM     15  C   UNL     1      -6.493  11.624  18.634  0.00  0.00    +0.000 C 
ATOM     16  C   UNL     1      -6.942  10.183  18.876  0.00  0.00    +0.000 C 
ENDBRANCH  11  15
BRANCH   1  17
ATOM     17  C   UNL     1      -3.677  11.336  17.513  0.00  0.00    +0.000 C 
BRANCH  17  19
ATOM     18  C   UNL     1      -1.646   9.826  17.198  0.00  0.00    +0.000 C 
ATOM     19  C   UNL     1      -3.128   9.903  17.542  0.00  0.00    +0.000 C 
ENDBRANCH  17  19
ENDBRANCH   1  17
BRANCH   9  20
ATOM     20  C   UNL     1      -0.569  12.879  21.431  0.00  0.00    +0.000 C 
BRANCH  20  21
ATOM     21  C   UNL     1      -0.185  11.430  21.616  0.00  0.00    +0.000 A 
ATOM     22  C   UNL     1       0.237  10.668  20.530  0.00  0.00    +0.000 A 
ATOM     23  C   UNL     1       0.623   9.347  20.734  0.00  0.00    +0.000 A 
ATOM     24  C   UNL     1       0.561   8.808  22.011  0.00  0.00    +0.000 A 
ATOM     25  C   UNL     1       0.096   9.615  23.035  0.00  0.00    +0.000 A 
ATOM     26  N   UNL     1      -0.279  10.905  22.869  0.00  0.00    +0.000 NA
ENDBRANCH  20  21
ENDBRANCH   9  20
TORSDOF 6
ENDMDL
MODEL 4
REMARK VINA RESULT:      -6.6      6.083     10.165
REMARK  Name = 
REMARK  10 active torsions:
REMARK  status: ('A' for Active; 'I' for Inactive)
REMARK    1  A    between atoms: C_1  and  C_2
REMARK    2  A    between atoms: C_2  and  C_3
REMARK    3  A    between atoms: C_3  and  C_4
REMARK    4  A    between atoms: C_8  and  C_9
REMARK    5  A    between atoms: C_10  and  C_11
REMARK    6  A    between atoms: N_12  and  C_13
REMARK    7  A    between atoms: C_13  and  C_14
REMARK    8  A    between atoms: C_20  and  N_21
REMARK    9  A    between atoms: C_22  and  C_23
REMARK   10  A    between atoms: C_23  and  C_24
REMARK                            x       y       z     vdW  Elec       q    Type
REMARK                         _______ _______ _______ _____ _____    ______ ____
ROOT
ATOM      1  C   UNL     1      -1.859  10.866  18.208  0.00  0.00    +0.000 A 
ATOM      2  N   UNL     1      -3.089  11.347  18.539  0.00  0.00    +0.000 NA
ATOM      3  C   UNL     1      -3.129  12.090  19.661  0.00  0.00    +0.000 A 
ATOM      4  C   UNL     1      -2.060  12.382  20.503  0.00  0.00    +0.000 A 
ATOM      5  C   UNL     1      -2.573  13.248  21.533  0.00  0.00    +0.000 A 
ATOM      6  C   UNL     1      -1.848  13.927  22.641  0.00  0.00    +0.000 C 
ATOM      7  C   UNL     1      -3.944  13.382  21.322  0.00  0.00    +0.000 A 
ATOM      8  C   UNL     1      -4.938  14.143  22.132  0.00  0.00    +0.000 C 
ATOM      9  N   UNL     1      -4.261  12.694  20.169  0.00  0.00    +0.000 N 
ATOM     10  C   UNL     1      -0.792  11.847  20.150  0.00  0.00    +0.000 A 
ATOM     11  C   UNL     1      -0.679  11.093  18.952  0.00  0.00    +0.000 A 
ENDROOT
BRANCH  10  12
ATOM     12  N   UNL     1       0.343  12.019  20.962  0.00  0.00    +0.000 N 
ATOM     13  H   UNL     1       1.197  12.204  20.459  0.00  0.00    +0.000 HD
ATOM     14  H   UNL     1       0.457  11.281  21.647  0.00  0.00    +0.000 HD
ENDBRANCH  10  12
BRANCH  11  15
ATOM     15  C   UNL     1       0.693  10.656  18.453  0.00  0.00    +0.000 C 
ATOM     16  C   UNL     1       1.235   9.310  18.934  0.00  0.00    +0.000 C 
ENDBRANCH  11  15
BRANCH   1  17
ATOM     17  C   UNL     1      -1.880   9.996  16.965  0.00  0.00    +0.000 C 
BRANCH  17  19
ATOM     18  C   UNL     1      -2.957  10.070  14.655  0.00  0.00    +0.000 C 
ATOM     19  C   UNL     1      -3.181  10.122  16.161  0.00  0.00    +0.000 C 
ENDBRANCH  17  19
ENDBRANCH   1  17
BRANCH   9  20
ATOM     20  C   UNL     1      -5.570  12.692  19.516  0.00  0.00    +0.000 C 
BRANCH  20  21
ATOM     21  C   UNL     1      -6.392  11.478  19.878  0.00  0.00    +0.000 A 
ATOM     22  C   UNL     1      -6.404  10.361  19.047  0.00  0.00    +0.000 A 
ATOM     23  C   UNL     1      -7.138   9.241  19.422  0.00  0.00    +0.000 A 
ATOM     24  C   UNL     1      -7.860   9.265  20.607  0.00  0.00    +0.000 A 
ATOM     25  C   UNL     1      -7.830  10.424  21.363  0.00  0.00    +0.000 A 
ATOM     26  N   UNL     1      -7.120  11.526  21.028  0.00  0.00    +0.000 NA
ENDBRANCH  20  21
ENDBRANCH   9  20
TORSDOF 6
ENDMDL
MODEL 5
REMARK VINA RESULT:      -6.5      7.491     10.448
REMARK  Name = 
REMARK  10 active torsions:
REMARK  status: ('A' for Active; 'I' for Inactive)
REMARK    1  A    between atoms: C_1  and  C_2
REMARK    2  A    between atoms: C_2  and  C_3
REMARK    3  A    between atoms: C_3  and  C_4
REMARK    4  A    between atoms: C_8  and  C_9
REMARK    5  A    between atoms: C_10  and  C_11
REMARK    6  A    between atoms: N_12  and  C_13
REMARK    7  A    between atoms: C_13  and  C_14
REMARK    8  A    between atoms: C_20  and  N_21
REMARK    9  A    between atoms: C_22  and  C_23
REMARK   10  A    between atoms: C_23  and  C_24
REMARK                            x       y       z     vdW  Elec       q    Type
REMARK                         _______ _______ _______ _____ _____    ______ ____
ROOT
ATOM      1  C   UNL     1      -3.964  11.388  18.177  0.00  0.00    +0.000 A 
ATOM      2  N   UNL     1      -3.860  12.271  19.208  0.00  0.00    +0.000 NA
ATOM      3  C   UNL     1      -2.624  12.403  19.725  0.00  0.00    +0.000 A 
ATOM      4  C   UNL     1      -1.478  11.720  19.327  0.00  0.00    +0.000 A 
ATOM      5  C   UNL     1      -0.395  12.233  20.126  0.00  0.00    +0.000 A 
ATOM      6  C   UNL     1       1.057  11.917  20.058  0.00  0.00    +0.000 C 
ATOM      7  C   UNL     1      -0.937  13.145  21.029  0.00  0.00    +0.000 A 
ATOM      8  C   UNL     1      -0.241  13.923  22.094  0.00  0.00    +0.000 C 
ATOM      9  N   UNL     1      -2.286  13.256  20.757  0.00  0.00    +0.000 N 
ATOM     10  C   UNL     1      -1.618  10.785  18.266  0.00  0.00    +0.000 A 
ATOM     11  C   UNL     1      -2.889  10.636  17.651  0.00  0.00    +0.000 A 
ENDROOT
BRANCH  10  12
ATOM     12  N   UNL     1      -0.545   9.989  17.827  0.00  0.00    +0.000 N 
ATOM     13  H   UNL     1      -0.403   9.986  16.829  0.00  0.00    +0.000 HD
ATOM     14  H   UNL     1      -0.562   9.052  18.213  0.00  0.00    +0.000 HD
ENDBRANCH  10  12
BRANCH  11  15
ATOM     15  C   UNL     1      -3.034   9.777  16.400  0.00  0.00    +0.000 C 
ATOM     16  C   UNL     1      -2.920  10.466  15.041  0.00  0.00    +0.000 C 
ENDBRANCH  11  15
BRANCH   1  17
ATOM     17  C   UNL     1      -5.385  11.240  17.667  0.00  0.00    +0.000 C 
BRANCH  17  19
ATOM     18  C   UNL     1      -6.851   9.860  19.231  0.00  0.00    +0.000 C 
ATOM     19  C   UNL     1      -6.434  11.256  18.787  0.00  0.00    +0.000 C 
ENDBRANCH  17  19
ENDBRANCH   1  17
BRANCH   9  20
ATOM     20  C   UNL     1      -3.201  14.209  21.383  0.00  0.00    +0.000 C 
BRANCH  20  21
ATOM     21  C   UNL     1      -4.044  13.573  22.463  0.00  0.00    +0.000 A 
ATOM     22  C   UNL     1      -5.422  13.454  22.304  0.00  0.00    +0.000 A 
ATOM     23  C   UNL     1      -6.170  12.829  23.295  0.00  0.00    +0.000 A 
ATOM     24  C   UNL     1      -5.533  12.354  24.433  0.00  0.00    +0.000 A 
ATOM     25  C   UNL     1      -4.166  12.542  24.539  0.00  0.00    +0.000 A 
ATOM     26  N   UNL     1      -3.410  13.139  23.587  0.00  0.00    +0.000 NA
ENDBRANCH  20  21
ENDBRANCH   9  20
TORSDOF 6
ENDMDL
MODEL 6
REMARK VINA RESULT:      -6.4      0.912      1.426
REMARK  Name = 
REMARK  10 active torsions:
REMARK  status: ('A' for Active; 'I' for Inactive)
REMARK    1  A    between atoms: C_1  and  C_2
REMARK    2  A    between atoms: C_2  and  C_3
REMARK    3  A    between atoms: C_3  and  C_4
REMARK    4  A    between atoms: C_8  and  C_9
REMARK    5  A    between atoms: C_10  and  C_11
REMARK    6  A    between atoms: N_12  and  C_13
REMARK    7  A    between atoms: C_13  and  C_14
REMARK    8  A    between atoms: C_20  and  N_21
REMARK    9  A    between atoms: C_22  and  C_23
REMARK   10  A    between atoms: C_23  and  C_24
REMARK                            x       y       z     vdW  Elec       q    Type
REMARK                         _______ _______ _______ _____ _____    ______ ____
ROOT
ATOM      1  C   UNL     1       6.149   5.717  18.239  0.00  0.00    +0.000 A 
ATOM      2  N   UNL     1       5.093   5.956  19.064  0.00  0.00    +0.000 NA
ATOM      3  C   UNL     1       4.058   5.105  18.928  0.00  0.00    +0.000 A 
ATOM      4  C   UNL     1       3.964   4.047  18.029  0.00  0.00    +0.000 A 
ATOM      5  C   UNL     1       2.707   3.395  18.292  0.00  0.00    +0.000 A 
ATOM      6  C   UNL     1       2.140   2.161  17.683  0.00  0.00    +0.000 C 
ATOM      7  C   UNL     1       2.055   4.127  19.282  0.00  0.00    +0.000 A 
ATOM      8  C   UNL     1       0.710   3.888  19.880  0.00  0.00    +0.000 C 
ATOM      9  N   UNL     1       2.898   5.147  19.675  0.00  0.00    +0.000 N 
ATOM     10  C   UNL     1       5.069   3.834  17.161  0.00  0.00    +0.000 A 
ATOM     11  C   UNL     1       6.208   4.672  17.289  0.00  0.00    +0.000 A 
ENDROOT
BRANCH  10  12
ATOM     12  N   UNL     1       5.056   2.840  16.167  0.00  0.00    +0.000 N 
ATOM     13  H   UNL     1       4.275   2.890  15.531  0.00  0.00    +0.000 HD
ATOM     14  H   UNL     1       5.186   1.906  16.539  0.00  0.00    +0.000 HD
ENDBRANCH  10  12
BRANCH  11  15
ATOM     15  C   UNL     1       7.475   4.362  16.500  0.00  0.00    +0.000 C 
ATOM     16  C   UNL     1       7.571   4.882  15.067  0.00  0.00    +0.000 C 
ENDBRANCH  11  15
BRANCH   1  17
ATOM     17  C   UNL     1       7.264   6.734  18.399  0.00  0.00    +0.000 C 
BRANCH  17  19
ATOM     18  C   UNL     1       8.060   9.072  17.766  0.00  0.00    +0.000 C 
ATOM     19  C   UNL     1       7.179   7.887  17.391  0.00  0.00    +0.000 C 
ENDBRANCH  17  19
ENDBRANCH   1  17
BRANCH   9  20
ATOM     20  C   UNL     1       2.655   6.065  20.786  0.00  0.00    +0.000 C 
BRANCH  20  21
ATOM     21  C   UNL     1       1.973   7.338  20.344  0.00  0.00    +0.000 A 
ATOM     22  C   UNL     1       1.131   8.026  21.214  0.00  0.00    +0.000 A 
ATOM     23  C   UNL     1       0.546   9.217  20.797  0.00  0.00    +0.000 A 
ATOM     24  C   UNL     1       0.796   9.686  19.515  0.00  0.00    +0.000 A 
ATOM     25  C   UNL     1       1.613   8.929  18.694  0.00  0.00    +0.000 A 
ATOM     26  N   UNL     1       2.203   7.772  19.074  0.00  0.00    +0.000 NA
ENDBRANCH  20  21
ENDBRANCH   9  20
TORSDOF 6
ENDMDL
MODEL 7
REMARK VINA RESULT:      -6.4      7.135     11.052
REMARK  Name = 
REMARK  10 active torsions:
REMARK  status: ('A' for Active; 'I' for Inactive)
REMARK    1  A    between atoms: C_1  and  C_2
REMARK    2  A    between atoms: C_2  and  C_3
REMARK    3  A    between atoms: C_3  and  C_4
REMARK    4  A    between atoms: C_8  and  C_9
REMARK    5  A    between atoms: C_10  and  C_11
REMARK    6  A    between atoms: N_12  and  C_13
REMARK    7  A    between atoms: C_13  and  C_14
REMARK    8  A    between atoms: C_20  and  N_21
REMARK    9  A    between atoms: C_22  and  C_23
REMARK   10  A    between atoms: C_23  and  C_24
REMARK                            x       y       z     vdW  Elec       q    Type
REMARK                         _______ _______ _______ _____ _____    ______ ____
ROOT
ATOM      1  C   UNL     1      -3.686  11.995  19.034  0.00  0.00    +0.000 A 
ATOM      2  N   UNL     1      -2.812  12.379  20.005  0.00  0.00    +0.000 NA
ATOM      3  C   UNL     1      -3.375  12.727  21.177  0.00  0.00    +0.000 A 
ATOM      4  C   UNL     1      -4.736  12.752  21.470  0.00  0.00    +0.000 A 
ATOM      5  C   UNL     1      -4.851  13.131  22.855  0.00  0.00    +0.000 A 
ATOM      6  C   UNL     1      -6.067  13.230  23.707  0.00  0.00    +0.000 C 
ATOM      7  C   UNL     1      -3.566  13.398  23.323  0.00  0.00    +0.000 A 
ATOM      8  C   UNL     1      -3.149  13.861  24.678  0.00  0.00    +0.000 C 
ATOM      9  N   UNL     1      -2.680  13.124  22.301  0.00  0.00    +0.000 N 
ATOM     10  C   UNL     1      -5.630  12.372  20.433  0.00  0.00    +0.000 A 
ATOM     11  C   UNL     1      -5.091  11.951  19.188  0.00  0.00    +0.000 A 
ENDROOT
BRANCH  10  12
ATOM     12  N   UNL     1      -7.025  12.425  20.593  0.00  0.00    +0.000 N 
ATOM     13  H   UNL     1      -7.450  13.293  20.303  0.00  0.00    +0.000 HD
ATOM     14  H   UNL     1      -7.329  12.143  21.518  0.00  0.00    +0.000 HD
ENDBRANCH  10  12
BRANCH  11  15
ATOM     15  C   UNL     1      -6.008  11.371  18.117  0.00  0.00    +0.000 C 
ATOM     16  C   UNL     1      -6.693  12.343  17.159  0.00  0.00    +0.000 C 
ENDBRANCH  11  15
BRANCH   1  17
ATOM     17  C   UNL     1      -3.002  11.664  17.721  0.00  0.00    +0.000 C 
BRANCH  17  19
ATOM     18  C   UNL     1      -2.911   9.710  16.085  0.00  0.00    +0.000 C 
ATOM     19  C   UNL     1      -2.754  10.161  17.531  0.00  0.00    +0.000 C 
ENDBRANCH  17  19
ENDBRANCH   1  17
BRANCH   9  20
ATOM     20  C   UNL     1      -1.223  13.141  22.416  0.00  0.00    +0.000 C 
BRANCH  20  21
ATOM     21  C   UNL     1      -0.622  11.757  22.344  0.00  0.00    +0.000 A 
ATOM     22  C   UNL     1      -1.117  10.732  23.146  0.00  0.00    +0.000 A 
ATOM     23  C   UNL     1      -0.574   9.456  23.032  0.00  0.00    +0.000 A 
ATOM     24  C   UNL     1       0.463   9.235  22.137  0.00  0.00    +0.000 A 
ATOM     25  C   UNL     1       0.928  10.311  21.400  0.00  0.00    +0.000 A 
ATOM     26  N   UNL     1       0.414  11.560  21.483  0.00  0.00    +0.000 NA
ENDBRANCH  20  21
ENDBRANCH   9  20
TORSDOF 6
ENDMDL
MODEL 8
REMARK VINA RESULT:      -6.4      6.139      9.898
REMARK  Name = 
REMARK  10 active torsions:
REMARK  status: ('A' for Active; 'I' for Inactive)
REMARK    1  A    between atoms: C_1  and  C_2
REMARK    2  A    between atoms: C_2  and  C_3
REMARK    3  A    between atoms: C_3  and  C_4
REMARK    4  A    between atoms: C_8  and  C_9
REMARK    5  A    between atoms: C_10  and  C_11
REMARK    6  A    between atoms: N_12  and  C_13
REMARK    7  A    between atoms: C_13  and  C_14
REMARK    8  A    between atoms: C_20  and  N_21
REMARK    9  A    between atoms: C_22  and  C_23
REMARK   10  A    between atoms: C_23  and  C_24
REMARK                            x       y       z     vdW  Elec       q    Type
REMARK                         _______ _______ _______ _____ _____    ______ ____
ROOT
ATOM      1  C   UNL     1      -1.542  10.623  18.422  0.00  0.00    +0.000 A 
ATOM      2  N   UNL     1      -2.635  11.354  18.774  0.00  0.00    +0.000 NA
ATOM      3  C   UNL     1      -2.526  12.024  19.937  0.00  0.00    +0.000 A 
ATOM      4  C   UNL     1      -1.433  12.017  20.800  0.00  0.00    +0.000 A 
ATOM      5  C   UNL     1      -1.754  12.919  21.876  0.00  0.00    +0.000 A 
ATOM      6  C   UNL     1      -0.913  13.354  23.024  0.00  0.00    +0.000 C 
ATOM      7  C   UNL     1      -3.054  13.374  21.666  0.00  0.00    +0.000 A 
ATOM      8  C   UNL     1      -3.864  14.297  22.513  0.00  0.00    +0.000 C 
ATOM      9  N   UNL     1      -3.500  12.842  20.473  0.00  0.00    +0.000 N 
ATOM     10  C   UNL     1      -0.314  11.227  20.423  0.00  0.00    +0.000 A 
ATOM     11  C   UNL     1      -0.354  10.534  19.184  0.00  0.00    +0.000 A 
ENDROOT
BRANCH  10  12
ATOM     12  N   UNL     1       0.815  11.091  21.249  0.00  0.00    +0.000 N 
ATOM     13  H   UNL     1       0.612  10.818  22.199  0.00  0.00    +0.000 HD
ATOM     14  H   UNL     1       1.437  11.890  21.206  0.00  0.00    +0.000 HD
ENDBRANCH  10  12
BRANCH  11  15
ATOM     15  C   UNL     1       0.891   9.823  18.668  0.00  0.00    +0.000 C 
ATOM     16  C   UNL     1       1.946  10.660  17.946  0.00  0.00    +0.000 C 
ENDBRANCH  11  15
BRANCH   1  17
ATOM     17  C   UNL     1      -1.739   9.850  17.132  0.00  0.00    +0.000 C 
BRANCH  17  19
ATOM     18  C   UNL     1      -3.084  10.185  14.992  0.00  0.00    +0.000 C 
ATOM     19  C   UNL     1      -3.125  10.057  16.509  0.00  0.00    +0.000 C 
ENDBRANCH  17  19
ENDBRANCH   1  17
BRANCH   9  20
ATOM     20  C   UNL     1      -4.762  13.174  19.815  0.00  0.00    +0.000 C 
BRANCH  20  21
ATOM     21  C   UNL     1      -5.870  12.212  20.172  0.00  0.00    +0.000 A 
ATOM     22  C   UNL     1      -6.657  12.429  21.299  0.00  0.00    +0.000 A 
ATOM     23  C   UNL     1      -7.697  11.551  21.584  0.00  0.00    +0.000 A 
ATOM     24  C   UNL     1      -7.917  10.463  20.751  0.00  0.00    +0.000 A 
ATOM     25  C   UNL     1      -7.070  10.290  19.670  0.00  0.00    +0.000 A 
ATOM     26  N   UNL     1      -6.056  11.132  19.363  0.00  0.00    +0.000 NA
ENDBRANCH  20  21
ENDBRANCH   9  20
TORSDOF 6
ENDMDL
MODEL 9
REMARK VINA RESULT:      -6.4      4.983     10.086
REMARK  Name = 
REMARK  10 active torsions:
REMARK  status: ('A' for Active; 'I' for Inactive)
REMARK    1  A    between atoms: C_1  and  C_2
REMARK    2  A    between atoms: C_2  and  C_3
REMARK    3  A    between atoms: C_3  and  C_4
REMARK    4  A    between atoms: C_8  and  C_9
REMARK    5  A    between atoms: C_10  and  C_11
REMARK    6  A    between atoms: N_12  and  C_13
REMARK    7  A    between atoms: C_13  and  C_14
REMARK    8  A    between atoms: C_20  and  N_21
REMARK    9  A    between atoms: C_22  and  C_23
REMARK   10  A    between atoms: C_23  and  C_24
REMARK                            x       y       z     vdW  Elec       q    Type
REMARK                         _______ _______ _______ _____ _____    ______ ____
ROOT
ATOM      1  C   UNL     1      -3.692  11.470  17.687  0.00  0.00    +0.000 A 
ATOM      2  N   UNL     1      -2.361  11.655  17.903  0.00  0.00    +0.000 NA
ATOM      3  C   UNL     1      -2.044  12.187  19.098  0.00  0.00    +0.000 A 
ATOM      4  C   UNL     1      -2.932  12.576  20.097  0.00  0.00    +0.000 A 
ATOM      5  C   UNL     1      -2.132  13.031  21.205  0.00  0.00    +0.000 A 
ATOM      6  C   UNL     1      -2.563  13.478  22.557  0.00  0.00    +0.000 C 
ATOM      7  C   UNL     1      -0.798  12.976  20.807  0.00  0.00    +0.000 A 
ATOM      8  C   UNL     1       0.417  13.373  21.574  0.00  0.00    +0.000 C 
ATOM      9  N   UNL     1      -0.759  12.439  19.536  0.00  0.00    +0.000 N 
ATOM     10  C   UNL     1      -4.318  12.396  19.838  0.00  0.00    +0.000 A 
ATOM     11  C   UNL     1      -4.711  11.798  18.611  0.00  0.00    +0.000 A 
ENDROOT
BRANCH  10  12
ATOM     12  N   UNL     1      -5.307  12.816  20.744  0.00  0.00    +0.000 N 
ATOM     13  H   UNL     1      -5.148  13.725  21.151  0.00  0.00    +0.000 HD
ATOM     14  H   UNL     1      -5.525  12.117  21.445  0.00  0.00    +0.000 HD
ENDBRANCH  10  12
BRANCH  11  15
ATOM     15  C   UNL     1      -6.171  11.429  18.376  0.00  0.00    +0.000 C 
ATOM     16  C   UNL     1      -6.686  10.124  18.980  0.00  0.00    +0.000 C 
ENDBRANCH  11  15
BRANCH   1  17
ATOM     17  C   UNL     1      -3.995  10.917  16.307  0.00  0.00    +0.000 C 
BRANCH  17  19
ATOM     18  C   UNL     1      -2.937   9.964  14.192  0.00  0.00    +0.000 C 
ATOM     19  C   UNL     1      -2.827  10.127  15.703  0.00  0.00    +0.000 C 
ENDBRANCH  17  19
ENDBRANCH   1  17
BRANCH   9  20
ATOM     20  C   UNL     1       0.454  12.083  18.803  0.00  0.00    +0.000 C 
BRANCH  20  21
ATOM     21  C   UNL     1       0.896  10.664  19.072  0.00  0.00    +0.000 A 
ATOM     22  C   UNL     1       1.492   9.909  18.066  0.00  0.00    +0.000 A 
ATOM     23  C   UNL     1       1.927   8.618  18.350  0.00  0.00    +0.000 A 
ATOM     24  C   UNL     1       1.739   8.101  19.624  0.00  0.00    +0.000 A 
ATOM     25  C   UNL     1       1.105   8.897  20.562  0.00  0.00    +0.000 A 
ATOM     26  N   UNL     1       0.679  10.159  20.317  0.00  0.00    +0.000 NA
ENDBRANCH  20  21
ENDBRANCH   9  20
TORSDOF 6
ENDMDL
