MODEL 1
REMARK VINA RESULT:      -7.9      0.000      0.000
REMARK  Name = 
REMARK  4 active torsions:
REMARK  status: ('A' for Active; 'I' for Inactive)
REMARK    1  A    between atoms: C_1  and  C_2
REMARK    2  A    between atoms: C_2  and  C_3
REMARK    3  A    between atoms: C_5  and  N_6
REMARK    4  A    between atoms: C_17  and  C_18
REMARK                            x       y       z     vdW  Elec       q    Type
REMARK                         _______ _______ _______ _____ _____    ______ ____
ROOT
ATOM      1  N   UNL     1       4.996   2.927  16.776  0.00  0.00    +0.000 N 
ATOM      2  C   UNL     1       5.909   3.953  16.457  0.00  0.00    +0.000 A 
ATOM      3  C   UNL     1       6.422   4.761  17.445  0.00  0.00    +0.000 A 
ATOM      4  C   UNL     1       7.231   5.772  17.016  0.00  0.00    +0.000 A 
ATOM      5 CL   UNL     1       7.858   6.921  18.128  0.00  0.00    +0.000 Cl
ATOM      6  N   UNL     1       7.577   5.987  15.742  0.00  0.00    +0.000 NA
ATOM      7  C   UNL     1       7.068   5.127  14.866  0.00  0.00    +0.000 A 
ATOM      8  N   UNL     1       7.433   5.294  13.546  0.00  0.00    +0.000 N 
ATOM      9  N   UNL     1       6.259   4.105  15.168  0.00  0.00    +0.000 NA
ATOM     10  H   UNL     1       4.694   2.480  15.915  0.00  0.00    +0.000 HD
ATOM     11  H   UNL     1       8.293   5.821  13.491  0.00  0.00    +0.000 HD
ATOM     12  H   UNL     1       7.397   4.410  13.056  0.00  0.00    +0.000 HD
ENDROOT
BRANCH   1  15
ATOM     13  C   UNL     1       2.541   4.419  19.169  0.00  0.00    +0.000 A 
ATOM     14  C   UNL     1       3.626   4.265  18.278  0.00  0.00    +0.000 A 
ATOM     15  C   UNL     1       3.953   3.021  17.725  0.00  0.00    +0.000 A 
ATOM     16  C   UNL     1       3.242   1.897  18.154  0.00  0.00    +0.000 A 
ATOM     17  C   UNL     1       2.162   2.026  19.023  0.00  0.00    +0.000 A 
ATOM     18  C   UNL     1       1.784   3.281  19.521  0.00  0.00    +0.000 A 
ATOM     19  C   UNL     1       0.569   3.353  20.404  0.00  0.00    +0.000 C 
BRANCH  13  21
ATOM     20  C   UNL     1       2.648   6.925  18.721  0.00  0.00    +0.000 C 
ATOM     21  C   UNL     1       2.186   5.810  19.652  0.00  0.00    +0.000 C 
ENDBRANCH  13  21
ENDBRANCH   1  15
TORSDOF 2
ENDMDL
MODEL 2
REMARK VINA RESULT:      -7.9      3.773      5.833
REMARK  Name = 
REMARK  4 active torsions:
REMARK  status: ('A' for Active; 'I' for Inactive)
REMARK    1  A    between atoms: C_1  and  C_2
REMARK    2  A    between atoms: C_2  and  C_3
REMARK    3  A    between atoms: C_5  and  N_6
REMARK    4  A    between atoms: C_17  and  C_18
REMARK                            x       y       z     vdW  Elec       q    Type
REMARK                         _______ _______ _______ _____ _____    ______ ____
ROOT
ATOM      1  N   UNL     1       3.610   6.247  18.433  0.00  0.00    +0.000 N 
ATOM      2  C   UNL     1       3.348   4.891  18.715  0.00  0.00    +0.000 A 
ATOM      3  C   UNL     1       2.102   4.358  18.474  0.00  0.00    +0.000 A 
ATOM      4  C   UNL     1       1.935   3.060  18.860  0.00  0.00    +0.000 A 
ATOM      5 CL   UNL     1       0.403   2.297  18.715  0.00  0.00    +0.000 Cl
ATOM      6  N   UNL     1       2.888   2.292  19.397  0.00  0.00    +0.000 NA
ATOM      7  C   UNL     1       4.070   2.882  19.549  0.00  0.00    +0.000 A 
ATOM      8  N   UNL     1       5.089   2.110  20.065  0.00  0.00    +0.000 N 
ATOM      9  N   UNL     1       4.349   4.148  19.216  0.00  0.00    +0.000 NA
ATOM     10  H   UNL     1       4.559   6.463  18.726  0.00  0.00    +0.000 HD
ATOM     11  H   UNL     1       4.882   1.131  19.928  0.00  0.00    +0.000 HD
ATOM     12  H   UNL     1       5.985   2.447  19.740  0.00  0.00    +0.000 HD
ENDROOT
BRANCH   1  15
ATOM     13  C   UNL     1       1.362   8.629  20.237  0.00  0.00    +0.000 A 
ATOM     14  C   UNL     1       2.191   7.524  19.943  0.00  0.00    +0.000 A 
ATOM     15  C   UNL     1       2.721   7.322  18.663  0.00  0.00    +0.000 A 
ATOM     16  C   UNL     1       2.329   8.187  17.639  0.00  0.00    +0.000 A 
ATOM     17  C   UNL     1       1.522   9.289  17.907  0.00  0.00    +0.000 A 
ATOM     18  C   UNL     1       1.050   9.538  19.204  0.00  0.00    +0.000 A 
ATOM     19  C   UNL     1       0.236  10.782  19.431  0.00  0.00    +0.000 C 
BRANCH  13  21
ATOM     20  C   UNL     1      -0.537   8.411  21.922  0.00  0.00    +0.000 C 
ATOM     21  C   UNL     1       0.904   8.838  21.666  0.00  0.00    +0.000 C 
ENDBRANCH  13  21
ENDBRANCH   1  15
TORSDOF 2
ENDMDL
MODEL 3
REMARK VINA RESULT:      -7.5      2.205      3.386
REMARK  Name = 
REMARK  4 active torsions:
REMARK  status: ('A' for Active; 'I' for Inactive)
REMARK    1  A    between atoms: C_1  and  C_2
REMARK    2  A    between atoms: C_2  and  C_3
REMARK    3  A    between atoms: C_5  and  N_6
REMARK    4  A    between atoms: C_17  and  C_18
REMARK                            x       y       z     vdW  Elec       q    Type
REMARK                         _______ _______ _______ _____ _____    ______ ____
ROOT
ATOM      1  N   UNL     1       3.520   5.549  17.590  0.00  0.00    +0.000 N 
ATOM      2  C   UNL     1       4.917   5.464  17.427  0.00  0.00    +0.000 A 
ATOM      3  C   UNL     1       5.748   5.479  18.525  0.00  0.00    +0.000 A 
ATOM      4  C   UNL     1       7.084   5.475  18.249  0.00  0.00    +0.000 A 
ATOM      5 CL   UNL     1       8.237   5.596  19.516  0.00  0.00    +0.000 Cl
ATOM      6  N   UNL     1       7.613   5.414  17.022  0.00  0.00    +0.000 NA
ATOM      7  C   UNL     1       6.731   5.358  16.029  0.00  0.00    +0.000 A 
ATOM      8  N   UNL     1       7.238   5.256  14.751  0.00  0.00    +0.000 N 
ATOM      9  N   UNL     1       5.401   5.364  16.178  0.00  0.00    +0.000 NA
ATOM     10  H   UNL     1       3.086   5.576  16.671  0.00  0.00    +0.000 HD
ATOM     11  H   UNL     1       8.181   4.895  14.783  0.00  0.00    +0.000 HD
ATOM     12  H   UNL     1       6.579   4.784  14.147  0.00  0.00    +0.000 HD
ENDROOT
BRANCH   1  15
ATOM     13  C   UNL     1       1.776   8.517  19.048  0.00  0.00    +0.000 A 
ATOM     14  C   UNL     1       2.515   7.686  18.177  0.00  0.00    +0.000 A 
ATOM     15  C   UNL     1       2.849   6.371  18.523  0.00  0.00    +0.000 A 
ATOM     16  C   UNL     1       2.523   5.919  19.804  0.00  0.00    +0.000 A 
ATOM     17  C   UNL     1       1.785   6.716  20.675  0.00  0.00    +0.000 A 
ATOM     18  C   UNL     1       1.384   8.008  20.304  0.00  0.00    +0.000 A 
ATOM     19  C   UNL     1       0.535   8.787  21.270  0.00  0.00    +0.000 C 
BRANCH  13  21
ATOM     20  C   UNL     1      -0.040   9.955  17.986  0.00  0.00    +0.000 C 
ATOM     21  C   UNL     1       1.368   9.895  18.569  0.00  0.00    +0.000 C 
ENDBRANCH  13  21
ENDBRANCH   1  15
TORSDOF 2
ENDMDL
MODEL 4
REMARK VINA RESULT:      -7.4      1.991      2.483
REMARK  Name = 
REMARK  4 active torsions:
REMARK  status: ('A' for Active; 'I' for Inactive)
REMARK    1  A    between atoms: C_1  and  C_2
REMARK    2  A    between atoms: C_2  and  C_3
REMARK    3  A    between atoms: C_5  and  N_6
REMARK    4  A    between atoms: C_17  and  C_18
REMARK                            x       y       z     vdW  Elec       q    Type
REMARK                         _______ _______ _______ _____ _____    ______ ____
ROOT
ATOM      1  N   UNL     1       4.946   5.458  16.804  0.00  0.00    +0.000 N 
ATOM      2  C   UNL     1       6.089   5.993  17.432  0.00  0.00    +0.000 A 
ATOM      3  C   UNL     1       6.748   5.277  18.406  0.00  0.00    +0.000 A 
ATOM      4  C   UNL     1       7.790   5.922  19.004  0.00  0.00    +0.000 A 
ATOM      5 CL   UNL     1       8.638   5.191  20.307  0.00  0.00    +0.000 Cl
ATOM      6  N   UNL     1       8.221   7.146  18.680  0.00  0.00    +0.000 NA
ATOM      7  C   UNL     1       7.550   7.739  17.698  0.00  0.00    +0.000 A 
ATOM      8  N   UNL     1       7.989   8.987  17.309  0.00  0.00    +0.000 N 
ATOM      9  N   UNL     1       6.509   7.209  17.045  0.00  0.00    +0.000 NA
ATOM     10  H   UNL     1       4.575   6.150  16.159  0.00  0.00    +0.000 HD
ATOM     11  H   UNL     1       8.952   9.115  17.587  0.00  0.00    +0.000 HD
ATOM     12  H   UNL     1       7.757   9.156  16.340  0.00  0.00    +0.000 HD
ENDROOT
BRANCH   1  15
ATOM     13  C   UNL     1       2.228   4.576  19.214  0.00  0.00    +0.000 A 
ATOM     14  C   UNL     1       3.305   5.240  18.587  0.00  0.00    +0.000 A 
ATOM     15  C   UNL     1       3.925   4.720  17.445  0.00  0.00    +0.000 A 
ATOM     16  C   UNL     1       3.523   3.464  16.986  0.00  0.00    +0.000 A 
ATOM     17  C   UNL     1       2.456   2.796  17.580  0.00  0.00    +0.000 A 
ATOM     18  C   UNL     1       1.783   3.348  18.680  0.00  0.00    +0.000 A 
ATOM     19  C   UNL     1       0.599   2.601  19.230  0.00  0.00    +0.000 C 
BRANCH  13  21
ATOM     20  C   UNL     1       1.826   6.738  20.501  0.00  0.00    +0.000 C 
ATOM     21  C   UNL     1       1.542   5.245  20.389  0.00  0.00    +0.000 C 
ENDBRANCH  13  21
ENDBRANCH   1  15
TORSDOF 2
ENDMDL
MODEL 5
REMARK VINA RESULT:      -7.4      2.874      6.316
REMARK  Name = 
REMARK  4 active torsions:
REMARK  status: ('A' for Active; 'I' for Inactive)
REMARK    1  A    between atoms: C_1  and  C_2
REMARK    2  A    between atoms: C_2  and  C_3
REMARK    3  A    between atoms: C_5  and  N_6
REMARK    4  A    between atoms: C_17  and  C_18
REMARK                            x       y       z     vdW  Elec       q    Type
REMARK                         _______ _______ _______ _____ _____    ______ ____
ROOT
ATOM      1  N   UNL     1       4.232   3.868  16.959  0.00  0.00    +0.000 N 
ATOM      2  C   UNL     1       3.617   4.782  17.839  0.00  0.00    +0.000 A 
ATOM      3  C   UNL     1       3.294   6.050  17.411  0.00  0.00    +0.000 A 
ATOM      4  C   UNL     1       2.780   6.877  18.366  0.00  0.00    +0.000 A 
ATOM      5 CL   UNL     1       2.428   8.518  18.001  0.00  0.00    +0.000 Cl
ATOM      6  N   UNL     1       2.538   6.527  19.634  0.00  0.00    +0.000 NA
ATOM      7  C   UNL     1       2.841   5.269  19.940  0.00  0.00    +0.000 A 
ATOM      8  N   UNL     1       2.570   4.860  21.228  0.00  0.00    +0.000 N 
ATOM      9  N   UNL     1       3.357   4.372  19.092  0.00  0.00    +0.000 NA
ATOM     10  H   UNL     1       4.438   3.013  17.470  0.00  0.00    +0.000 HD
ATOM     11  H   UNL     1       1.873   5.463  21.642  0.00  0.00    +0.000 HD
ATOM     12  H   UNL     1       2.398   3.864  21.253  0.00  0.00    +0.000 HD
ENDROOT
BRANCH   1  15
ATOM     13  C   UNL     1       6.135   3.945  13.742  0.00  0.00    +0.000 A 
ATOM     14  C   UNL     1       5.199   3.600  14.743  0.00  0.00    +0.000 A 
ATOM     15  C   UNL     1       5.235   4.183  16.015  0.00  0.00    +0.000 A 
ATOM     16  C   UNL     1       6.288   5.050  16.318  0.00  0.00    +0.000 A 
ATOM     17  C   UNL     1       7.214   5.413  15.345  0.00  0.00    +0.000 A 
ATOM     18  C   UNL     1       7.138   4.889  14.046  0.00  0.00    +0.000 A 
ATOM     19  C   UNL     1       8.135   5.375  13.030  0.00  0.00    +0.000 C 
BRANCH  13  21
ATOM     20  C   UNL     1       4.549   3.391  11.826  0.00  0.00    +0.000 C 
ATOM     21  C   UNL     1       5.977   3.347  12.359  0.00  0.00    +0.000 C 
ENDBRANCH  13  21
ENDBRANCH   1  15
TORSDOF 2
ENDMDL
MODEL 6
REMARK VINA RESULT:      -7.3      1.106      1.883
REMARK  Name = 
REMARK  4 active torsions:
REMARK  status: ('A' for Active; 'I' for Inactive)
REMARK    1  A    between atoms: C_1  and  C_2
REMARK    2  A    between atoms: C_2  and  C_3
REMARK    3  A    between atoms: C_5  and  N_6
REMARK    4  A    between atoms: C_17  and  C_18
REMARK                            x       y       z     vdW  Elec       q    Type
REMARK                         _______ _______ _______ _____ _____    ______ ____
ROOT
ATOM      1  N   UNL     1       4.839   3.120  16.779  0.00  0.00    +0.000 N 
ATOM      2  C   UNL     1       5.813   4.078  16.434  0.00  0.00    +0.000 A 
ATOM      3  C   UNL     1       6.289   4.959  17.380  0.00  0.00    +0.000 A 
ATOM      4  C   UNL     1       7.167   5.896  16.919  0.00  0.00    +0.000 A 
ATOM      5 CL   UNL     1       7.762   7.122  17.964  0.00  0.00    +0.000 Cl
ATOM      6  N   UNL     1       7.610   5.976  15.660  0.00  0.00    +0.000 NA
ATOM      7  C   UNL     1       7.129   5.055  14.832  0.00  0.00    +0.000 A 
ATOM      8  N   UNL     1       7.592   5.083  13.533  0.00  0.00    +0.000 N 
ATOM      9  N   UNL     1       6.259   4.095  15.167  0.00  0.00    +0.000 NA
ATOM     10  H   UNL     1       4.579   2.604  15.942  0.00  0.00    +0.000 HD
ATOM     11  H   UNL     1       8.475   5.573  13.494  0.00  0.00    +0.000 HD
ATOM     12  H   UNL     1       7.554   4.158  13.125  0.00  0.00    +0.000 HD
ENDROOT
BRANCH   1  15
ATOM     13  C   UNL     1       2.762   3.208  19.886  0.00  0.00    +0.000 A 
ATOM     14  C   UNL     1       3.807   2.939  18.975  0.00  0.00    +0.000 A 
ATOM     15  C   UNL     1       3.736   3.339  17.636  0.00  0.00    +0.000 A 
ATOM     16  C   UNL     1       2.554   3.930  17.182  0.00  0.00    +0.000 A 
ATOM     17  C   UNL     1       1.516   4.215  18.063  0.00  0.00    +0.000 A 
ATOM     18  C   UNL     1       1.613   3.882  19.422  0.00  0.00    +0.000 A 
ATOM     19  C   UNL     1       0.479   4.279  20.328  0.00  0.00    +0.000 C 
BRANCH  13  21
ATOM     20  C   UNL     1       1.713   2.208  21.982  0.00  0.00    +0.000 C 
ATOM     21  C   UNL     1       2.948   2.831  21.342  0.00  0.00    +0.000 C 
ENDBRANCH  13  21
ENDBRANCH   1  15
TORSDOF 2
ENDMDL
MODEL 7
REMARK VINA RESULT:      -7.3      4.447      6.014
REMARK  Name = 
REMARK  4 active torsions:
REMARK  status: ('A' for Active; 'I' for Inactive)
REMARK    1  A    between atoms: C_1  and  C_2
REMARK    2  A    between atoms: C_2  and  C_3
REMARK    3  A    between atoms: C_5  and  N_6
REMARK    4  A    between atoms: C_17  and  C_18
REMARK                            x       y       z     vdW  Elec       q    Type
REMARK                         _______ _______ _______ _____ _____    ______ ____
ROOT
ATOM      1  N   UNL     1       2.957   7.484  17.738  0.00  0.00    +0.000 N 
ATOM      2  C   UNL     1       2.102   8.305  18.499  0.00  0.00    +0.000 A 
ATOM      3  C   UNL     1       1.963   8.100  19.854  0.00  0.00    +0.000 A 
ATOM      4  C   UNL     1       1.048   8.897  20.477  0.00  0.00    +0.000 A 
ATOM      5 CL   UNL     1       0.696   8.682  22.144  0.00  0.00    +0.000 Cl
ATOM      6  N   UNL     1       0.340   9.861  19.880  0.00  0.00    +0.000 NA
ATOM      7  C   UNL     1       0.576  10.014  18.581  0.00  0.00    +0.000 A 
ATOM      8  N   UNL     1      -0.109  11.023  17.938  0.00  0.00    +0.000 N 
ATOM      9  N   UNL     1       1.440   9.287  17.863  0.00  0.00    +0.000 NA
ATOM     10  H   UNL     1       2.884   7.755  16.760  0.00  0.00    +0.000 HD
ATOM     11  H   UNL     1      -0.422  11.709  18.611  0.00  0.00    +0.000 HD
ATOM     12  H   UNL     1       0.419  11.357  17.144  0.00  0.00    +0.000 HD
ENDROOT
BRANCH   1  15
ATOM     13  C   UNL     1       2.197   3.942  18.665  0.00  0.00    +0.000 A 
ATOM     14  C   UNL     1       2.122   5.348  18.553  0.00  0.00    +0.000 A 
ATOM     15  C   UNL     1       3.112   6.088  17.896  0.00  0.00    +0.000 A 
ATOM     16  C   UNL     1       4.245   5.414  17.432  0.00  0.00    +0.000 A 
ATOM     17  C   UNL     1       4.336   4.028  17.521  0.00  0.00    +0.000 A 
ATOM     18  C   UNL     1       3.311   3.276  18.113  0.00  0.00    +0.000 A 
ATOM     19  C   UNL     1       3.448   1.778  18.117  0.00  0.00    +0.000 C 
BRANCH  13  21
ATOM     20  C   UNL     1       1.198   2.989  20.806  0.00  0.00    +0.000 C 
ATOM     21  C   UNL     1       1.042   3.199  19.305  0.00  0.00    +0.000 C 
ENDBRANCH  13  21
ENDBRANCH   1  15
TORSDOF 2
ENDMDL
MODEL 8
REMARK VINA RESULT:      -7.2      1.446      2.610
REMARK  Name = 
REMARK  4 active torsions:
REMARK  status: ('A' for Active; 'I' for Inactive)
REMARK    1  A    between atoms: C_1  and  C_2
REMARK    2  A    between atoms: C_2  and  C_3
REMARK    3  A    between atoms: C_5  and  N_6
REMARK    4  A    between atoms: C_17  and  C_18
REMARK                            x       y       z     vdW  Elec       q    Type
REMARK                         _______ _______ _______ _____ _____    ______ ____
ROOT
ATOM      1  N   UNL     1       3.661   4.441  16.682  0.00  0.00    +0.000 N 
ATOM      2  C   UNL     1       5.048   4.494  16.434  0.00  0.00    +0.000 A 
ATOM      3  C   UNL     1       5.946   4.398  17.473  0.00  0.00    +0.000 A 
ATOM      4  C   UNL     1       7.258   4.545  17.130  0.00  0.00    +0.000 A 
ATOM      5 CL   UNL     1       8.480   4.551  18.337  0.00  0.00    +0.000 Cl
ATOM      6  N   UNL     1       7.708   4.726  15.884  0.00  0.00    +0.000 NA
ATOM      7  C   UNL     1       6.769   4.760  14.944  0.00  0.00    +0.000 A 
ATOM      8  N   UNL     1       7.198   4.907  13.642  0.00  0.00    +0.000 N 
ATOM      9  N   UNL     1       5.454   4.636  15.162  0.00  0.00    +0.000 NA
ATOM     10  H   UNL     1       3.168   4.582  15.805  0.00  0.00    +0.000 HD
ATOM     11  H   UNL     1       8.164   4.622  13.563  0.00  0.00    +0.000 HD
ATOM     12  H   UNL     1       6.535   4.488  13.003  0.00  0.00    +0.000 HD
ENDROOT
BRANCH   1  15
ATOM     13  C   UNL     1       1.713   4.800  19.853  0.00  0.00    +0.000 A 
ATOM     14  C   UNL     1       2.323   4.246  18.706  0.00  0.00    +0.000 A 
ATOM     15  C   UNL     1       2.997   5.045  17.774  0.00  0.00    +0.000 A 
ATOM     16  C   UNL     1       2.970   6.431  17.946  0.00  0.00    +0.000 A 
ATOM     17  C   UNL     1       2.385   6.998  19.074  0.00  0.00    +0.000 A 
ATOM     18  C   UNL     1       1.773   6.195  20.048  0.00  0.00    +0.000 A 
ATOM     19  C   UNL     1       1.218   6.872  21.272  0.00  0.00    +0.000 C 
BRANCH  13  21
ATOM     20  C   UNL     1       2.089   2.978  21.595  0.00  0.00    +0.000 C 
ATOM     21  C   UNL     1       1.085   3.865  20.867  0.00  0.00    +0.000 C 
ENDBRANCH  13  21
ENDBRANCH   1  15
TORSDOF 2
ENDMDL
MODEL 9
REMARK VINA RESULT:      -7.2      3.183      5.341
REMARK  Name = 
REMARK  4 active torsions:
REMARK  status: ('A' for Active; 'I' for Inactive)
REMARK    1  A    between atoms: C_1  and  C_2
REMARK    2  A    between atoms: C_2  and  C_3
REMARK    3  A    between atoms: C_5  and  N_6
REMARK    4  A    between atoms: C_17  and  C_18
REMARK                            x       y       z     vdW  Elec       q    Type
REMARK                         _______ _______ _______ _____ _____    ______ ____
ROOT
ATOM      1  N   UNL     1       2.951   6.378  19.888  0.00  0.00    +0.000 N 
ATOM      2  C   UNL     1       3.579   5.543  18.942  0.00  0.00    +0.000 A 
ATOM      3  C   UNL     1       4.196   6.084  17.837  0.00  0.00    +0.000 A 
ATOM      4  C   UNL     1       4.698   5.182  16.945  0.00  0.00    +0.000 A 
ATOM      5 CL   UNL     1       5.403   5.711  15.471  0.00  0.00    +0.000 Cl
ATOM      6  N   UNL     1       4.667   3.854  17.100  0.00  0.00    +0.000 NA
ATOM      7  C   UNL     1       4.091   3.429  18.220  0.00  0.00    +0.000 A 
ATOM      8  N   UNL     1       4.073   2.067  18.432  0.00  0.00    +0.000 N 
ATOM      9  N   UNL     1       3.557   4.218  19.160  0.00  0.00    +0.000 NA
ATOM     10  H   UNL     1       2.511   5.796  20.596  0.00  0.00    +0.000 HD
ATOM     11  H   UNL     1       4.796   1.624  17.883  0.00  0.00    +0.000 HD
ATOM     12  H   UNL     1       4.051   1.865  19.423  0.00  0.00    +0.000 HD
ENDROOT
BRANCH   1  15
ATOM     13  C   UNL     1       0.731   9.347  20.369  0.00  0.00    +0.000 A 
ATOM     14  C   UNL     1       1.446   8.152  20.602  0.00  0.00    +0.000 A 
ATOM     15  C   UNL     1       2.186   7.529  19.591  0.00  0.00    +0.000 A 
ATOM     16  C   UNL     1       2.124   8.060  18.300  0.00  0.00    +0.000 A 
ATOM     17  C   UNL     1       1.435   9.243  18.049  0.00  0.00    +0.000 A 
ATOM     18  C   UNL     1       0.753   9.912  19.077  0.00  0.00    +0.000 A 
ATOM     19  C   UNL     1       0.085  11.218  18.746  0.00  0.00    +0.000 C 
BRANCH  13  21
ATOM     20  C   UNL     1       0.304   9.358  22.881  0.00  0.00    +0.000 C 
ATOM     21  C   UNL     1       0.031  10.018  21.535  0.00  0.00    +0.000 C 
ENDBRANCH  13  21
ENDBRANCH   1  15
TORSDOF 2
ENDMDL
