MODEL 1
REMARK VINA RESULT:      -8.5      0.000      0.000
REMARK  Name = 
REMARK  7 active torsions:
REMARK  status: ('A' for Active; 'I' for Inactive)
REMARK    1  A    between atoms: N_1  and  C_2
REMARK    2  A    between atoms: C_8  and  C_9
REMARK    3  A    between atoms: N_11  and  C_12
REMARK    4  A    between atoms: C_12  and  C_13
REMARK    5  A    between atoms: C_13  and  C_14
REMARK    6  A    between atoms: C_14  and  C_15
REMARK    7  A    between atoms: C_15  and  N_16
REMARK                            x       y       z     vdW  Elec       q    Type
REMARK                         _______ _______ _______ _____ _____    ______ ____
ROOT
ATOM      1  C   UNL     1       8.350   8.255  18.391  0.00  0.00    +0.000 C 
ENDROOT
BRANCH   1   2
ATOM      2  C   UNL     1       7.466   7.347  17.488  0.00  0.00    +0.000 C 
BRANCH   2   3
ATOM      3  C   UNL     1       7.514   5.843  17.862  0.00  0.00    +0.000 C 
BRANCH   3   6
ATOM      4  C   UNL     1       5.481   4.769  18.746  0.00  0.00    +0.000 C 
ATOM      5  O   UNL     1       5.929   4.941  19.872  0.00  0.00    +0.000 OA
ATOM      6  N   UNL     1       6.226   5.186  17.674  0.00  0.00    +0.000 N 
ATOM      7  H   UNL     1       5.925   4.970  16.715  0.00  0.00    +0.000 HD
BRANCH   4  14
ATOM      8  C   UNL     1       3.929   2.702  19.123  0.00  0.00    +0.000 A 
ATOM      9  C   UNL     1       2.652   2.126  18.981  0.00  0.00    +0.000 A 
ATOM     10  C   UNL     1       1.629   2.801  18.323  0.00  0.00    +0.000 A 
ATOM     11  C   UNL     1       1.863   4.057  17.784  0.00  0.00    +0.000 A 
ATOM     12  C   UNL     1       3.118   4.660  17.914  0.00  0.00    +0.000 A 
ATOM     13  F   UNL     1       3.271   5.901  17.385  0.00  0.00    +0.000 F 
ATOM     14  C   UNL     1       4.178   4.013  18.605  0.00  0.00    +0.000 A 
BRANCH   8  15
ATOM     15  N   UNL     1       4.933   1.899  19.730  0.00  0.00    +0.000 N 
ATOM     16  H   UNL     1       5.247   1.030  19.273  0.00  0.00    +0.000 HD
ATOM     17  H   UNL     1       5.496   2.228  20.523  0.00  0.00    +0.000 HD
ENDBRANCH   8  15
ENDBRANCH   4  14
ENDBRANCH   3   6
ENDBRANCH   2   3
ENDBRANCH   1   2
BRANCH   1  18
ATOM     18  C   UNL     1       8.297   9.738  17.975  0.00  0.00    +0.000 C 
BRANCH  18  19
ATOM     19  N   UNL     1       9.421  10.550  18.503  0.00  0.00    +0.000 NA
ATOM     20  C   UNL     1       9.419  10.703  19.985  0.00  0.00    +0.000 C 
ATOM     21  C   UNL     1      10.612  11.587  20.428  0.00  0.00    +0.000 C 
ATOM     22  N   UNL     1      10.589  12.842  19.684  0.00  0.00    +0.000 N 
ATOM     23  C   UNL     1      10.531  14.170  20.236  0.00  0.00    +0.000 A 
ATOM     24  N   UNL     1      11.048  15.209  19.514  0.00  0.00    +0.000 NA
ATOM     25  S   UNL     1      10.806  16.606  20.375  0.00  0.00    +0.000 S 
ATOM     26  C   UNL     1      10.014  15.951  21.670  0.00  0.00    +0.000 A 
ATOM     27  C   UNL     1       9.478  16.608  22.773  0.00  0.00    +0.000 A 
ATOM     28  C   UNL     1       8.812  15.841  23.731  0.00  0.00    +0.000 A 
ATOM     29  C   UNL     1       8.690  14.450  23.562  0.00  0.00    +0.000 A 
ATOM     30  C   UNL     1       9.236  13.810  22.434  0.00  0.00    +0.000 A 
ATOM     31  C   UNL     1       9.922  14.573  21.471  0.00  0.00    +0.000 A 
ATOM     32  C   UNL     1      10.603  12.689  18.242  0.00  0.00    +0.000 C 
ATOM     33  C   UNL     1       9.372  11.884  17.863  0.00  0.00    +0.000 C 
ENDBRANCH  18  19
ENDBRANCH   1  18
TORSDOF 7
ENDMDL
MODEL 2
REMARK VINA RESULT:      -8.2      4.620     11.629
REMARK  Name = 
REMARK  7 active torsions:
REMARK  status: ('A' for Active; 'I' for Inactive)
REMARK    1  A    between atoms: N_1  and  C_2
REMARK    2  A    between atoms: C_8  and  C_9
REMARK    3  A    between atoms: N_11  and  C_12
REMARK    4  A    between atoms: C_12  and  C_13
REMARK    5  A    between atoms: C_13  and  C_14
REMARK    6  A    between atoms: C_14  and  C_15
REMARK    7  A    between atoms: C_15  and  N_16
REMARK                            x       y       z     vdW  Elec       q    Type
REMARK                         _______ _______ _______ _____ _____    ______ ____
ROOT
ATOM      1  C   UNL     1       7.778   8.536  18.192  0.00  0.00    +0.000 C 
ENDROOT
BRANCH   1   2
ATOM      2  C   UNL     1       8.631   9.809  17.925  0.00  0.00    +0.000 C 
BRANCH   2   3
ATOM      3  C   UNL     1       9.178  10.485  19.210  0.00  0.00    +0.000 C 
BRANCH   3   6
ATOM      4  C   UNL     1      10.928  12.151  18.730  0.00  0.00    +0.000 C 
ATOM      5  O   UNL     1      11.743  11.237  18.742  0.00  0.00    +0.000 OA
ATOM      6  N   UNL     1       9.612  11.857  18.970  0.00  0.00    +0.000 N 
ATOM      7  H   UNL     1       8.918  12.610  19.063  0.00  0.00    +0.000 HD
BRANCH   4  14
ATOM      8  C   UNL     1      11.938  14.109  17.326  0.00  0.00    +0.000 A 
ATOM      9  C   UNL     1      12.333  15.459  17.273  0.00  0.00    +0.000 A 
ATOM     10  C   UNL     1      12.275  16.270  18.402  0.00  0.00    +0.000 A 
ATOM     11  C   UNL     1      11.831  15.747  19.608  0.00  0.00    +0.000 A 
ATOM     12  C   UNL     1      11.424  14.412  19.692  0.00  0.00    +0.000 A 
ATOM     13  F   UNL     1      10.977  13.972  20.897  0.00  0.00    +0.000 F 
ATOM     14  C   UNL     1      11.443  13.562  18.554  0.00  0.00    +0.000 A 
BRANCH   8  15
ATOM     15  N   UNL     1      12.120  13.338  16.146  0.00  0.00    +0.000 N 
ATOM     16  H   UNL     1      12.218  12.314  16.207  0.00  0.00    +0.000 HD
ATOM     17  H   UNL     1      11.982  13.729  15.206  0.00  0.00    +0.000 HD
ENDBRANCH   8  15
ENDBRANCH   4  14
ENDBRANCH   3   6
ENDBRANCH   2   3
ENDBRANCH   1   2
BRANCH   1  18
ATOM     18  C   UNL     1       8.109   7.386  17.221  0.00  0.00    +0.000 C 
BRANCH  18  19
ATOM     19  N   UNL     1       6.915   6.657  16.724  0.00  0.00    +0.000 NA
ATOM     20  C   UNL     1       5.629   7.120  17.315  0.00  0.00    +0.000 C 
ATOM     21  C   UNL     1       4.454   6.279  16.753  0.00  0.00    +0.000 C 
ATOM     22  N   UNL     1       4.739   4.861  16.942  0.00  0.00    +0.000 N 
ATOM     23  C   UNL     1       3.930   3.907  17.655  0.00  0.00    +0.000 A 
ATOM     24  N   UNL     1       4.006   2.587  17.310  0.00  0.00    +0.000 NA
ATOM     25  S   UNL     1       3.004   1.732  18.319  0.00  0.00    +0.000 S 
ATOM     26  C   UNL     1       2.467   2.994  19.243  0.00  0.00    +0.000 A 
ATOM     27  C   UNL     1       1.605   2.955  20.335  0.00  0.00    +0.000 A 
ATOM     28  C   UNL     1       1.325   4.156  20.989  0.00  0.00    +0.000 A 
ATOM     29  C   UNL     1       1.913   5.355  20.548  0.00  0.00    +0.000 A 
ATOM     30  C   UNL     1       2.786   5.367  19.445  0.00  0.00    +0.000 A 
ATOM     31  C   UNL     1       3.063   4.163  18.769  0.00  0.00    +0.000 A 
ATOM     32  C   UNL     1       5.987   4.411  16.354  0.00  0.00    +0.000 C 
ATOM     33  C   UNL     1       7.102   5.215  17.000  0.00  0.00    +0.000 C 
ENDBRANCH  18  19
ENDBRANCH   1  18
TORSDOF 7
ENDMDL
MODEL 3
REMARK VINA RESULT:      -8.0      1.583      1.955
REMARK  Name = 
REMARK  7 active torsions:
REMARK  status: ('A' for Active; 'I' for Inactive)
REMARK    1  A    between atoms: N_1  and  C_2
REMARK    2  A    between atoms: C_8  and  C_9
REMARK    3  A    between atoms: N_11  and  C_12
REMARK    4  A    between atoms: C_12  and  C_13
REMARK    5  A    between atoms: C_13  and  C_14
REMARK    6  A    between atoms: C_14  and  C_15
REMARK    7  A    between atoms: C_15  and  N_16
REMARK                            x       y       z     vdW  Elec       q    Type
REMARK                         _______ _______ _______ _____ _____    ______ ____
ROOT
ATOM      1  C   UNL     1       8.518   9.165  18.088  0.00  0.00    +0.000 C 
ENDROOT
BRANCH   1   2
ATOM      2  C   UNL     1       8.188   7.698  18.485  0.00  0.00    +0.000 C 
BRANCH   2   3
ATOM      3  C   UNL     1       7.534   6.867  17.349  0.00  0.00    +0.000 C 
BRANCH   3   6
ATOM      4  C   UNL     1       5.905   5.172  18.084  0.00  0.00    +0.000 C 
ATOM      5  O   UNL     1       6.828   4.369  18.141  0.00  0.00    +0.000 OA
ATOM      6  N   UNL     1       6.175   6.453  17.682  0.00  0.00    +0.000 N 
ATOM      7  H   UNL     1       5.412   7.123  17.530  0.00  0.00    +0.000 HD
BRANCH   4  14
ATOM      8  C   UNL     1       4.188   3.527  19.168  0.00  0.00    +0.000 A 
ATOM      9  C   UNL     1       2.841   3.193  19.404  0.00  0.00    +0.000 A 
ATOM     10  C   UNL     1       1.807   3.941  18.849  0.00  0.00    +0.000 A 
ATOM     11  C   UNL     1       2.098   5.029  18.039  0.00  0.00    +0.000 A 
ATOM     12  C   UNL     1       3.425   5.391  17.790  0.00  0.00    +0.000 A 
ATOM     13  F   UNL     1       3.637   6.482  17.009  0.00  0.00    +0.000 F 
ATOM     14  C   UNL     1       4.506   4.669  18.363  0.00  0.00    +0.000 A 
BRANCH   8  15
ATOM     15  N   UNL     1       5.172   2.651  19.702  0.00  0.00    +0.000 N 
ATOM     16  H   UNL     1       6.147   2.704  19.371  0.00  0.00    +0.000 HD
ATOM     17  H   UNL     1       5.003   2.076  20.535  0.00  0.00    +0.000 HD
ENDBRANCH   8  15
ENDBRANCH   4  14
ENDBRANCH   3   6
ENDBRANCH   2   3
ENDBRANCH   1   2
BRANCH   1  18
ATOM     18  C   UNL     1       9.058   9.993  19.272  0.00  0.00    +0.000 C 
BRANCH  18  19
ATOM     19  N   UNL     1      10.172  10.904  18.910  0.00  0.00    +0.000 NA
ATOM     20  C   UNL     1      10.738  11.662  20.060  0.00  0.00    +0.000 C 
ATOM     21  C   UNL     1      11.870  12.600  19.571  0.00  0.00    +0.000 C 
ATOM     22  N   UNL     1      11.377  13.427  18.475  0.00  0.00    +0.000 N 
ATOM     23  C   UNL     1      11.356  14.866  18.424  0.00  0.00    +0.000 A 
ATOM     24  N   UNL     1      11.391  15.485  17.206  0.00  0.00    +0.000 NA
ATOM     25  S   UNL     1      11.317  17.122  17.457  0.00  0.00    +0.000 S 
ATOM     26  C   UNL     1      11.206  17.104  19.106  0.00  0.00    +0.000 A 
ATOM     27  C   UNL     1      11.066  18.185  19.971  0.00  0.00    +0.000 A 
ATOM     28  C   UNL     1      10.951  17.917  21.337  0.00  0.00    +0.000 A 
ATOM     29  C   UNL     1      10.969  16.590  21.802  0.00  0.00    +0.000 A 
ATOM     30  C   UNL     1      11.106  15.514  20.906  0.00  0.00    +0.000 A 
ATOM     31  C   UNL     1      11.238  15.774  19.528  0.00  0.00    +0.000 A 
ATOM     32  C   UNL     1      10.838  12.684  17.352  0.00  0.00    +0.000 C 
ATOM     33  C   UNL     1       9.685  11.848  17.878  0.00  0.00    +0.000 C 
ENDBRANCH  18  19
ENDBRANCH   1  18
TORSDOF 7
ENDMDL
MODEL 4
REMARK VINA RESULT:      -8.0      1.605      1.862
REMARK  Name = 
REMARK  7 active torsions:
REMARK  status: ('A' for Active; 'I' for Inactive)
REMARK    1  A    between atoms: N_1  and  C_2
REMARK    2  A    between atoms: C_8  and  C_9
REMARK    3  A    between atoms: N_11  and  C_12
REMARK    4  A    between atoms: C_12  and  C_13
REMARK    5  A    between atoms: C_13  and  C_14
REMARK    6  A    between atoms: C_14  and  C_15
REMARK    7  A    between atoms: C_15  and  N_16
REMARK                            x       y       z     vdW  Elec       q    Type
REMARK                         _______ _______ _______ _____ _____    ______ ____
ROOT
ATOM      1  C   UNL     1       8.325   8.830  17.678  0.00  0.00    +0.000 C 
ENDROOT
BRANCH   1   2
ATOM      2  C   UNL     1       7.029   7.972  17.622  0.00  0.00    +0.000 C 
BRANCH   2   3
ATOM      3  C   UNL     1       7.270   6.449  17.796  0.00  0.00    +0.000 C 
BRANCH   3   6
ATOM      4  C   UNL     1       5.354   5.178  18.680  0.00  0.00    +0.000 C 
ATOM      5  O   UNL     1       5.790   5.382  19.806  0.00  0.00    +0.000 OA
ATOM      6  N   UNL     1       6.049   5.673  17.609  0.00  0.00    +0.000 N 
ATOM      7  H   UNL     1       5.765   5.437  16.649  0.00  0.00    +0.000 HD
BRANCH   4  14
ATOM      8  C   UNL     1       4.010   2.967  19.048  0.00  0.00    +0.000 A 
ATOM      9  C   UNL     1       2.794   2.273  18.906  0.00  0.00    +0.000 A 
ATOM     10  C   UNL     1       1.707   2.850  18.258  0.00  0.00    +0.000 A 
ATOM     11  C   UNL     1       1.817   4.128  17.728  0.00  0.00    +0.000 A 
ATOM     12  C   UNL     1       3.008   4.848  17.858  0.00  0.00    +0.000 A 
ATOM     13  F   UNL     1       3.038   6.102  17.339  0.00  0.00    +0.000 F 
ATOM     14  C   UNL     1       4.129   4.301  18.539  0.00  0.00    +0.000 A 
BRANCH   8  15
ATOM     15  N   UNL     1       5.090   2.260  19.643  0.00  0.00    +0.000 N 
ATOM     16  H   UNL     1       5.288   2.370  20.649  0.00  0.00    +0.000 HD
ATOM     17  H   UNL     1       5.585   1.502  19.160  0.00  0.00    +0.000 HD
ENDBRANCH   8  15
ENDBRANCH   4  14
ENDBRANCH   3   6
ENDBRANCH   2   3
ENDBRANCH   1   2
BRANCH   1  18
ATOM     18  C   UNL     1       8.743   9.180  19.120  0.00  0.00    +0.000 C 
BRANCH  18  19
ATOM     19  N   UNL     1       9.687  10.321  19.211  0.00  0.00    +0.000 NA
ATOM     20  C   UNL     1       9.331  11.325  20.253  0.00  0.00    +0.000 C 
ATOM     21  C   UNL     1      10.360  12.484  20.246  0.00  0.00    +0.000 C 
ATOM     22  N   UNL     1      10.479  13.020  18.895  0.00  0.00    +0.000 N 
ATOM     23  C   UNL     1      10.255  14.382  18.486  0.00  0.00    +0.000 A 
ATOM     24  N   UNL     1      10.899  14.853  17.376  0.00  0.00    +0.000 NA
ATOM     25  S   UNL     1      10.421  16.423  17.130  0.00  0.00    +0.000 S 
ATOM     26  C   UNL     1       9.364  16.549  18.395  0.00  0.00    +0.000 A 
ATOM     27  C   UNL     1       8.565  17.633  18.744  0.00  0.00    +0.000 A 
ATOM     28  C   UNL     1       7.714  17.491  19.841  0.00  0.00    +0.000 A 
ATOM     29  C   UNL     1       7.674  16.278  20.553  0.00  0.00    +0.000 A 
ATOM     30  C   UNL     1       8.488  15.194  20.176  0.00  0.00    +0.000 A 
ATOM     31  C   UNL     1       9.361  15.333  19.081  0.00  0.00    +0.000 A 
ATOM     32  C   UNL     1      10.838  12.042  17.885  0.00  0.00    +0.000 C 
ATOM     33  C   UNL     1       9.754  10.978  17.886  0.00  0.00    +0.000 C 
ENDBRANCH  18  19
ENDBRANCH   1  18
TORSDOF 7
ENDMDL
MODEL 5
REMARK VINA RESULT:      -7.9      4.393     11.559
REMARK  Name = 
REMARK  7 active torsions:
REMARK  status: ('A' for Active; 'I' for Inactive)
REMARK    1  A    between atoms: N_1  and  C_2
REMARK    2  A    between atoms: C_8  and  C_9
REMARK    3  A    between atoms: N_11  and  C_12
REMARK    4  A    between atoms: C_12  and  C_13
REMARK    5  A    between atoms: C_13  and  C_14
REMARK    6  A    between atoms: C_14  and  C_15
REMARK    7  A    between atoms: C_15  and  N_16
REMARK                            x       y       z     vdW  Elec       q    Type
REMARK                         _______ _______ _______ _____ _____    ______ ____
ROOT
ATOM      1  C   UNL     1       8.576   8.504  18.364  0.00  0.00    +0.000 C 
ENDROOT
BRANCH   1   2
ATOM      2  C   UNL     1       8.904   9.943  18.855  0.00  0.00    +0.000 C 
BRANCH   2   3
ATOM      3  C   UNL     1       9.870  10.724  17.925  0.00  0.00    +0.000 C 
BRANCH   3   6
ATOM      4  C   UNL     1      10.823  12.942  18.418  0.00  0.00    +0.000 C 
ATOM      5  O   UNL     1      11.902  12.392  18.601  0.00  0.00    +0.000 OA
ATOM      6  N   UNL     1       9.743  12.169  18.085  0.00  0.00    +0.000 N 
ATOM      7  H   UNL     1       8.805  12.584  18.020  0.00  0.00    +0.000 HD
BRANCH   4  14
ATOM      8  C   UNL     1      10.747  15.441  17.659  0.00  0.00    +0.000 A 
ATOM      9  C   UNL     1      10.591  16.793  18.019  0.00  0.00    +0.000 A 
ATOM     10  C   UNL     1      10.444  17.170  19.350  0.00  0.00    +0.000 A 
ATOM     11  C   UNL     1      10.460  16.207  20.348  0.00  0.00    +0.000 A 
ATOM     12  C   UNL     1      10.606  14.855  20.024  0.00  0.00    +0.000 A 
ATOM     13  F   UNL     1      10.588  13.963  21.048  0.00  0.00    +0.000 F 
ATOM     14  C   UNL     1      10.730  14.430  18.674  0.00  0.00    +0.000 A 
BRANCH   8  15
ATOM     15  N   UNL     1      10.982  15.163  16.285  0.00  0.00    +0.000 N 
ATOM     16  H   UNL     1      11.871  14.731  15.989  0.00  0.00    +0.000 HD
ATOM     17  H   UNL     1      10.238  15.208  15.579  0.00  0.00    +0.000 HD
ENDBRANCH   8  15
ENDBRANCH   4  14
ENDBRANCH   3   6
ENDBRANCH   2   3
ENDBRANCH   1   2
BRANCH   1  18
ATOM     18  C   UNL     1       7.381   8.467  17.391  0.00  0.00    +0.000 C 
BRANCH  18  19
ATOM     19  N   UNL     1       6.842   7.106  17.153  0.00  0.00    +0.000 NA
ATOM     20  C   UNL     1       5.358   7.049  17.036  0.00  0.00    +0.000 C 
ATOM     21  C   UNL     1       4.899   5.586  16.817  0.00  0.00    +0.000 C 
ATOM     22  N   UNL     1       5.463   4.738  17.863  0.00  0.00    +0.000 N 
ATOM     23  C   UNL     1       4.735   3.907  18.785  0.00  0.00    +0.000 A 
ATOM     24  N   UNL     1       5.350   2.805  19.310  0.00  0.00    +0.000 NA
ATOM     25  S   UNL     1       4.292   2.073  20.357  0.00  0.00    +0.000 S 
ATOM     26  C   UNL     1       3.037   3.139  20.207  0.00  0.00    +0.000 A 
ATOM     27  C   UNL     1       1.815   3.128  20.873  0.00  0.00    +0.000 A 
ATOM     28  C   UNL     1       0.918   4.165  20.609  0.00  0.00    +0.000 A 
ATOM     29  C   UNL     1       1.262   5.183  19.702  0.00  0.00    +0.000 A 
ATOM     30  C   UNL     1       2.506   5.175  19.046  0.00  0.00    +0.000 A 
ATOM     31  C   UNL     1       3.411   4.125  19.293  0.00  0.00    +0.000 A 
ATOM     32  C   UNL     1       6.909   4.787  17.965  0.00  0.00    +0.000 C 
ATOM     33  C   UNL     1       7.291   6.228  18.257  0.00  0.00    +0.000 C 
ENDBRANCH  18  19
ENDBRANCH   1  18
TORSDOF 7
ENDMDL
MODEL 6
REMARK VINA RESULT:      -7.9      1.481      1.559
REMARK  Name = 
REMARK  7 active torsions:
REMARK  status: ('A' for Active; 'I' for Inactive)
REMARK    1  A    between atoms: N_1  and  C_2
REMARK    2  A    between atoms: C_8  and  C_9
REMARK    3  A    between atoms: N_11  and  C_12
REMARK    4  A    between atoms: C_12  and  C_13
REMARK    5  A    between atoms: C_13  and  C_14
REMARK    6  A    between atoms: C_14  and  C_15
REMARK    7  A    between atoms: C_15  and  N_16
REMARK                            x       y       z     vdW  Elec       q    Type
REMARK                         _______ _______ _______ _____ _____    ______ ____
ROOT
ATOM      1  C   UNL     1       8.192   7.687  18.449  0.00  0.00    +0.000 C 
ENDROOT
BRANCH   1   2
ATOM      2  C   UNL     1       7.631   6.475  17.651  0.00  0.00    +0.000 C 
BRANCH   2   3
ATOM      3  C   UNL     1       6.105   6.545  17.384  0.00  0.00    +0.000 C 
BRANCH   3   6
ATOM      4  C   UNL     1       4.338   5.004  18.141  0.00  0.00    +0.000 C 
ATOM      5  O   UNL     1       4.099   4.765  16.964  0.00  0.00    +0.000 OA
ATOM      6  N   UNL     1       5.329   5.901  18.439  0.00  0.00    +0.000 N 
ATOM      7  H   UNL     1       5.491   6.197  19.410  0.00  0.00    +0.000 HD
BRANCH   4  14
ATOM      8  C   UNL     1       3.759   3.167  19.907  0.00  0.00    +0.000 A 
ATOM      9  C   UNL     1       2.881   2.708  20.907  0.00  0.00    +0.000 A 
ATOM     10  C   UNL     1       1.704   3.390  21.199  0.00  0.00    +0.000 A 
ATOM     11  C   UNL     1       1.375   4.537  20.490  0.00  0.00    +0.000 A 
ATOM     12  C   UNL     1       2.229   5.024  19.496  0.00  0.00    +0.000 A 
ATOM     13  F   UNL     1       1.858   6.164  18.860  0.00  0.00    +0.000 F 
ATOM     14  C   UNL     1       3.453   4.370  19.191  0.00  0.00    +0.000 A 
BRANCH   8  15
ATOM     15  N   UNL     1       4.889   2.354  19.619  0.00  0.00    +0.000 N 
ATOM     16  H   UNL     1       5.132   2.133  18.642  0.00  0.00    +0.000 HD
ATOM     17  H   UNL     1       5.590   2.115  20.330  0.00  0.00    +0.000 HD
ENDBRANCH   8  15
ENDBRANCH   4  14
ENDBRANCH   3   6
ENDBRANCH   2   3
ENDBRANCH   1   2
BRANCH   1  18
ATOM     18  C   UNL     1       7.923   9.033  17.749  0.00  0.00    +0.000 C 
BRANCH  18  19
ATOM     19  N   UNL     1       8.893  10.099  18.103  0.00  0.00    +0.000 NA
ATOM     20  C   UNL     1       9.259  10.135  19.547  0.00  0.00    +0.000 C 
ATOM     21  C   UNL     1      10.251  11.296  19.813  0.00  0.00    +0.000 C 
ATOM     22  N   UNL     1       9.694  12.539  19.292  0.00  0.00    +0.000 N 
ATOM     23  C   UNL     1       9.442  13.748  20.033  0.00  0.00    +0.000 A 
ATOM     24  N   UNL     1       9.447  14.943  19.370  0.00  0.00    +0.000 NA
ATOM     25  S   UNL     1       9.092  16.140  20.462  0.00  0.00    +0.000 S 
ATOM     26  C   UNL     1       8.890  15.188  21.798  0.00  0.00    +0.000 A 
ATOM     27  C   UNL     1       8.525  15.576  23.084  0.00  0.00    +0.000 A 
ATOM     28  C   UNL     1       8.376  14.578  24.049  0.00  0.00    +0.000 A 
ATOM     29  C   UNL     1       8.583  13.229  23.710  0.00  0.00    +0.000 A 
ATOM     30  C   UNL     1       8.946  12.862  22.401  0.00  0.00    +0.000 A 
ATOM     31  C   UNL     1       9.114  13.862  21.425  0.00  0.00    +0.000 A 
ATOM     32  C   UNL     1       9.350  12.504  17.883  0.00  0.00    +0.000 C 
ATOM     33  C   UNL     1       8.320  11.403  17.700  0.00  0.00    +0.000 C 
ENDBRANCH  18  19
ENDBRANCH   1  18
TORSDOF 7
ENDMDL
MODEL 7
REMARK VINA RESULT:      -7.8      3.317      4.284
REMARK  Name = 
REMARK  7 active torsions:
REMARK  status: ('A' for Active; 'I' for Inactive)
REMARK    1  A    between atoms: N_1  and  C_2
REMARK    2  A    between atoms: C_8  and  C_9
REMARK    3  A    between atoms: N_11  and  C_12
REMARK    4  A    between atoms: C_12  and  C_13
REMARK    5  A    between atoms: C_13  and  C_14
REMARK    6  A    between atoms: C_14  and  C_15
REMARK    7  A    between atoms: C_15  and  N_16
REMARK                            x       y       z     vdW  Elec       q    Type
REMARK                         _______ _______ _______ _____ _____    ______ ____
ROOT
ATOM      1  C   UNL     1       8.731   9.269  18.645  0.00  0.00    +0.000 C 
ENDROOT
BRANCH   1   2
ATOM      2  C   UNL     1       7.637   8.717  17.687  0.00  0.00    +0.000 C 
BRANCH   2   3
ATOM      3  C   UNL     1       7.535   7.169  17.667  0.00  0.00    +0.000 C 
BRANCH   3   6
ATOM      4  C   UNL     1       7.304   5.374  15.996  0.00  0.00    +0.000 C 
ATOM      5  O   UNL     1       7.957   4.653  16.740  0.00  0.00    +0.000 OA
ATOM      6  N   UNL     1       7.056   6.664  16.385  0.00  0.00    +0.000 N 
ATOM      7  H   UNL     1       6.597   7.322  15.744  0.00  0.00    +0.000 HD
BRANCH   4  14
ATOM      8  C   UNL     1       7.636   5.008  13.431  0.00  0.00    +0.000 A 
ATOM      9  C   UNL     1       7.189   4.394  12.245  0.00  0.00    +0.000 A 
ATOM     10  C   UNL     1       6.028   3.627  12.226  0.00  0.00    +0.000 A 
ATOM     11  C   UNL     1       5.285   3.468  13.386  0.00  0.00    +0.000 A 
ATOM     12  C   UNL     1       5.705   4.059  14.582  0.00  0.00    +0.000 A 
ATOM     13  F   UNL     1       4.943   3.842  15.685  0.00  0.00    +0.000 F 
ATOM     14  C   UNL     1       6.900   4.824  14.646  0.00  0.00    +0.000 A 
BRANCH   8  15
ATOM     15  N   UNL     1       8.781   5.844  13.330  0.00  0.00    +0.000 N 
ATOM     16  H   UNL     1       9.025   6.282  12.429  0.00  0.00    +0.000 HD
ATOM     17  H   UNL     1       9.288   6.184  14.156  0.00  0.00    +0.000 HD
ENDBRANCH   8  15
ENDBRANCH   4  14
ENDBRANCH   3   6
ENDBRANCH   2   3
ENDBRANCH   1   2
BRANCH   1  18
ATOM     18  C   UNL     1       9.427  10.526  18.089  0.00  0.00    +0.000 C 
BRANCH  18  19
ATOM     19  N   UNL     1       9.671  11.578  19.107  0.00  0.00    +0.000 NA
ATOM     20  C   UNL     1       9.648  11.083  20.512  0.00  0.00    +0.000 C 
ATOM     21  C   UNL     1       9.884  12.260  21.492  0.00  0.00    +0.000 C 
ATOM     22  N   UNL     1       8.935  13.330  21.204  0.00  0.00    +0.000 N 
ATOM     23  C   UNL     1       7.984  13.907  22.118  0.00  0.00    +0.000 A 
ATOM     24  N   UNL     1       7.568  15.193  21.915  0.00  0.00    +0.000 NA
ATOM     25  S   UNL     1       6.457  15.567  23.088  0.00  0.00    +0.000 S 
ATOM     26  C   UNL     1       6.441  14.111  23.871  0.00  0.00    +0.000 A 
ATOM     27  C   UNL     1       5.663  13.728  24.959  0.00  0.00    +0.000 A 
ATOM     28  C   UNL     1       5.795  12.419  25.428  0.00  0.00    +0.000 A 
ATOM     29  C   UNL     1       6.686  11.530  24.801  0.00  0.00    +0.000 A 
ATOM     30  C   UNL     1       7.458  11.940  23.698  0.00  0.00    +0.000 A 
ATOM     31  C   UNL     1       7.343  13.262  23.228  0.00  0.00    +0.000 A 
ATOM     32  C   UNL     1       8.970  13.817  19.838  0.00  0.00    +0.000 C 
ATOM     33  C   UNL     1       8.654  12.639  18.933  0.00  0.00    +0.000 C 
ENDBRANCH  18  19
ENDBRANCH   1  18
TORSDOF 7
ENDMDL
MODEL 8
REMARK VINA RESULT:      -7.8      1.707      2.006
REMARK  Name = 
REMARK  7 active torsions:
REMARK  status: ('A' for Active; 'I' for Inactive)
REMARK    1  A    between atoms: N_1  and  C_2
REMARK    2  A    between atoms: C_8  and  C_9
REMARK    3  A    between atoms: N_11  and  C_12
REMARK    4  A    between atoms: C_12  and  C_13
REMARK    5  A    between atoms: C_13  and  C_14
REMARK    6  A    between atoms: C_14  and  C_15
REMARK    7  A    between atoms: C_15  and  N_16
REMARK                            x       y       z     vdW  Elec       q    Type
REMARK                         _______ _______ _______ _____ _____    ______ ____
ROOT
ATOM      1  C   UNL     1       7.996   7.685  17.485  0.00  0.00    +0.000 C 
ENDROOT
BRANCH   1   2
ATOM      2  C   UNL     1       7.917   6.706  18.691  0.00  0.00    +0.000 C 
BRANCH   2   3
ATOM      3  C   UNL     1       7.426   5.282  18.318  0.00  0.00    +0.000 C 
BRANCH   3   6
ATOM      4  C   UNL     1       5.029   4.848  18.688  0.00  0.00    +0.000 C 
ATOM      5  O   UNL     1       4.823   5.249  17.549  0.00  0.00    +0.000 OA
ATOM      6  N   UNL     1       6.316   4.844  19.158  0.00  0.00    +0.000 N 
ATOM      7  H   UNL     1       6.512   4.607  20.138  0.00  0.00    +0.000 HD
BRANCH   4  14
ATOM      8  C   UNL     1       2.802   5.387  19.944  0.00  0.00    +0.000 A 
ATOM      9  C   UNL     1       1.707   4.911  20.688  0.00  0.00    +0.000 A 
ATOM     10  C   UNL     1       1.619   3.574  21.063  0.00  0.00    +0.000 A 
ATOM     11  C   UNL     1       2.628   2.689  20.711  0.00  0.00    +0.000 A 
ATOM     12  C   UNL     1       3.726   3.128  19.965  0.00  0.00    +0.000 A 
ATOM     13  F   UNL     1       4.664   2.205  19.634  0.00  0.00    +0.000 F 
ATOM     14  C   UNL     1       3.835   4.480  19.541  0.00  0.00    +0.000 A 
BRANCH   8  15
ATOM     15  N   UNL     1       2.848   6.785  19.688  0.00  0.00    +0.000 N 
ATOM     16  H   UNL     1       1.975   7.315  19.551  0.00  0.00    +0.000 HD
ATOM     17  H   UNL     1       3.705   7.338  19.806  0.00  0.00    +0.000 HD
ENDBRANCH   8  15
ENDBRANCH   4  14
ENDBRANCH   3   6
ENDBRANCH   2   3
ENDBRANCH   1   2
BRANCH   1  18
ATOM     18  C   UNL     1       7.653   9.137  17.876  0.00  0.00    +0.000 C 
BRANCH  18  19
ATOM     19  N   UNL     1       8.835   9.953  18.250  0.00  0.00    +0.000 NA
ATOM     20  C   UNL     1       9.057  10.067  19.718  0.00  0.00    +0.000 C 
ATOM     21  C   UNL     1      10.293  10.958  19.999  0.00  0.00    +0.000 C 
ATOM     22  N   UNL     1      10.143  12.231  19.302  0.00  0.00    +0.000 N 
ATOM     23  C   UNL     1      10.154  13.544  19.893  0.00  0.00    +0.000 A 
ATOM     24  N   UNL     1      10.543  14.609  19.130  0.00  0.00    +0.000 NA
ATOM     25  S   UNL     1      10.419  15.980  20.056  0.00  0.00    +0.000 S 
ATOM     26  C   UNL     1       9.841  15.279  21.438  0.00  0.00    +0.000 A 
ATOM     27  C   UNL     1       9.472  15.900  22.627  0.00  0.00    +0.000 A 
ATOM     28  C   UNL     1       8.968  15.098  23.653  0.00  0.00    +0.000 A 
ATOM     29  C   UNL     1       8.838  13.710  23.467  0.00  0.00    +0.000 A 
ATOM     30  C   UNL     1       9.213  13.107  22.252  0.00  0.00    +0.000 A 
ATOM     31  C   UNL     1       9.736  13.905  21.217  0.00  0.00    +0.000 A 
ATOM     32  C   UNL     1       9.939  12.116  17.870  0.00  0.00    +0.000 C 
ATOM     33  C   UNL     1       8.674  11.302  17.661  0.00  0.00    +0.000 C 
ENDBRANCH  18  19
ENDBRANCH   1  18
TORSDOF 7
ENDMDL
MODEL 9
REMARK VINA RESULT:      -7.7      1.445      1.579
REMARK  Name = 
REMARK  7 active torsions:
REMARK  status: ('A' for Active; 'I' for Inactive)
REMARK    1  A    between atoms: N_1  and  C_2
REMARK    2  A    between atoms: C_8  and  C_9
REMARK    3  A    between atoms: N_11  and  C_12
REMARK    4  A    between atoms: C_12  and  C_13
REMARK    5  A    between atoms: C_13  and  C_14
REMARK    6  A    between atoms: C_14  and  C_15
REMARK    7  A    between atoms: C_15  and  N_16
REMARK                            x       y       z     vdW  Elec       q    Type
REMARK                         _______ _______ _______ _____ _____    ______ ____
ROOT
ATOM      1  C   UNL     1       7.840   9.224  17.767  0.00  0.00    +0.000 C 
ENDROOT
BRANCH   1   2
ATOM      2  C   UNL     1       7.843   7.794  17.154  0.00  0.00    +0.000 C 
BRANCH   2   3
ATOM      3  C   UNL     1       7.444   6.677  18.154  0.00  0.00    +0.000 C 
BRANCH   3   6
ATOM      4  C   UNL     1       5.492   5.319  18.795  0.00  0.00    +0.000 C 
ATOM      5  O   UNL     1       6.119   4.957  19.782  0.00  0.00    +0.000 OA
ATOM      6  N   UNL     1       6.094   6.179  17.915  0.00  0.00    +0.000 N 
ATOM      7  H   UNL     1       5.635   6.425  17.030  0.00  0.00    +0.000 HD
BRANCH   4  14
ATOM      8  C   UNL     1       2.950   5.008  19.316  0.00  0.00    +0.000 A 
ATOM      9  C   UNL     1       1.722   4.422  18.957  0.00  0.00    +0.000 A 
ATOM     10  C   UNL     1       1.632   3.538  17.886  0.00  0.00    +0.000 A 
ATOM     11  C   UNL     1       2.769   3.212  17.162  0.00  0.00    +0.000 A 
ATOM     12  C   UNL     1       4.003   3.782  17.487  0.00  0.00    +0.000 A 
ATOM     13  F   UNL     1       5.071   3.438  16.721  0.00  0.00    +0.000 F 
ATOM     14  C   UNL     1       4.127   4.711  18.555  0.00  0.00    +0.000 A 
BRANCH   8  15
ATOM     15  N   UNL     1       2.958   5.826  20.478  0.00  0.00    +0.000 N 
ATOM     16  H   UNL     1       2.965   5.395  21.414  0.00  0.00    +0.000 HD
ATOM     17  H   UNL     1       3.136   6.837  20.438  0.00  0.00    +0.000 HD
ENDBRANCH   8  15
ENDBRANCH   4  14
ENDBRANCH   3   6
ENDBRANCH   2   3
ENDBRANCH   1   2
BRANCH   1  18
ATOM     18  C   UNL     1       8.798   9.358  18.966  0.00  0.00    +0.000 C 
BRANCH  18  19
ATOM     19  N   UNL     1       9.758  10.483  18.845  0.00  0.00    +0.000 NA
ATOM     20  C   UNL     1      10.201  11.050  20.150  0.00  0.00    +0.000 C 
ATOM     21  C   UNL     1      11.176  12.230  19.911  0.00  0.00    +0.000 C 
ATOM     22  N   UNL     1      10.561  13.192  19.003  0.00  0.00    +0.000 N 
ATOM     23  C   UNL     1      10.319  14.587  19.261  0.00  0.00    +0.000 A 
ATOM     24  N   UNL     1      10.258  15.454  18.206  0.00  0.00    +0.000 NA
ATOM     25  S   UNL     1       9.932  16.968  18.800  0.00  0.00    +0.000 S 
ATOM     26  C   UNL     1       9.826  16.575  20.403  0.00  0.00    +0.000 A 
ATOM     27  C   UNL     1       9.522  17.409  21.475  0.00  0.00    +0.000 A 
ATOM     28  C   UNL     1       9.450  16.837  22.746  0.00  0.00    +0.000 A 
ATOM     29  C   UNL     1       9.672  15.459  22.916  0.00  0.00    +0.000 A 
ATOM     30  C   UNL     1       9.973  14.636  21.814  0.00  0.00    +0.000 A 
ATOM     31  C   UNL     1      10.063  15.206  20.530  0.00  0.00    +0.000 A 
ATOM     32  C   UNL     1      10.143  12.639  17.729  0.00  0.00    +0.000 C 
ATOM     33  C   UNL     1       9.132  11.544  18.025  0.00  0.00    +0.000 C 
ENDBRANCH  18  19
ENDBRANCH   1  18
TORSDOF 7
ENDMDL
