MODEL 1
REMARK VINA RESULT:      -7.7      0.000      0.000
REMARK  Name = 
REMARK  12 active torsions:
REMARK  status: ('A' for Active; 'I' for Inactive)
REMARK    1  A    between atoms: C_1  and  C_2
REMARK    2  A    between atoms: C_2  and  C_3
REMARK    3  A    between atoms: C_2  and  O_4
REMARK    4  A    between atoms: O_4  and  C_5
REMARK    5  A    between atoms: C_5  and  C_6
REMARK    6  A    between atoms: C_5  and  C_27
REMARK    7  A    between atoms: C_6  and  C_7
REMARK    8  A    between atoms: C_10  and  O_11
REMARK    9  A    between atoms: O_11  and  C_12
REMARK   10  A    between atoms: C_12  and  C_13
REMARK   11  A    between atoms: C_16  and  C_17
REMARK   12  A    between atoms: C_27  and  O_29
REMARK                            x       y       z     vdW  Elec       q    Type
REMARK                         _______ _______ _______ _____ _____    ______ ____
ROOT
ATOM      1  C   UNL     1       4.735   4.186  17.154  0.00  0.00    +0.000 A 
ATOM      2  C   UNL     1       3.638   3.441  16.701  0.00  0.00    +0.000 A 
ATOM      3  C   UNL     1       2.967   2.577  17.567  0.00  0.00    +0.000 A 
ATOM      4  C   UNL     1       3.394   2.431  18.886  0.00  0.00    +0.000 A 
ATOM      5  C   UNL     1       4.533   3.100  19.317  0.00  0.00    +0.000 A 
ATOM      6  C   UNL     1       5.221   3.940  18.443  0.00  0.00    +0.000 A 
ENDROOT
BRANCH   1   7
ATOM      7  C   UNL     1       5.307   5.273  16.268  0.00  0.00    +0.000 C 
BRANCH   7   8
ATOM      8  C   UNL     1       6.825   5.203  15.995  0.00  0.00    +0.000 C 
BRANCH   8   9
ATOM      9  C   UNL     1       7.090   4.997  14.494  0.00  0.00    +0.000 C 
ATOM     10  O   UNL     1       7.957   5.567  13.850  0.00  0.00    +0.000 OA
BRANCH   9  11
ATOM     11  O   UNL     1       6.229   4.100  13.942  0.00  0.00    +0.000 OA
ATOM     12  H   UNL     1       6.737   3.270  13.781  0.00  0.00    +0.000 HD
ENDBRANCH   9  11
ENDBRANCH   8   9
BRANCH   8  13
ATOM     13  O   UNL     1       7.590   6.362  16.395  0.00  0.00    +0.000 OA
BRANCH  13  15
ATOM     14  C   UNL     1       7.950   6.201  18.827  0.00  0.00    +0.000 C 
ATOM     15  C   UNL     1       7.285   6.938  17.670  0.00  0.00    +0.000 C 
ATOM     16  C   UNL     1       7.791   8.378  17.620  0.00  0.00    +0.000 C 
ENDBRANCH  13  15
ENDBRANCH   8  13
ENDBRANCH   7   8
ENDBRANCH   1   7
BRANCH   4  17
ATOM     17  O   UNL     1       2.603   1.639  19.663  0.00  0.00    +0.000 OA
BRANCH  17  18
ATOM     18  C   UNL     1       1.365   2.206  20.101  0.00  0.00    +0.000 C 
BRANCH  18  19
ATOM     19  C   UNL     1       1.569   3.631  20.455  0.00  0.00    +0.000 A 
ATOM     20  N   UNL     1       2.109   4.034  21.614  0.00  0.00    +0.000 NA
ATOM     21  O   UNL     1       2.200   5.420  21.449  0.00  0.00    +0.000 OA
ATOM     22  C   UNL     1       1.692   5.703  20.211  0.00  0.00    +0.000 A 
ATOM     23  N   UNL     1       1.263   4.637  19.574  0.00  0.00    +0.000 NA
BRANCH  22  24
ATOM     24  C   UNL     1       1.710   7.087  19.768  0.00  0.00    +0.000 A 
ATOM     25  C   UNL     1       1.233   8.134  20.571  0.00  0.00    +0.000 A 
ATOM     26  C   UNL     1       1.282   9.455  20.116  0.00  0.00    +0.000 A 
ATOM     27  C   UNL     1       1.808   9.740  18.858  0.00  0.00    +0.000 A 
ATOM     28 CL   UNL     1       1.871  11.368  18.304  0.00  0.00    +0.000 Cl
ATOM     29  C   UNL     1       2.286   8.715  18.047  0.00  0.00    +0.000 A 
ATOM     30  C   UNL     1       2.237   7.395  18.502  0.00  0.00    +0.000 A 
ENDBRANCH  22  24
ENDBRANCH  18  19
ENDBRANCH  17  18
ENDBRANCH   4  17
TORSDOF 10
ENDMDL
MODEL 2
REMARK VINA RESULT:      -7.5      4.702      6.703
REMARK  Name = 
REMARK  12 active torsions:
REMARK  status: ('A' for Active; 'I' for Inactive)
REMARK    1  A    between atoms: C_1  and  C_2
REMARK    2  A    between atoms: C_2  and  C_3
REMARK    3  A    between atoms: C_2  and  O_4
REMARK    4  A    between atoms: O_4  and  C_5
REMARK    5  A    between atoms: C_5  and  C_6
REMARK    6  A    between atoms: C_5  and  C_27
REMARK    7  A    between atoms: C_6  and  C_7
REMARK    8  A    between atoms: C_10  and  O_11
REMARK    9  A    between atoms: O_11  and  C_12
REMARK   10  A    between atoms: C_12  and  C_13
REMARK   11  A    between atoms: C_16  and  C_17
REMARK   12  A    between atoms: C_27  and  O_29
REMARK                            x       y       z     vdW  Elec       q    Type
REMARK                         _______ _______ _______ _____ _____    ______ ____
ROOT
ATOM      1  C   UNL     1       3.209   6.322  18.542  0.00  0.00    +0.000 A 
ATOM      2  C   UNL     1       2.456   6.428  19.720  0.00  0.00    +0.000 A 
ATOM      3  C   UNL     1       1.670   7.556  19.954  0.00  0.00    +0.000 A 
ATOM      4  C   UNL     1       1.642   8.599  19.029  0.00  0.00    +0.000 A 
ATOM      5  C   UNL     1       2.453   8.539  17.902  0.00  0.00    +0.000 A 
ATOM      6  C   UNL     1       3.261   7.425  17.684  0.00  0.00    +0.000 A 
ENDROOT
BRANCH   1   7
ATOM      7  C   UNL     1       3.877   5.004  18.207  0.00  0.00    +0.000 C 
BRANCH   7   8
ATOM      8  C   UNL     1       4.720   4.361  19.329  0.00  0.00    +0.000 C 
BRANCH   8   9
ATOM      9  C   UNL     1       4.167   2.971  19.685  0.00  0.00    +0.000 C 
ATOM     10  O   UNL     1       2.988   2.714  19.879  0.00  0.00    +0.000 OA
BRANCH   9  11
ATOM     11  O   UNL     1       5.151   2.037  19.775  0.00  0.00    +0.000 OA
ATOM     12  H   UNL     1       5.988   2.465  19.474  0.00  0.00    +0.000 HD
ENDBRANCH   9  11
ENDBRANCH   8   9
BRANCH   8  13
ATOM     13  O   UNL     1       6.125   4.185  19.037  0.00  0.00    +0.000 OA
BRANCH  13  15
ATOM     14  C   UNL     1       7.793   5.997  19.114  0.00  0.00    +0.000 C 
ATOM     15  C   UNL     1       6.772   5.220  18.290  0.00  0.00    +0.000 C 
ATOM     16  C   UNL     1       7.473   4.528  17.122  0.00  0.00    +0.000 C 
ENDBRANCH  13  15
ENDBRANCH   8  13
ENDBRANCH   7   8
ENDBRANCH   1   7
BRANCH   4  17
ATOM     17  O   UNL     1       0.764   9.600  19.318  0.00  0.00    +0.000 OA
BRANCH  17  18
ATOM     18  C   UNL     1       1.332  10.867  19.664  0.00  0.00    +0.000 C 
BRANCH  18  19
ATOM     19  C   UNL     1       0.495  11.519  20.700  0.00  0.00    +0.000 A 
ATOM     20  N   UNL     1       0.975  12.393  21.595  0.00  0.00    +0.000 NA
ATOM     21  O   UNL     1      -0.176  12.812  22.269  0.00  0.00    +0.000 OA
ATOM     22  C   UNL     1      -1.226  12.134  21.714  0.00  0.00    +0.000 A 
ATOM     23  N   UNL     1      -0.859  11.304  20.764  0.00  0.00    +0.000 NA
BRANCH  22  24
ATOM     24  C   UNL     1      -2.561  12.422  22.210  0.00  0.00    +0.000 A 
ATOM     25  C   UNL     1      -3.621  12.755  21.353  0.00  0.00    +0.000 A 
ATOM     26  C   UNL     1      -4.895  13.010  21.867  0.00  0.00    +0.000 A 
ATOM     27  C   UNL     1      -5.122  12.935  23.240  0.00  0.00    +0.000 A 
ATOM     28 CL   UNL     1      -6.692  13.245  23.868  0.00  0.00    +0.000 Cl
ATOM     29  C   UNL     1      -4.083  12.608  24.107  0.00  0.00    +0.000 A 
ATOM     30  C   UNL     1      -2.809  12.352  23.592  0.00  0.00    +0.000 A 
ENDBRANCH  22  24
ENDBRANCH  18  19
ENDBRANCH  17  18
ENDBRANCH   4  17
TORSDOF 10
ENDMDL
MODEL 3
REMARK VINA RESULT:      -7.4      4.516      6.357
REMARK  Name = 
REMARK  12 active torsions:
REMARK  status: ('A' for Active; 'I' for Inactive)
REMARK    1  A    between atoms: C_1  and  C_2
REMARK    2  A    between atoms: C_2  and  C_3
REMARK    3  A    between atoms: C_2  and  O_4
REMARK    4  A    between atoms: O_4  and  C_5
REMARK    5  A    between atoms: C_5  and  C_6
REMARK    6  A    between atoms: C_5  and  C_27
REMARK    7  A    between atoms: C_6  and  C_7
REMARK    8  A    between atoms: C_10  and  O_11
REMARK    9  A    between atoms: O_11  and  C_12
REMARK   10  A    between atoms: C_12  and  C_13
REMARK   11  A    between atoms: C_16  and  C_17
REMARK   12  A    between atoms: C_27  and  O_29
REMARK                            x       y       z     vdW  Elec       q    Type
REMARK                         _______ _______ _______ _____ _____    ______ ____
ROOT
ATOM      1  C   UNL     1       2.308   5.376  18.348  0.00  0.00    +0.000 A 
ATOM      2  C   UNL     1       2.403   6.737  18.026  0.00  0.00    +0.000 A 
ATOM      3  C   UNL     1       2.186   7.709  19.002  0.00  0.00    +0.000 A 
ATOM      4  C   UNL     1       1.853   7.337  20.304  0.00  0.00    +0.000 A 
ATOM      5  C   UNL     1       1.672   5.993  20.609  0.00  0.00    +0.000 A 
ATOM      6  C   UNL     1       1.859   5.024  19.625  0.00  0.00    +0.000 A 
ENDROOT
BRANCH   1   7
ATOM      7  C   UNL     1       2.759   4.343  17.336  0.00  0.00    +0.000 C 
BRANCH   7   8
ATOM      8  C   UNL     1       3.870   3.376  17.797  0.00  0.00    +0.000 C 
BRANCH   8   9
ATOM      9  C   UNL     1       3.293   1.969  18.030  0.00  0.00    +0.000 C 
ATOM     10  O   UNL     1       3.878   1.054  18.589  0.00  0.00    +0.000 OA
BRANCH   9  11
ATOM     11  O   UNL     1       2.036   1.844  17.526  0.00  0.00    +0.000 OA
ATOM     12  H   UNL     1       2.042   2.242  16.624  0.00  0.00    +0.000 HD
ENDBRANCH   9  11
ENDBRANCH   8   9
BRANCH   8  13
ATOM     13  O   UNL     1       4.985   3.221  16.890  0.00  0.00    +0.000 OA
BRANCH  13  15
ATOM     14  C   UNL     1       7.015   4.615  16.956  0.00  0.00    +0.000 C 
ATOM     15  C   UNL     1       5.606   4.417  16.408  0.00  0.00    +0.000 C 
ATOM     16  C   UNL     1       5.661   4.286  14.887  0.00  0.00    +0.000 C 
ENDBRANCH  13  15
ENDBRANCH   8  13
ENDBRANCH   7   8
ENDBRANCH   1   7
BRANCH   4  17
ATOM     17  O   UNL     1       1.763   8.367  21.192  0.00  0.00    +0.000 OA
BRANCH  17  18
ATOM     18  C   UNL     1       0.509   8.525  21.861  0.00  0.00    +0.000 C 
BRANCH  18  19
ATOM     19  C   UNL     1       0.240   9.968  22.076  0.00  0.00    +0.000 A 
ATOM     20  N   UNL     1       0.986  10.945  21.544  0.00  0.00    +0.000 NA
ATOM     21  O   UNL     1       0.297  12.102  21.923  0.00  0.00    +0.000 OA
ATOM     22  C   UNL     1      -0.784  11.695  22.655  0.00  0.00    +0.000 A 
ATOM     23  N   UNL     1      -0.845  10.391  22.803  0.00  0.00    +0.000 NA
BRANCH  22  24
ATOM     24  C   UNL     1      -1.701  12.714  23.139  0.00  0.00    +0.000 A 
ATOM     25  C   UNL     1      -1.284  14.025  23.411  0.00  0.00    +0.000 A 
ATOM     26  C   UNL     1      -2.199  14.981  23.860  0.00  0.00    +0.000 A 
ATOM     27  C   UNL     1      -3.538  14.635  24.040  0.00  0.00    +0.000 A 
ATOM     28 CL   UNL     1      -4.662  15.816  24.588  0.00  0.00    +0.000 Cl
ATOM     29  C   UNL     1      -3.970  13.339  23.776  0.00  0.00    +0.000 A 
ATOM     30  C   UNL     1      -3.054  12.384  23.327  0.00  0.00    +0.000 A 
ENDBRANCH  22  24
ENDBRANCH  18  19
ENDBRANCH  17  18
ENDBRANCH   4  17
TORSDOF 10
ENDMDL
MODEL 4
REMARK VINA RESULT:      -7.3      5.380      7.736
REMARK  Name = 
REMARK  12 active torsions:
REMARK  status: ('A' for Active; 'I' for Inactive)
REMARK    1  A    between atoms: C_1  and  C_2
REMARK    2  A    between atoms: C_2  and  C_3
REMARK    3  A    between atoms: C_2  and  O_4
REMARK    4  A    between atoms: O_4  and  C_5
REMARK    5  A    between atoms: C_5  and  C_6
REMARK    6  A    between atoms: C_5  and  C_27
REMARK    7  A    between atoms: C_6  and  C_7
REMARK    8  A    between atoms: C_10  and  O_11
REMARK    9  A    between atoms: O_11  and  C_12
REMARK   10  A    between atoms: C_12  and  C_13
REMARK   11  A    between atoms: C_16  and  C_17
REMARK   12  A    between atoms: C_27  and  O_29
REMARK                            x       y       z     vdW  Elec       q    Type
REMARK                         _______ _______ _______ _____ _____    ______ ____
ROOT
ATOM      1  C   UNL     1       2.701   7.074  18.770  0.00  0.00    +0.000 A 
ATOM      2  C   UNL     1       2.397   7.894  17.675  0.00  0.00    +0.000 A 
ATOM      3  C   UNL     1       1.671   9.071  17.855  0.00  0.00    +0.000 A 
ATOM      4  C   UNL     1       1.224   9.435  19.125  0.00  0.00    +0.000 A 
ATOM      5  C   UNL     1       1.447   8.584  20.201  0.00  0.00    +0.000 A 
ATOM      6  C   UNL     1       2.145   7.392  20.014  0.00  0.00    +0.000 A 
ENDROOT
BRANCH   1   7
ATOM      7  C   UNL     1       3.670   5.924  18.588  0.00  0.00    +0.000 C 
BRANCH   7   8
ATOM      8  C   UNL     1       3.200   4.547  19.102  0.00  0.00    +0.000 C 
BRANCH   8   9
ATOM      9  C   UNL     1       4.095   3.431  18.539  0.00  0.00    +0.000 C 
ATOM     10  O   UNL     1       3.912   2.851  17.480  0.00  0.00    +0.000 OA
BRANCH   9  11
ATOM     11  O   UNL     1       5.133   3.141  19.370  0.00  0.00    +0.000 OA
ATOM     12  H   UNL     1       5.957   3.453  18.927  0.00  0.00    +0.000 HD
ENDBRANCH   9  11
ENDBRANCH   8   9
BRANCH   8  13
ATOM     13  O   UNL     1       3.187   4.383  20.538  0.00  0.00    +0.000 OA
BRANCH  13  15
ATOM     14  C   UNL     1       0.819   3.834  20.129  0.00  0.00    +0.000 C 
ATOM     15  C   UNL     1       1.959   3.952  21.136  0.00  0.00    +0.000 C 
ATOM     16  C   UNL     1       2.243   2.584  21.754  0.00  0.00    +0.000 C 
ENDBRANCH  13  15
ENDBRANCH   8  13
ENDBRANCH   7   8
ENDBRANCH   1   7
BRANCH   4  17
ATOM     17  O   UNL     1       0.615  10.651  19.194  0.00  0.00    +0.000 OA
BRANCH  17  18
ATOM     18  C   UNL     1       0.426  11.197  20.502  0.00  0.00    +0.000 C 
BRANCH  18  19
ATOM     19  C   UNL     1      -0.902  11.854  20.579  0.00  0.00    +0.000 A 
ATOM     20  N   UNL     1      -1.519  12.398  19.522  0.00  0.00    +0.000 NA
ATOM     21  O   UNL     1      -2.756  12.782  20.048  0.00  0.00    +0.000 OA
ATOM     22  C   UNL     1      -2.745  12.437  21.371  0.00  0.00    +0.000 A 
ATOM     23  N   UNL     1      -1.613  11.890  21.752  0.00  0.00    +0.000 NA
BRANCH  22  24
ATOM     24  C   UNL     1      -3.946  12.691  22.151  0.00  0.00    +0.000 A 
ATOM     25  C   UNL     1      -3.955  12.621  23.552  0.00  0.00    +0.000 A 
ATOM     26  C   UNL     1      -5.126  12.887  24.267  0.00  0.00    +0.000 A 
ATOM     27  C   UNL     1      -6.296  13.224  23.589  0.00  0.00    +0.000 A 
ATOM     28 CL   UNL     1      -7.734  13.555  24.474  0.00  0.00    +0.000 Cl
ATOM     29  C   UNL     1      -6.307  13.297  22.200  0.00  0.00    +0.000 A 
ATOM     30  C   UNL     1      -5.136  13.032  21.485  0.00  0.00    +0.000 A 
ENDBRANCH  22  24
ENDBRANCH  18  19
ENDBRANCH  17  18
ENDBRANCH   4  17
TORSDOF 10
ENDMDL
MODEL 5
REMARK VINA RESULT:      -7.2      3.972      5.687
REMARK  Name = 
REMARK  12 active torsions:
REMARK  status: ('A' for Active; 'I' for Inactive)
REMARK    1  A    between atoms: C_1  and  C_2
REMARK    2  A    between atoms: C_2  and  C_3
REMARK    3  A    between atoms: C_2  and  O_4
REMARK    4  A    between atoms: O_4  and  C_5
REMARK    5  A    between atoms: C_5  and  C_6
REMARK    6  A    between atoms: C_5  and  C_27
REMARK    7  A    between atoms: C_6  and  C_7
REMARK    8  A    between atoms: C_10  and  O_11
REMARK    9  A    between atoms: O_11  and  C_12
REMARK   10  A    between atoms: C_12  and  C_13
REMARK   11  A    between atoms: C_16  and  C_17
REMARK   12  A    between atoms: C_27  and  O_29
REMARK                            x       y       z     vdW  Elec       q    Type
REMARK                         _______ _______ _______ _____ _____    ______ ____
ROOT
ATOM      1  C   UNL     1       4.276   5.432  17.307  0.00  0.00    +0.000 A 
ATOM      2  C   UNL     1       4.405   6.793  16.999  0.00  0.00    +0.000 A 
ATOM      3  C   UNL     1       3.551   7.731  17.580  0.00  0.00    +0.000 A 
ATOM      4  C   UNL     1       2.548   7.321  18.457  0.00  0.00    +0.000 A 
ATOM      5  C   UNL     1       2.359   5.966  18.700  0.00  0.00    +0.000 A 
ATOM      6  C   UNL     1       3.193   5.027  18.095  0.00  0.00    +0.000 A 
ENDROOT
BRANCH   1   7
ATOM      7  C   UNL     1       5.344   4.464  16.841  0.00  0.00    +0.000 C 
BRANCH   7   8
ATOM      8  C   UNL     1       6.707   5.081  16.462  0.00  0.00    +0.000 C 
BRANCH   8   9
ATOM      9  C   UNL     1       7.697   4.952  17.632  0.00  0.00    +0.000 C 
ATOM     10  O   UNL     1       8.463   4.016  17.803  0.00  0.00    +0.000 OA
BRANCH   9  11
ATOM     11  O   UNL     1       7.621   6.009  18.484  0.00  0.00    +0.000 OA
ATOM     12  H   UNL     1       6.736   5.971  18.919  0.00  0.00    +0.000 HD
ENDBRANCH   9  11
ENDBRANCH   8   9
BRANCH   8  13
ATOM     13  O   UNL     1       7.356   4.508  15.305  0.00  0.00    +0.000 OA
BRANCH  13  15
ATOM     14  C   UNL     1       8.025   5.428  13.119  0.00  0.00    +0.000 C 
ATOM     15  C   UNL     1       6.896   4.936  14.019  0.00  0.00    +0.000 C 
ATOM     16  C   UNL     1       6.222   3.723  13.381  0.00  0.00    +0.000 C 
ENDBRANCH  13  15
ENDBRANCH   8  13
ENDBRANCH   7   8
ENDBRANCH   1   7
BRANCH   4  17
ATOM     17  O   UNL     1       1.843   8.332  19.037  0.00  0.00    +0.000 OA
BRANCH  17  18
ATOM     18  C   UNL     1       1.376   9.367  18.167  0.00  0.00    +0.000 C 
BRANCH  18  19
ATOM     19  C   UNL     1       0.809  10.476  18.972  0.00  0.00    +0.000 A 
ATOM     20  N   UNL     1       1.185  11.755  18.836  0.00  0.00    +0.000 NA
ATOM     21  O   UNL     1       0.318  12.427  19.702  0.00  0.00    +0.000 OA
ATOM     22  C   UNL     1      -0.480  11.476  20.277  0.00  0.00    +0.000 A 
ATOM     23  N   UNL     1      -0.195  10.256  19.881  0.00  0.00    +0.000 NA
BRANCH  22  24
ATOM     24  C   UNL     1      -1.513  11.920  21.198  0.00  0.00    +0.000 A 
ATOM     25  C   UNL     1      -2.506  12.836  20.820  0.00  0.00    +0.000 A 
ATOM     26  C   UNL     1      -3.493  13.228  21.730  0.00  0.00    +0.000 A 
ATOM     27  C   UNL     1      -3.496  12.707  23.023  0.00  0.00    +0.000 A 
ATOM     28 CL   UNL     1      -4.715  13.187  24.137  0.00  0.00    +0.000 Cl
ATOM     29  C   UNL     1      -2.518  11.798  23.416  0.00  0.00    +0.000 A 
ATOM     30  C   UNL     1      -1.533  11.407  22.506  0.00  0.00    +0.000 A 
ENDBRANCH  22  24
ENDBRANCH  18  19
ENDBRANCH  17  18
ENDBRANCH   4  17
TORSDOF 10
ENDMDL
MODEL 6
REMARK VINA RESULT:      -7.2      4.299      5.655
REMARK  Name = 
REMARK  12 active torsions:
REMARK  status: ('A' for Active; 'I' for Inactive)
REMARK    1  A    between atoms: C_1  and  C_2
REMARK    2  A    between atoms: C_2  and  C_3
REMARK    3  A    between atoms: C_2  and  O_4
REMARK    4  A    between atoms: O_4  and  C_5
REMARK    5  A    between atoms: C_5  and  C_6
REMARK    6  A    between atoms: C_5  and  C_27
REMARK    7  A    between atoms: C_6  and  C_7
REMARK    8  A    between atoms: C_10  and  O_11
REMARK    9  A    between atoms: O_11  and  C_12
REMARK   10  A    between atoms: C_12  and  C_13
REMARK   11  A    between atoms: C_16  and  C_17
REMARK   12  A    between atoms: C_27  and  O_29
REMARK                            x       y       z     vdW  Elec       q    Type
REMARK                         _______ _______ _______ _____ _____    ______ ____
ROOT
ATOM      1  C   UNL     1       3.804   6.140  17.787  0.00  0.00    +0.000 A 
ATOM      2  C   UNL     1       3.397   5.771  19.076  0.00  0.00    +0.000 A 
ATOM      3  C   UNL     1       2.527   6.587  19.801  0.00  0.00    +0.000 A 
ATOM      4  C   UNL     1       2.071   7.787  19.258  0.00  0.00    +0.000 A 
ATOM      5  C   UNL     1       2.539   8.201  18.016  0.00  0.00    +0.000 A 
ATOM      6  C   UNL     1       3.432   7.400  17.306  0.00  0.00    +0.000 A 
ENDROOT
BRANCH   1   7
ATOM      7  C   UNL     1       4.566   5.143  16.938  0.00  0.00    +0.000 C 
BRANCH   7   8
ATOM      8  C   UNL     1       6.071   5.423  16.741  0.00  0.00    +0.000 C 
BRANCH   8   9
ATOM      9  C   UNL     1       6.542   4.881  15.381  0.00  0.00    +0.000 C 
ATOM     10  O   UNL     1       7.566   5.220  14.807  0.00  0.00    +0.000 OA
BRANCH   9  11
ATOM     11  O   UNL     1       5.674   3.970  14.865  0.00  0.00    +0.000 OA
ATOM     12  H   UNL     1       4.769   4.358  14.935  0.00  0.00    +0.000 HD
ENDBRANCH   9  11
ENDBRANCH   8   9
BRANCH   8  13
ATOM     13  O   UNL     1       6.463   6.813  16.791  0.00  0.00    +0.000 OA
BRANCH  13  15
ATOM     14  C   UNL     1       7.784   6.173  18.770  0.00  0.00    +0.000 C 
ATOM     15  C   UNL     1       7.067   7.279  18.003  0.00  0.00    +0.000 C 
ATOM     16  C   UNL     1       8.072   8.354  17.593  0.00  0.00    +0.000 C 
ENDBRANCH  13  15
ENDBRANCH   8  13
ENDBRANCH   7   8
ENDBRANCH   1   7
BRANCH   4  17
ATOM     17  O   UNL     1       1.151   8.448  20.014  0.00  0.00    +0.000 OA
BRANCH  17  18
ATOM     18  C   UNL     1       1.441   9.815  20.322  0.00  0.00    +0.000 C 
BRANCH  18  19
ATOM     19  C   UNL     1       0.584  10.263  21.447  0.00  0.00    +0.000 A 
ATOM     20  N   UNL     1       0.620   9.711  22.667  0.00  0.00    +0.000 NA
ATOM     21  O   UNL     1      -0.257  10.518  23.399  0.00  0.00    +0.000 OA
ATOM     22  C   UNL     1      -0.736  11.463  22.534  0.00  0.00    +0.000 A 
ATOM     23  N   UNL     1      -0.270  11.328  21.312  0.00  0.00    +0.000 NA
BRANCH  22  24
ATOM     24  C   UNL     1      -1.646  12.468  23.059  0.00  0.00    +0.000 A 
ATOM     25  C   UNL     1      -2.972  12.168  23.402  0.00  0.00    +0.000 A 
ATOM     26  C   UNL     1      -3.812  13.158  23.919  0.00  0.00    +0.000 A 
ATOM     27  C   UNL     1      -3.334  14.455  24.099  0.00  0.00    +0.000 A 
ATOM     28 CL   UNL     1      -4.369  15.670  24.740  0.00  0.00    +0.000 Cl
ATOM     29  C   UNL     1      -2.021  14.772  23.763  0.00  0.00    +0.000 A 
ATOM     30  C   UNL     1      -1.182  13.781  23.247  0.00  0.00    +0.000 A 
ENDBRANCH  22  24
ENDBRANCH  18  19
ENDBRANCH  17  18
ENDBRANCH   4  17
TORSDOF 10
ENDMDL
MODEL 7
REMARK VINA RESULT:      -7.1      5.115      6.945
REMARK  Name = 
REMARK  12 active torsions:
REMARK  status: ('A' for Active; 'I' for Inactive)
REMARK    1  A    between atoms: C_1  and  C_2
REMARK    2  A    between atoms: C_2  and  C_3
REMARK    3  A    between atoms: C_2  and  O_4
REMARK    4  A    between atoms: O_4  and  C_5
REMARK    5  A    between atoms: C_5  and  C_6
REMARK    6  A    between atoms: C_5  and  C_27
REMARK    7  A    between atoms: C_6  and  C_7
REMARK    8  A    between atoms: C_10  and  O_11
REMARK    9  A    between atoms: O_11  and  C_12
REMARK   10  A    between atoms: C_12  and  C_13
REMARK   11  A    between atoms: C_16  and  C_17
REMARK   12  A    between atoms: C_27  and  O_29
REMARK                            x       y       z     vdW  Elec       q    Type
REMARK                         _______ _______ _______ _____ _____    ______ ____
ROOT
ATOM      1  C   UNL     1       2.647   6.601  18.493  0.00  0.00    +0.000 A 
ATOM      2  C   UNL     1       2.356   7.738  17.727  0.00  0.00    +0.000 A 
ATOM      3  C   UNL     1       1.832   8.880  18.333  0.00  0.00    +0.000 A 
ATOM      4  C   UNL     1       1.575   8.895  19.703  0.00  0.00    +0.000 A 
ATOM      5  C   UNL     1       1.779   7.742  20.453  0.00  0.00    +0.000 A 
ATOM      6  C   UNL     1       2.273   6.592  19.841  0.00  0.00    +0.000 A 
ENDROOT
BRANCH   1   7
ATOM      7  C   UNL     1       3.414   5.459  17.859  0.00  0.00    +0.000 C 
BRANCH   7   8
ATOM      8  C   UNL     1       4.520   4.816  18.722  0.00  0.00    +0.000 C 
BRANCH   8   9
ATOM      9  C   UNL     1       4.199   3.335  18.987  0.00  0.00    +0.000 C 
ATOM     10  O   UNL     1       3.198   2.753  18.598  0.00  0.00    +0.000 OA
BRANCH   9  11
ATOM     11  O   UNL     1       5.165   2.728  19.728  0.00  0.00    +0.000 OA
ATOM     12  H   UNL     1       4.711   2.117  20.355  0.00  0.00    +0.000 HD
ENDBRANCH   9  11
ENDBRANCH   8   9
BRANCH   8  13
ATOM     13  O   UNL     1       5.854   4.858  18.169  0.00  0.00    +0.000 OA
BRANCH  13  15
ATOM     14  C   UNL     1       7.864   5.662  19.346  0.00  0.00    +0.000 C 
ATOM     15  C   UNL     1       6.655   6.002  18.482  0.00  0.00    +0.000 C 
ATOM     16  C   UNL     1       7.125   6.573  17.144  0.00  0.00    +0.000 C 
ENDBRANCH  13  15
ENDBRANCH   8  13
ENDBRANCH   7   8
ENDBRANCH   1   7
BRANCH   4  17
ATOM     17  O   UNL     1       1.159  10.094  20.198  0.00  0.00    +0.000 OA
BRANCH  17  18
ATOM     18  C   UNL     1       0.759  10.114  21.571  0.00  0.00    +0.000 C 
BRANCH  18  19
ATOM     19  C   UNL     1      -0.240  11.190  21.782  0.00  0.00    +0.000 A 
ATOM     20  N   UNL     1      -0.113  12.425  21.276  0.00  0.00    +0.000 NA
ATOM     21  O   UNL     1      -1.320  13.033  21.635  0.00  0.00    +0.000 OA
ATOM     22  C   UNL     1      -2.039  12.100  22.331  0.00  0.00    +0.000 A 
ATOM     23  N   UNL     1      -1.402  10.959  22.473  0.00  0.00    +0.000 NA
BRANCH  22  24
ATOM     24  C   UNL     1      -3.369  12.467  22.787  0.00  0.00    +0.000 A 
ATOM     25  C   UNL     1      -4.335  12.999  21.920  0.00  0.00    +0.000 A 
ATOM     26  C   UNL     1      -5.610  13.326  22.393  0.00  0.00    +0.000 A 
ATOM     27  C   UNL     1      -5.929  13.123  23.734  0.00  0.00    +0.000 A 
ATOM     28 CL   UNL     1      -7.499  13.522  24.311  0.00  0.00    +0.000 Cl
ATOM     29  C   UNL     1      -4.983  12.598  24.610  0.00  0.00    +0.000 A 
ATOM     30  C   UNL     1      -3.710  12.271  24.136  0.00  0.00    +0.000 A 
ENDBRANCH  22  24
ENDBRANCH  18  19
ENDBRANCH  17  18
ENDBRANCH   4  17
TORSDOF 10
ENDMDL
MODEL 8
REMARK VINA RESULT:      -7.1      2.963      4.795
REMARK  Name = 
REMARK  12 active torsions:
REMARK  status: ('A' for Active; 'I' for Inactive)
REMARK    1  A    between atoms: C_1  and  C_2
REMARK    2  A    between atoms: C_2  and  C_3
REMARK    3  A    between atoms: C_2  and  O_4
REMARK    4  A    between atoms: O_4  and  C_5
REMARK    5  A    between atoms: C_5  and  C_6
REMARK    6  A    between atoms: C_5  and  C_27
REMARK    7  A    between atoms: C_6  and  C_7
REMARK    8  A    between atoms: C_10  and  O_11
REMARK    9  A    between atoms: O_11  and  C_12
REMARK   10  A    between atoms: C_12  and  C_13
REMARK   11  A    between atoms: C_16  and  C_17
REMARK   12  A    between atoms: C_27  and  O_29
REMARK                            x       y       z     vdW  Elec       q    Type
REMARK                         _______ _______ _______ _____ _____    ______ ____
ROOT
ATOM      1  C   UNL     1       6.226   4.701  15.626  0.00  0.00    +0.000 A 
ATOM      2  C   UNL     1       6.436   4.235  16.931  0.00  0.00    +0.000 A 
ATOM      3  C   UNL     1       5.763   4.818  18.004  0.00  0.00    +0.000 A 
ATOM      4  C   UNL     1       4.890   5.884  17.792  0.00  0.00    +0.000 A 
ATOM      5  C   UNL     1       4.743   6.408  16.513  0.00  0.00    +0.000 A 
ATOM      6  C   UNL     1       5.440   5.844  15.445  0.00  0.00    +0.000 A 
ENDROOT
BRANCH   1   7
ATOM      7  C   UNL     1       6.793   3.917  14.461  0.00  0.00    +0.000 C 
BRANCH   7   8
ATOM      8  C   UNL     1       6.615   4.546  13.063  0.00  0.00    +0.000 C 
BRANCH   8   9
ATOM      9  C   UNL     1       7.793   5.482  12.743  0.00  0.00    +0.000 C 
ATOM     10  O   UNL     1       8.644   5.839  13.544  0.00  0.00    +0.000 OA
BRANCH   9  11
ATOM     11  O   UNL     1       7.781   5.892  11.446  0.00  0.00    +0.000 OA
ATOM     12  H   UNL     1       8.721   5.982  11.160  0.00  0.00    +0.000 HD
ENDBRANCH   9  11
ENDBRANCH   8   9
BRANCH   8  13
ATOM     13  O   UNL     1       6.517   3.615  11.962  0.00  0.00    +0.000 OA
BRANCH  13  15
ATOM     14  C   UNL     1       4.189   3.269  11.229  0.00  0.00    +0.000 C 
ATOM     15  C   UNL     1       5.404   2.714  11.966  0.00  0.00    +0.000 C 
ATOM     16  C   UNL     1       5.885   1.439  11.275  0.00  0.00    +0.000 C 
ENDBRANCH  13  15
ENDBRANCH   8  13
ENDBRANCH   7   8
ENDBRANCH   1   7
BRANCH   4  17
ATOM     17  O   UNL     1       4.216   6.306  18.899  0.00  0.00    +0.000 OA
BRANCH  17  18
ATOM     18  C   UNL     1       2.790   6.196  18.858  0.00  0.00    +0.000 C 
BRANCH  18  19
ATOM     19  C   UNL     1       2.184   7.537  19.044  0.00  0.00    +0.000 A 
ATOM     20  N   UNL     1       2.029   8.422  18.050  0.00  0.00    +0.000 NA
ATOM     21  O   UNL     1       1.329   9.463  18.668  0.00  0.00    +0.000 OA
ATOM     22  C   UNL     1       1.149   9.096  19.973  0.00  0.00    +0.000 A 
ATOM     23  N   UNL     1       1.684   7.931  20.260  0.00  0.00    +0.000 NA
BRANCH  22  24
ATOM     24  C   UNL     1       0.400   9.996  20.836  0.00  0.00    +0.000 A 
ATOM     25  C   UNL     1       0.085  11.307  20.452  0.00  0.00    +0.000 A 
ATOM     26  C   UNL     1      -0.651  12.138  21.303  0.00  0.00    +0.000 A 
ATOM     27  C   UNL     1      -1.078  11.663  22.542  0.00  0.00    +0.000 A 
ATOM     28 CL   UNL     1      -1.986  12.687  23.584  0.00  0.00    +0.000 Cl
ATOM     29  C   UNL     1      -0.773  10.365  22.941  0.00  0.00    +0.000 A 
ATOM     30  C   UNL     1      -0.039   9.536  22.089  0.00  0.00    +0.000 A 
ENDBRANCH  22  24
ENDBRANCH  18  19
ENDBRANCH  17  18
ENDBRANCH   4  17
TORSDOF 10
ENDMDL
MODEL 9
REMARK VINA RESULT:      -7.0      4.138      5.830
REMARK  Name = 
REMARK  12 active torsions:
REMARK  status: ('A' for Active; 'I' for Inactive)
REMARK    1  A    between atoms: C_1  and  C_2
REMARK    2  A    between atoms: C_2  and  C_3
REMARK    3  A    between atoms: C_2  and  O_4
REMARK    4  A    between atoms: O_4  and  C_5
REMARK    5  A    between atoms: C_5  and  C_6
REMARK    6  A    between atoms: C_5  and  C_27
REMARK    7  A    between atoms: C_6  and  C_7
REMARK    8  A    between atoms: C_10  and  O_11
REMARK    9  A    between atoms: O_11  and  C_12
REMARK   10  A    between atoms: C_12  and  C_13
REMARK   11  A    between atoms: C_16  and  C_17
REMARK   12  A    between atoms: C_27  and  O_29
REMARK                            x       y       z     vdW  Elec       q    Type
REMARK                         _______ _______ _______ _____ _____    ______ ____
ROOT
ATOM      1  C   UNL     1       3.797   5.209  18.632  0.00  0.00    +0.000 A 
ATOM      2  C   UNL     1       3.606   6.338  17.823  0.00  0.00    +0.000 A 
ATOM      3  C   UNL     1       2.785   7.381  18.252  0.00  0.00    +0.000 A 
ATOM      4  C   UNL     1       2.130   7.302  19.480  0.00  0.00    +0.000 A 
ATOM      5  C   UNL     1       2.245   6.148  20.247  0.00  0.00    +0.000 A 
ATOM      6  C   UNL     1       3.041   5.093  19.803  0.00  0.00    +0.000 A 
ENDROOT
BRANCH   1   7
ATOM      7  C   UNL     1       4.856   4.195  18.249  0.00  0.00    +0.000 C 
BRANCH   7   8
ATOM      8  C   UNL     1       6.036   4.725  17.407  0.00  0.00    +0.000 C 
BRANCH   8   9
ATOM      9  C   UNL     1       7.320   4.771  18.253  0.00  0.00    +0.000 C 
ATOM     10  O   UNL     1       7.454   5.401  19.291  0.00  0.00    +0.000 OA
BRANCH   9  11
ATOM     11  O   UNL     1       8.318   4.028  17.705  0.00  0.00    +0.000 OA
ATOM     12  H   UNL     1       8.706   4.557  16.968  0.00  0.00    +0.000 HD
ENDBRANCH   9  11
ENDBRANCH   8   9
BRANCH   8  13
ATOM     13  O   UNL     1       6.350   3.967  16.218  0.00  0.00    +0.000 OA
BRANCH  13  15
ATOM     14  C   UNL     1       6.144   3.851  13.765  0.00  0.00    +0.000 C 
ATOM     15  C   UNL     1       6.474   4.695  14.992  0.00  0.00    +0.000 C 
ATOM     16  C   UNL     1       5.494   5.864  15.089  0.00  0.00    +0.000 C 
ENDBRANCH  13  15
ENDBRANCH   8  13
ENDBRANCH   7   8
ENDBRANCH   1   7
BRANCH   4  17
ATOM     17  O   UNL     1       1.438   8.420  19.836  0.00  0.00    +0.000 OA
BRANCH  17  18
ATOM     18  C   UNL     1       1.424   9.491  18.888  0.00  0.00    +0.000 C 
BRANCH  18  19
ATOM     19  C   UNL     1       1.101  10.762  19.580  0.00  0.00    +0.000 A 
ATOM     20  N   UNL     1       1.509  11.963  19.147  0.00  0.00    +0.000 NA
ATOM     21  O   UNL     1       0.881  12.843  20.034  0.00  0.00    +0.000 OA
ATOM     22  C   UNL     1       0.173  12.073  20.916  0.00  0.00    +0.000 A 
ATOM     23  N   UNL     1       0.301  10.785  20.694  0.00  0.00    +0.000 NA
BRANCH  22  24
ATOM     24  C   UNL     1      -0.617  12.753  21.930  0.00  0.00    +0.000 A 
ATOM     25  C   UNL     1      -0.351  14.073  22.323  0.00  0.00    +0.000 A 
ATOM     26  C   UNL     1      -1.143  14.698  23.290  0.00  0.00    +0.000 A 
ATOM     27  C   UNL     1      -2.207  14.009  23.872  0.00  0.00    +0.000 A 
ATOM     28 CL   UNL     1      -3.182  14.783  25.059  0.00  0.00    +0.000 Cl
ATOM     29  C   UNL     1      -2.486  12.699  23.495  0.00  0.00    +0.000 A 
ATOM     30  C   UNL     1      -1.694  12.075  22.527  0.00  0.00    +0.000 A 
ENDBRANCH  22  24
ENDBRANCH  18  19
ENDBRANCH  17  18
ENDBRANCH   4  17
TORSDOF 10
ENDMDL
