MODEL 1
REMARK VINA RESULT:      -8.2      0.000      0.000
REMARK  Name = 
REMARK  8 active torsions:
REMARK  status: ('A' for Active; 'I' for Inactive)
REMARK    1  A    between atoms: C_1  and  O_2
REMARK    2  A    between atoms: O_2  and  C_3
REMARK    3  A    between atoms: C_6  and  N_7
REMARK    4  A    between atoms: C_8  and  C_10
REMARK    5  A    between atoms: N_15  and  C_16
REMARK    6  A    between atoms: N_20  and  C_21
REMARK    7  A    between atoms: C_23  and  O_24
REMARK    8  A    between atoms: O_24  and  C_25
REMARK                            x       y       z     vdW  Elec       q    Type
REMARK                         _______ _______ _______ _____ _____    ______ ____
ROOT
ATOM      1  N   UNL     1       3.090   7.202  18.416  0.00  0.00    +0.000 N 
ATOM      2  C   UNL     1       2.427   6.967  19.611  0.00  0.00    +0.000 C 
ATOM      3  O   UNL     1       2.450   5.894  20.208  0.00  0.00    +0.000 OA
ATOM      4  H   UNL     1       2.992   8.118  18.004  0.00  0.00    +0.000 HD
ENDROOT
BRANCH   2   5
ATOM      5  C   UNL     1       1.697   8.106  20.158  0.00  0.00    +0.000 A 
ATOM      6  C   UNL     1       1.359   8.397  21.476  0.00  0.00    +0.000 A 
ATOM      7  C   UNL     1       0.540   9.546  21.476  0.00  0.00    +0.000 A 
ATOM      8  C   UNL     1      -0.166  10.244  22.542  0.00  0.00    +0.000 A 
ATOM      9  O   UNL     1      -0.077   9.890  23.714  0.00  0.00    +0.000 OA
ATOM     10  N   UNL     1      -0.950  11.328  22.087  0.00  0.00    +0.000 N 
ATOM     11  C   UNL     1      -1.739  12.070  23.055  0.00  0.00    +0.000 C 
ATOM     12  C   UNL     1      -1.010  11.716  20.746  0.00  0.00    +0.000 A 
ATOM     13  C   UNL     1      -0.338  11.078  19.764  0.00  0.00    +0.000 A 
ATOM     14  C   UNL     1       0.426   9.969  20.173  0.00  0.00    +0.000 A 
ATOM     15  N   UNL     1       1.134   9.119  19.368  0.00  0.00    +0.000 N 
ATOM     16  C   UNL     1       1.287   9.209  17.928  0.00  0.00    +0.000 C 
ENDBRANCH   2   5
BRANCH   1  20
ATOM     17  C   UNL     1       5.662   4.576  16.301  0.00  0.00    +0.000 A 
ATOM     18  C   UNL     1       4.382   4.157  16.679  0.00  0.00    +0.000 A 
ATOM     19  C   UNL     1       3.517   5.012  17.359  0.00  0.00    +0.000 A 
ATOM     20  C   UNL     1       3.923   6.291  17.728  0.00  0.00    +0.000 A 
ATOM     21  C   UNL     1       5.228   6.687  17.413  0.00  0.00    +0.000 A 
ATOM     22  C   UNL     1       6.112   5.839  16.715  0.00  0.00    +0.000 A 
BRANCH  17  24
ATOM     23  C   UNL     1       6.387   3.965  14.137  0.00  0.00    +0.000 C 
ATOM     24  O   UNL     1       6.469   3.763  15.550  0.00  0.00    +0.000 OA
ENDBRANCH  17  24
BRANCH  22  25
ATOM     25  O   UNL     1       7.340   6.416  16.526  0.00  0.00    +0.000 OA
ATOM     26  C   UNL     1       7.756   7.453  17.401  0.00  0.00    +0.000 C 
ENDBRANCH  22  25
ENDBRANCH   1  20
TORSDOF 4
ENDMDL
MODEL 2
REMARK VINA RESULT:      -7.8      0.969      2.006
REMARK  Name = 
REMARK  8 active torsions:
REMARK  status: ('A' for Active; 'I' for Inactive)
REMARK    1  A    between atoms: C_1  and  O_2
REMARK    2  A    between atoms: O_2  and  C_3
REMARK    3  A    between atoms: C_6  and  N_7
REMARK    4  A    between atoms: C_8  and  C_10
REMARK    5  A    between atoms: N_15  and  C_16
REMARK    6  A    between atoms: N_20  and  C_21
REMARK    7  A    between atoms: C_23  and  O_24
REMARK    8  A    between atoms: O_24  and  C_25
REMARK                            x       y       z     vdW  Elec       q    Type
REMARK                         _______ _______ _______ _____ _____    ______ ____
ROOT
ATOM      1  N   UNL     1       2.910   7.309  18.298  0.00  0.00    +0.000 N 
ATOM      2  C   UNL     1       2.336   7.071  19.538  0.00  0.00    +0.000 C 
ATOM      3  O   UNL     1       2.415   6.002  20.136  0.00  0.00    +0.000 OA
ATOM      4  H   UNL     1       2.771   8.221  17.890  0.00  0.00    +0.000 HD
ENDROOT
BRANCH   2   5
ATOM      5  C   UNL     1       1.631   8.204  20.130  0.00  0.00    +0.000 A 
ATOM      6  C   UNL     1       1.317   8.460  21.462  0.00  0.00    +0.000 A 
ATOM      7  C   UNL     1       0.516   9.620  21.508  0.00  0.00    +0.000 A 
ATOM      8  C   UNL     1      -0.164  10.296  22.605  0.00  0.00    +0.000 A 
ATOM      9  O   UNL     1      -0.063   9.904  23.764  0.00  0.00    +0.000 OA
ATOM     10  N   UNL     1      -0.939  11.404  22.196  0.00  0.00    +0.000 N 
ATOM     11  C   UNL     1      -1.702  12.128  23.197  0.00  0.00    +0.000 C 
ATOM     12  C   UNL     1      -1.012  11.834  20.868  0.00  0.00    +0.000 A 
ATOM     13  C   UNL     1      -0.364  11.216  19.857  0.00  0.00    +0.000 A 
ATOM     14  C   UNL     1       0.389  10.084  20.220  0.00  0.00    +0.000 A 
ATOM     15  N   UNL     1       1.072   9.249  19.379  0.00  0.00    +0.000 N 
ATOM     16  C   UNL     1       1.205   9.379  17.941  0.00  0.00    +0.000 C 
ENDBRANCH   2   5
BRANCH   1  20
ATOM     17  C   UNL     1       5.272   4.498  16.176  0.00  0.00    +0.000 A 
ATOM     18  C   UNL     1       5.438   5.868  15.955  0.00  0.00    +0.000 A 
ATOM     19  C   UNL     1       4.683   6.807  16.656  0.00  0.00    +0.000 A 
ATOM     20  C   UNL     1       3.704   6.404  17.557  0.00  0.00    +0.000 A 
ATOM     21  C   UNL     1       3.486   5.032  17.728  0.00  0.00    +0.000 A 
ATOM     22  C   UNL     1       4.249   4.069  17.036  0.00  0.00    +0.000 A 
BRANCH  17  24
ATOM     23  C   UNL     1       6.336   3.846  14.170  0.00  0.00    +0.000 C 
ATOM     24  O   UNL     1       6.083   3.587  15.553  0.00  0.00    +0.000 OA
ENDBRANCH  17  24
BRANCH  22  25
ATOM     25  O   UNL     1       3.862   2.790  17.337  0.00  0.00    +0.000 OA
ATOM     26  C   UNL     1       2.510   2.545  17.692  0.00  0.00    +0.000 C 
ENDBRANCH  22  25
ENDBRANCH   1  20
TORSDOF 4
ENDMDL
MODEL 3
REMARK VINA RESULT:      -7.7      1.387      1.919
REMARK  Name = 
REMARK  8 active torsions:
REMARK  status: ('A' for Active; 'I' for Inactive)
REMARK    1  A    between atoms: C_1  and  O_2
REMARK    2  A    between atoms: O_2  and  C_3
REMARK    3  A    between atoms: C_6  and  N_7
REMARK    4  A    between atoms: C_8  and  C_10
REMARK    5  A    between atoms: N_15  and  C_16
REMARK    6  A    between atoms: N_20  and  C_21
REMARK    7  A    between atoms: C_23  and  O_24
REMARK    8  A    between atoms: O_24  and  C_25
REMARK                            x       y       z     vdW  Elec       q    Type
REMARK                         _______ _______ _______ _____ _____    ______ ____
ROOT
ATOM      1  N   UNL     1       3.158   7.098  18.692  0.00  0.00    +0.000 N 
ATOM      2  C   UNL     1       2.416   8.171  18.222  0.00  0.00    +0.000 C 
ATOM      3  O   UNL     1       2.431   8.556  17.056  0.00  0.00    +0.000 OA
ATOM      4  H   UNL     1       3.081   6.875  19.673  0.00  0.00    +0.000 HD
ENDROOT
BRANCH   2   5
ATOM      5  C   UNL     1       1.567   8.827  19.210  0.00  0.00    +0.000 A 
ATOM      6  C   UNL     1       1.003  10.100  19.195  0.00  0.00    +0.000 A 
ATOM      7  C   UNL     1       0.371  10.315  20.438  0.00  0.00    +0.000 A 
ATOM      8  C   UNL     1      -0.297  11.477  21.008  0.00  0.00    +0.000 A 
ATOM      9  O   UNL     1      -0.441  12.515  20.369  0.00  0.00    +0.000 OA
ATOM     10  N   UNL     1      -0.730  11.286  22.339  0.00  0.00    +0.000 N 
ATOM     11  C   UNL     1      -1.367  12.394  23.030  0.00  0.00    +0.000 C 
ATOM     12  C   UNL     1      -0.568  10.081  23.028  0.00  0.00    +0.000 A 
ATOM     13  C   UNL     1       0.035   9.000  22.489  0.00  0.00    +0.000 A 
ATOM     14  C   UNL     1       0.514   9.163  21.176  0.00  0.00    +0.000 A 
ATOM     15  N   UNL     1       1.218   8.250  20.440  0.00  0.00    +0.000 N 
ATOM     16  C   UNL     1       1.579   6.903  20.838  0.00  0.00    +0.000 C 
ENDBRANCH   2   5
BRANCH   1  20
ATOM     17  C   UNL     1       5.731   4.687  16.335  0.00  0.00    +0.000 A 
ATOM     18  C   UNL     1       4.466   4.218  16.703  0.00  0.00    +0.000 A 
ATOM     19  C   UNL     1       3.600   5.003  17.462  0.00  0.00    +0.000 A 
ATOM     20  C   UNL     1       3.992   6.256  17.921  0.00  0.00    +0.000 A 
ATOM     21  C   UNL     1       5.284   6.699  17.614  0.00  0.00    +0.000 A 
ATOM     22  C   UNL     1       6.168   5.923  16.837  0.00  0.00    +0.000 A 
BRANCH  17  24
ATOM     23  C   UNL     1       6.161   3.956  14.131  0.00  0.00    +0.000 C 
ATOM     24  O   UNL     1       6.536   3.948  15.510  0.00  0.00    +0.000 OA
ENDBRANCH  17  24
BRANCH  22  25
ATOM     25  O   UNL     1       7.382   6.534  16.670  0.00  0.00    +0.000 OA
ATOM     26  C   UNL     1       7.725   7.626  17.510  0.00  0.00    +0.000 C 
ENDBRANCH  22  25
ENDBRANCH   1  20
TORSDOF 4
ENDMDL
MODEL 4
REMARK VINA RESULT:      -7.6      2.508      4.488
REMARK  Name = 
REMARK  8 active torsions:
REMARK  status: ('A' for Active; 'I' for Inactive)
REMARK    1  A    between atoms: C_1  and  O_2
REMARK    2  A    between atoms: O_2  and  C_3
REMARK    3  A    between atoms: C_6  and  N_7
REMARK    4  A    between atoms: C_8  and  C_10
REMARK    5  A    between atoms: N_15  and  C_16
REMARK    6  A    between atoms: N_20  and  C_21
REMARK    7  A    between atoms: C_23  and  O_24
REMARK    8  A    between atoms: O_24  and  C_25
REMARK                            x       y       z     vdW  Elec       q    Type
REMARK                         _______ _______ _______ _____ _____    ______ ____
ROOT
ATOM      1  N   UNL     1       0.614   8.982  20.729  0.00  0.00    +0.000 N 
ATOM      2  C   UNL     1       0.875   9.691  21.891  0.00  0.00    +0.000 C 
ATOM      3  O   UNL     1       1.839   9.479  22.621  0.00  0.00    +0.000 OA
ATOM      4  H   UNL     1      -0.216   9.229  20.211  0.00  0.00    +0.000 HD
ENDROOT
BRANCH   2   5
ATOM      5  C   UNL     1      -0.073  10.757  22.202  0.00  0.00    +0.000 A 
ATOM      6  C   UNL     1      -1.196  10.737  23.023  0.00  0.00    +0.000 A 
ATOM      7  C   UNL     1      -1.855  11.978  22.895  0.00  0.00    +0.000 A 
ATOM      8  C   UNL     1      -3.108  12.481  23.442  0.00  0.00    +0.000 A 
ATOM      9  O   UNL     1      -3.790  11.811  24.211  0.00  0.00    +0.000 OA
ATOM     10  N   UNL     1      -3.443  13.778  22.991  0.00  0.00    +0.000 N 
ATOM     11  C   UNL     1      -4.695  14.366  23.433  0.00  0.00    +0.000 C 
ATOM     12  C   UNL     1      -2.628  14.521  22.132  0.00  0.00    +0.000 A 
ATOM     13  C   UNL     1      -1.459  14.056  21.643  0.00  0.00    +0.000 A 
ATOM     14  C   UNL     1      -1.108  12.753  22.040  0.00  0.00    +0.000 A 
ATOM     15  N   UNL     1      -0.019  12.035  21.628  0.00  0.00    +0.000 N 
ATOM     16  C   UNL     1       1.031  12.482  20.732  0.00  0.00    +0.000 C 
ENDBRANCH   2   5
BRANCH   1  20
ATOM     17  C   UNL     1       3.038   5.860  19.192  0.00  0.00    +0.000 A 
ATOM     18  C   UNL     1       2.930   7.072  18.504  0.00  0.00    +0.000 A 
ATOM     19  C   UNL     1       2.152   8.115  19.002  0.00  0.00    +0.000 A 
ATOM     20  C   UNL     1       1.417   7.960  20.174  0.00  0.00    +0.000 A 
ATOM     21  C   UNL     1       1.468   6.723  20.827  0.00  0.00    +0.000 A 
ATOM     22  C   UNL     1       2.260   5.661  20.343  0.00  0.00    +0.000 A 
BRANCH  17  24
ATOM     23  C   UNL     1       5.259   5.065  19.066  0.00  0.00    +0.000 C 
ATOM     24  O   UNL     1       3.879   4.876  18.744  0.00  0.00    +0.000 OA
ENDBRANCH  17  24
BRANCH  22  25
ATOM     25  O   UNL     1       2.151   4.540  21.121  0.00  0.00    +0.000 OA
ATOM     26  C   UNL     1       1.215   3.536  20.757  0.00  0.00    +0.000 C 
ENDBRANCH  22  25
ENDBRANCH   1  20
TORSDOF 4
ENDMDL
MODEL 5
REMARK VINA RESULT:      -7.6      1.861      8.772
REMARK  Name = 
REMARK  8 active torsions:
REMARK  status: ('A' for Active; 'I' for Inactive)
REMARK    1  A    between atoms: C_1  and  O_2
REMARK    2  A    between atoms: O_2  and  C_3
REMARK    3  A    between atoms: C_6  and  N_7
REMARK    4  A    between atoms: C_8  and  C_10
REMARK    5  A    between atoms: N_15  and  C_16
REMARK    6  A    between atoms: N_20  and  C_21
REMARK    7  A    between atoms: C_23  and  O_24
REMARK    8  A    between atoms: O_24  and  C_25
REMARK                            x       y       z     vdW  Elec       q    Type
REMARK                         _______ _______ _______ _____ _____    ______ ____
ROOT
ATOM      1  N   UNL     1       1.912   8.281  19.944  0.00  0.00    +0.000 N 
ATOM      2  C   UNL     1       2.073   6.904  19.988  0.00  0.00    +0.000 C 
ATOM      3  O   UNL     1       1.476   6.170  20.771  0.00  0.00    +0.000 OA
ATOM      4  H   UNL     1       2.464   8.791  19.270  0.00  0.00    +0.000 HD
ENDROOT
BRANCH   2   5
ATOM      5  C   UNL     1       2.999   6.349  19.007  0.00  0.00    +0.000 A 
ATOM      6  C   UNL     1       3.620   6.963  17.922  0.00  0.00    +0.000 A 
ATOM      7  C   UNL     1       4.321   5.974  17.201  0.00  0.00    +0.000 A 
ATOM      8  C   UNL     1       5.069   6.020  15.952  0.00  0.00    +0.000 A 
ATOM      9  O   UNL     1       5.230   7.069  15.336  0.00  0.00    +0.000 OA
ATOM     10  N   UNL     1       5.558   4.761  15.537  0.00  0.00    +0.000 N 
ATOM     11  C   UNL     1       6.279   4.674  14.279  0.00  0.00    +0.000 C 
ATOM     12  C   UNL     1       5.375   3.590  16.278  0.00  0.00    +0.000 A 
ATOM     13  C   UNL     1       4.697   3.556  17.446  0.00  0.00    +0.000 A 
ATOM     14  C   UNL     1       4.162   4.785  17.874  0.00  0.00    +0.000 A 
ATOM     15  N   UNL     1       3.381   5.000  18.976  0.00  0.00    +0.000 N 
ATOM     16  C   UNL     1       2.978   4.017  19.963  0.00  0.00    +0.000 C 
ENDBRANCH   2   5
BRANCH   1  20
ATOM     17  C   UNL     1      -0.763  10.670  22.208  0.00  0.00    +0.000 A 
ATOM     18  C   UNL     1       0.060   9.736  22.844  0.00  0.00    +0.000 A 
ATOM     19  C   UNL     1       0.957   8.954  22.119  0.00  0.00    +0.000 A 
ATOM     20  C   UNL     1       1.022   9.045  20.732  0.00  0.00    +0.000 A 
ATOM     21  C   UNL     1       0.150   9.929  20.086  0.00  0.00    +0.000 A 
ATOM     22  C   UNL     1      -0.756  10.735  20.806  0.00  0.00    +0.000 A 
BRANCH  17  24
ATOM     23  C   UNL     1      -1.142  12.861  23.004  0.00  0.00    +0.000 C 
ATOM     24  O   UNL     1      -1.571  11.500  22.938  0.00  0.00    +0.000 OA
ENDBRANCH  17  24
BRANCH  22  25
ATOM     25  O   UNL     1      -1.524  11.513  19.980  0.00  0.00    +0.000 OA
ATOM     26  C   UNL     1      -1.000  11.908  18.721  0.00  0.00    +0.000 C 
ENDBRANCH  22  25
ENDBRANCH   1  20
TORSDOF 4
ENDMDL
MODEL 6
REMARK VINA RESULT:      -7.6      2.299      8.847
REMARK  Name = 
REMARK  8 active torsions:
REMARK  status: ('A' for Active; 'I' for Inactive)
REMARK    1  A    between atoms: C_1  and  O_2
REMARK    2  A    between atoms: O_2  and  C_3
REMARK    3  A    between atoms: C_6  and  N_7
REMARK    4  A    between atoms: C_8  and  C_10
REMARK    5  A    between atoms: N_15  and  C_16
REMARK    6  A    between atoms: N_20  and  C_21
REMARK    7  A    between atoms: C_23  and  O_24
REMARK    8  A    between atoms: O_24  and  C_25
REMARK                            x       y       z     vdW  Elec       q    Type
REMARK                         _______ _______ _______ _____ _____    ______ ____
ROOT
ATOM      1  N   UNL     1       1.413   9.170  18.847  0.00  0.00    +0.000 N 
ATOM      2  C   UNL     1       1.844   8.051  19.543  0.00  0.00    +0.000 C 
ATOM      3  O   UNL     1       1.512   7.792  20.696  0.00  0.00    +0.000 OA
ATOM      4  H   UNL     1       1.759   9.294  17.907  0.00  0.00    +0.000 HD
ENDROOT
BRANCH   2   5
ATOM      5  C   UNL     1       2.721   7.150  18.801  0.00  0.00    +0.000 A 
ATOM      6  C   UNL     1       3.606   7.426  17.763  0.00  0.00    +0.000 A 
ATOM      7  C   UNL     1       4.127   6.201  17.294  0.00  0.00    +0.000 A 
ATOM      8  C   UNL     1       5.015   5.876  16.186  0.00  0.00    +0.000 A 
ATOM      9  O   UNL     1       5.506   6.749  15.477  0.00  0.00    +0.000 OA
ATOM     10  N   UNL     1       5.227   4.489  16.018  0.00  0.00    +0.000 N 
ATOM     11  C   UNL     1       6.057   4.041  14.913  0.00  0.00    +0.000 C 
ATOM     12  C   UNL     1       4.668   3.524  16.861  0.00  0.00    +0.000 A 
ATOM     13  C   UNL     1       3.861   3.832  17.898  0.00  0.00    +0.000 A 
ATOM     14  C   UNL     1       3.596   5.203  18.076  0.00  0.00    +0.000 A 
ATOM     15  N   UNL     1       2.759   5.763  19.002  0.00  0.00    +0.000 N 
ATOM     16  C   UNL     1       2.005   5.068  20.028  0.00  0.00    +0.000 C 
ENDBRANCH   2   5
BRANCH   1  20
ATOM     17  C   UNL     1      -1.371  12.105  20.119  0.00  0.00    +0.000 A 
ATOM     18  C   UNL     1      -0.167  11.929  20.809  0.00  0.00    +0.000 A 
ATOM     19  C   UNL     1       0.767  10.982  20.395  0.00  0.00    +0.000 A 
ATOM     20  C   UNL     1       0.504  10.147  19.314  0.00  0.00    +0.000 A 
ATOM     21  C   UNL     1      -0.730  10.273  18.666  0.00  0.00    +0.000 A 
ATOM     22  C   UNL     1      -1.681  11.234  19.064  0.00  0.00    +0.000 A 
BRANCH  17  24
ATOM     23  C   UNL     1      -3.159  12.763  21.515  0.00  0.00    +0.000 C 
ATOM     24  O   UNL     1      -2.239  13.103  20.475  0.00  0.00    +0.000 OA
ENDBRANCH  17  24
BRANCH  22  25
ATOM     25  O   UNL     1      -2.822  11.176  18.308  0.00  0.00    +0.000 OA
ATOM     26  C   UNL     1      -2.712  11.159  16.893  0.00  0.00    +0.000 C 
ENDBRANCH  22  25
ENDBRANCH   1  20
TORSDOF 4
ENDMDL
MODEL 7
REMARK VINA RESULT:      -7.6      1.104      1.199
REMARK  Name = 
REMARK  8 active torsions:
REMARK  status: ('A' for Active; 'I' for Inactive)
REMARK    1  A    between atoms: C_1  and  O_2
REMARK    2  A    between atoms: O_2  and  C_3
REMARK    3  A    between atoms: C_6  and  N_7
REMARK    4  A    between atoms: C_8  and  C_10
REMARK    5  A    between atoms: N_15  and  C_16
REMARK    6  A    between atoms: N_20  and  C_21
REMARK    7  A    between atoms: C_23  and  O_24
REMARK    8  A    between atoms: O_24  and  C_25
REMARK                            x       y       z     vdW  Elec       q    Type
REMARK                         _______ _______ _______ _____ _____    ______ ____
ROOT
ATOM      1  N   UNL     1       3.609   7.610  18.220  0.00  0.00    +0.000 N 
ATOM      2  C   UNL     1       2.571   7.126  19.002  0.00  0.00    +0.000 C 
ATOM      3  O   UNL     1       2.297   5.935  19.116  0.00  0.00    +0.000 OA
ATOM      4  H   UNL     1       3.738   8.610  18.187  0.00  0.00    +0.000 HD
ENDROOT
BRANCH   2   5
ATOM      5  C   UNL     1       1.810   8.137  19.730  0.00  0.00    +0.000 A 
ATOM      6  C   UNL     1       1.488   8.206  21.082  0.00  0.00    +0.000 A 
ATOM      7  C   UNL     1       0.628   9.309  21.272  0.00  0.00    +0.000 A 
ATOM      8  C   UNL     1      -0.082   9.805  22.443  0.00  0.00    +0.000 A 
ATOM      9  O   UNL     1       0.043   9.276  23.544  0.00  0.00    +0.000 OA
ATOM     10  N   UNL     1      -0.914  10.915  22.174  0.00  0.00    +0.000 N 
ATOM     11  C   UNL     1      -1.710  11.466  23.256  0.00  0.00    +0.000 C 
ATOM     12  C   UNL     1      -1.013  11.504  20.910  0.00  0.00    +0.000 A 
ATOM     13  C   UNL     1      -0.338  11.052  19.832  0.00  0.00    +0.000 A 
ATOM     14  C   UNL     1       0.474   9.924  20.052  0.00  0.00    +0.000 A 
ATOM     15  N   UNL     1       1.196   9.238  19.115  0.00  0.00    +0.000 N 
ATOM     16  C   UNL     1       1.318   9.556  17.705  0.00  0.00    +0.000 C 
ENDBRANCH   2   5
BRANCH   1  20
ATOM     17  C   UNL     1       6.477   5.300  16.116  0.00  0.00    +0.000 A 
ATOM     18  C   UNL     1       5.425   5.914  15.430  0.00  0.00    +0.000 A 
ATOM     19  C   UNL     1       4.483   6.691  16.102  0.00  0.00    +0.000 A 
ATOM     20  C   UNL     1       4.533   6.834  17.485  0.00  0.00    +0.000 A 
ATOM     21  C   UNL     1       5.544   6.162  18.182  0.00  0.00    +0.000 A 
ATOM     22  C   UNL     1       6.512   5.382  17.517  0.00  0.00    +0.000 A 
BRANCH  17  24
ATOM     23  C   UNL     1       7.215   4.463  14.034  0.00  0.00    +0.000 C 
ATOM     24  O   UNL     1       7.450   4.618  15.436  0.00  0.00    +0.000 OA
ENDBRANCH  17  24
BRANCH  22  25
ATOM     25  O   UNL     1       7.395   4.801  18.388  0.00  0.00    +0.000 OA
ATOM     26  C   UNL     1       7.858   5.550  19.502  0.00  0.00    +0.000 C 
ENDBRANCH  22  25
ENDBRANCH   1  20
TORSDOF 4
ENDMDL
MODEL 8
REMARK VINA RESULT:      -7.6      1.964      8.787
REMARK  Name = 
REMARK  8 active torsions:
REMARK  status: ('A' for Active; 'I' for Inactive)
REMARK    1  A    between atoms: C_1  and  O_2
REMARK    2  A    between atoms: O_2  and  C_3
REMARK    3  A    between atoms: C_6  and  N_7
REMARK    4  A    between atoms: C_8  and  C_10
REMARK    5  A    between atoms: N_15  and  C_16
REMARK    6  A    between atoms: N_20  and  C_21
REMARK    7  A    between atoms: C_23  and  O_24
REMARK    8  A    between atoms: O_24  and  C_25
REMARK                            x       y       z     vdW  Elec       q    Type
REMARK                         _______ _______ _______ _____ _____    ______ ____
ROOT
ATOM      1  N   UNL     1       1.512   8.642  20.530  0.00  0.00    +0.000 N 
ATOM      2  C   UNL     1       1.560   8.536  19.148  0.00  0.00    +0.000 C 
ATOM      3  O   UNL     1       0.875   9.212  18.385  0.00  0.00    +0.000 OA
ATOM      4  H   UNL     1       2.108   8.028  21.063  0.00  0.00    +0.000 HD
ENDROOT
BRANCH   2   5
ATOM      5  C   UNL     1       2.517   7.565  18.627  0.00  0.00    +0.000 A 
ATOM      6  C   UNL     1       3.422   7.684  17.576  0.00  0.00    +0.000 A 
ATOM      7  C   UNL     1       4.033   6.427  17.379  0.00  0.00    +0.000 A 
ATOM      8  C   UNL     1       4.979   5.945  16.383  0.00  0.00    +0.000 A 
ATOM      9  O   UNL     1       5.443   6.688  15.523  0.00  0.00    +0.000 OA
ATOM     10  N   UNL     1       5.280   4.570  16.505  0.00  0.00    +0.000 N 
ATOM     11  C   UNL     1       6.176   3.965  15.536  0.00  0.00    +0.000 C 
ATOM     12  C   UNL     1       4.749   3.760  17.512  0.00  0.00    +0.000 A 
ATOM     13  C   UNL     1       3.886   4.216  18.446  0.00  0.00    +0.000 A 
ATOM     14  C   UNL     1       3.533   5.574  18.335  0.00  0.00    +0.000 A 
ATOM     15  N   UNL     1       2.630   6.252  19.106  0.00  0.00    +0.000 N 
ATOM     16  C   UNL     1       1.881   5.729  20.233  0.00  0.00    +0.000 C 
ENDBRANCH   2   5
BRANCH   1  20
ATOM     17  C   UNL     1      -0.748  11.487  22.717  0.00  0.00    +0.000 A 
ATOM     18  C   UNL     1      -0.821  10.129  23.041  0.00  0.00    +0.000 A 
ATOM     19  C   UNL     1      -0.072   9.182  22.345  0.00  0.00    +0.000 A 
ATOM     20  C   UNL     1       0.729   9.556  21.271  0.00  0.00    +0.000 A 
ATOM     21  C   UNL     1       0.749  10.906  20.900  0.00  0.00    +0.000 A 
ATOM     22  C   UNL     1       0.007  11.878  21.601  0.00  0.00    +0.000 A 
BRANCH  17  24
ATOM     23  C   UNL     1      -2.839  12.320  23.436  0.00  0.00    +0.000 C 
ATOM     24  O   UNL     1      -1.413  12.420  23.468  0.00  0.00    +0.000 OA
ENDBRANCH  17  24
BRANCH  22  25
ATOM     25  O   UNL     1       0.156  13.129  21.062  0.00  0.00    +0.000 OA
ATOM     26  C   UNL     1       1.340  13.432  20.340  0.00  0.00    +0.000 C 
ENDBRANCH  22  25
ENDBRANCH   1  20
TORSDOF 4
ENDMDL
MODEL 9
REMARK VINA RESULT:      -7.5      1.698      2.803
REMARK  Name = 
REMARK  8 active torsions:
REMARK  status: ('A' for Active; 'I' for Inactive)
REMARK    1  A    between atoms: C_1  and  O_2
REMARK    2  A    between atoms: O_2  and  C_3
REMARK    3  A    between atoms: C_6  and  N_7
REMARK    4  A    between atoms: C_8  and  C_10
REMARK    5  A    between atoms: N_15  and  C_16
REMARK    6  A    between atoms: N_20  and  C_21
REMARK    7  A    between atoms: C_23  and  O_24
REMARK    8  A    between atoms: O_24  and  C_25
REMARK                            x       y       z     vdW  Elec       q    Type
REMARK                         _______ _______ _______ _____ _____    ______ ____
ROOT
ATOM      1  N   UNL     1       2.784   7.333  18.787  0.00  0.00    +0.000 N 
ATOM      2  C   UNL     1       2.103   8.453  18.336  0.00  0.00    +0.000 C 
ATOM      3  O   UNL     1       2.153   8.866  17.181  0.00  0.00    +0.000 OA
ATOM      4  H   UNL     1       2.684   7.089  19.761  0.00  0.00    +0.000 HD
ENDROOT
BRANCH   2   5
ATOM      5  C   UNL     1       1.273   9.125  19.331  0.00  0.00    +0.000 A 
ATOM      6  C   UNL     1       0.701  10.394  19.303  0.00  0.00    +0.000 A 
ATOM      7  C   UNL     1       0.098  10.631  20.557  0.00  0.00    +0.000 A 
ATOM      8  C   UNL     1      -0.563  11.801  21.118  0.00  0.00    +0.000 A 
ATOM      9  O   UNL     1      -0.729  12.825  20.460  0.00  0.00    +0.000 OA
ATOM     10  N   UNL     1      -0.963  11.636  22.463  0.00  0.00    +0.000 N 
ATOM     11  C   UNL     1      -1.590  12.754  23.145  0.00  0.00    +0.000 C 
ATOM     12  C   UNL     1      -0.777  10.446  23.173  0.00  0.00    +0.000 A 
ATOM     13  C   UNL     1      -0.181   9.357  22.641  0.00  0.00    +0.000 A 
ATOM     14  C   UNL     1       0.266   9.496  21.314  0.00  0.00    +0.000 A 
ATOM     15  N   UNL     1       0.958   8.572  20.581  0.00  0.00    +0.000 N 
ATOM     16  C   UNL     1       1.337   7.235  20.998  0.00  0.00    +0.000 C 
ENDBRANCH   2   5
BRANCH   1  20
ATOM     17  C   UNL     1       5.147   4.638  16.518  0.00  0.00    +0.000 A 
ATOM     18  C   UNL     1       5.476   5.997  16.567  0.00  0.00    +0.000 A 
ATOM     19  C   UNL     1       4.722   6.894  17.321  0.00  0.00    +0.000 A 
ATOM     20  C   UNL     1       3.587   6.471  18.005  0.00  0.00    +0.000 A 
ATOM     21  C   UNL     1       3.214   5.125  17.901  0.00  0.00    +0.000 A 
ATOM     22  C   UNL     1       3.973   4.203  17.152  0.00  0.00    +0.000 A 
BRANCH  17  24
ATOM     23  C   UNL     1       6.036   3.952  14.441  0.00  0.00    +0.000 C 
ATOM     24  O   UNL     1       5.948   3.750  15.853  0.00  0.00    +0.000 OA
ENDBRANCH  17  24
BRANCH  22  25
ATOM     25  O   UNL     1       3.424   2.948  17.170  0.00  0.00    +0.000 OA
ATOM     26  C   UNL     1       3.288   2.272  18.412  0.00  0.00    +0.000 C 
ENDBRANCH  22  25
ENDBRANCH   1  20
TORSDOF 4
ENDMDL
