MODEL 1
REMARK VINA RESULT:      -6.6      0.000      0.000
REMARK  Name = 
REMARK  13 active torsions:
REMARK  status: ('A' for Active; 'I' for Inactive)
REMARK    1  A    between atoms: C_1  and  C_2
REMARK    2  A    between atoms: C_2  and  N_3
REMARK    3  A    between atoms: N_3  and  C_4
REMARK    4  A    between atoms: N_3  and  C_6
REMARK    5  A    between atoms: C_4  and  C_5
REMARK    6  A    between atoms: C_6  and  C_7
REMARK    7  A    between atoms: C_7  and  C_8
REMARK    8  A    between atoms: C_8  and  C_9
REMARK    9  A    between atoms: C_9  and  O_10
REMARK   10  A    between atoms: O_10  and  C_11
REMARK   11  A    between atoms: C_14  and  C_15
REMARK   12  A    between atoms: C_15  and  C_16
REMARK   13  A    between atoms: C_18  and  O_19
REMARK                            x       y       z     vdW  Elec       q    Type
REMARK                         _______ _______ _______ _____ _____    ______ ____
ROOT
ATOM      1  C   UNL     1       4.967   5.449  18.504  0.00  0.00    +0.000 A 
ATOM      2  C   UNL     1       4.328   5.868  17.335  0.00  0.00    +0.000 A 
ATOM      3  C   UNL     1       4.938   5.707  16.084  0.00  0.00    +0.000 A 
ATOM      4  C   UNL     1       6.202   5.114  15.984  0.00  0.00    +0.000 A 
ATOM      5  C   UNL     1       6.833   4.701  17.169  0.00  0.00    +0.000 A 
ATOM      6  C   UNL     1       6.226   4.868  18.415  0.00  0.00    +0.000 A 
ENDROOT
BRANCH   4   7
ATOM      7  C   UNL     1       6.903   4.905  14.676  0.00  0.00    +0.000 C 
ATOM      8  C   UNL     1       6.337   4.008  13.606  0.00  0.00    +0.000 C 
ATOM      9  O   UNL     1       7.970   5.487  14.485  0.00  0.00    +0.000 OA
ENDBRANCH   4   7
BRANCH   5  10
ATOM     10  O   UNL     1       8.071   4.110  17.203  0.00  0.00    +0.000 OA
ATOM     11  H   UNL     1       8.059   3.348  16.579  0.00  0.00    +0.000 HD
ENDBRANCH   5  10
BRANCH   1  12
ATOM     12  O   UNL     1       4.264   5.659  19.656  0.00  0.00    +0.000 OA
BRANCH  12  13
ATOM     13  C   UNL     1       2.934   6.163  19.510  0.00  0.00    +0.000 C 
BRANCH  13  14
ATOM     14  C   UNL     1       2.108   5.717  20.712  0.00  0.00    +0.000 C 
BRANCH  14  15
ATOM     15  C   UNL     1       1.320   4.433  20.447  0.00  0.00    +0.000 C 
BRANCH  15  16
ATOM     16  C   UNL     1       2.108   3.136  20.729  0.00  0.00    +0.000 C 
BRANCH  16  17
ATOM     17  N   UNL     1       2.274   2.257  19.555  0.00  0.00    +0.000 NA
BRANCH  17  19
ATOM     18  C   UNL     1       2.322   3.149  17.180  0.00  0.00    +0.000 C 
ATOM     19  C   UNL     1       1.503   2.766  18.407  0.00  0.00    +0.000 C 
ENDBRANCH  17  19
BRANCH  17  20
ATOM     20  C   UNL     1       3.696   2.014  19.258  0.00  0.00    +0.000 C 
ATOM     21  C   UNL     1       4.654   2.045  20.447  0.00  0.00    +0.000 C 
ENDBRANCH  17  20
ENDBRANCH  16  17
ENDBRANCH  15  16
ENDBRANCH  14  15
ENDBRANCH  13  14
ENDBRANCH  12  13
ENDBRANCH   1  12
TORSDOF 10
ENDMDL
MODEL 2
REMARK VINA RESULT:      -5.7      2.148      3.781
REMARK  Name = 
REMARK  13 active torsions:
REMARK  status: ('A' for Active; 'I' for Inactive)
REMARK    1  A    between atoms: C_1  and  C_2
REMARK    2  A    between atoms: C_2  and  N_3
REMARK    3  A    between atoms: N_3  and  C_4
REMARK    4  A    between atoms: N_3  and  C_6
REMARK    5  A    between atoms: C_4  and  C_5
REMARK    6  A    between atoms: C_6  and  C_7
REMARK    7  A    between atoms: C_7  and  C_8
REMARK    8  A    between atoms: C_8  and  C_9
REMARK    9  A    between atoms: C_9  and  O_10
REMARK   10  A    between atoms: O_10  and  C_11
REMARK   11  A    between atoms: C_14  and  C_15
REMARK   12  A    between atoms: C_15  and  C_16
REMARK   13  A    between atoms: C_18  and  O_19
REMARK                            x       y       z     vdW  Elec       q    Type
REMARK                         _______ _______ _______ _____ _____    ______ ____
ROOT
ATOM      1  C   UNL     1       4.124   3.220  18.283  0.00  0.00    +0.000 A 
ATOM      2  C   UNL     1       5.015   3.823  19.173  0.00  0.00    +0.000 A 
ATOM      3  C   UNL     1       5.978   4.735  18.720  0.00  0.00    +0.000 A 
ATOM      4  C   UNL     1       6.058   5.063  17.361  0.00  0.00    +0.000 A 
ATOM      5  C   UNL     1       5.157   4.444  16.478  0.00  0.00    +0.000 A 
ATOM      6  C   UNL     1       4.203   3.532  16.931  0.00  0.00    +0.000 A 
ENDROOT
BRANCH   4   7
ATOM      7  C   UNL     1       7.058   6.037  16.816  0.00  0.00    +0.000 C 
ATOM      8  C   UNL     1       7.450   7.280  17.571  0.00  0.00    +0.000 C 
ATOM      9  O   UNL     1       7.565   5.802  15.719  0.00  0.00    +0.000 OA
ENDBRANCH   4   7
BRANCH   5  10
ATOM     10  O   UNL     1       5.137   4.681  15.127  0.00  0.00    +0.000 OA
ATOM     11  H   UNL     1       5.989   4.360  14.752  0.00  0.00    +0.000 HD
ENDBRANCH   5  10
BRANCH   1  12
ATOM     12  O   UNL     1       3.233   2.355  18.852  0.00  0.00    +0.000 OA
BRANCH  12  13
ATOM     13  C   UNL     1       2.577   2.803  20.040  0.00  0.00    +0.000 C 
BRANCH  13  14
ATOM     14  C   UNL     1       1.269   3.483  19.648  0.00  0.00    +0.000 C 
BRANCH  14  15
ATOM     15  C   UNL     1       1.069   4.830  20.346  0.00  0.00    +0.000 C 
BRANCH  15  16
ATOM     16  C   UNL     1       2.376   5.604  20.619  0.00  0.00    +0.000 C 
BRANCH  16  17
ATOM     17  N   UNL     1       2.426   6.948  20.011  0.00  0.00    +0.000 NA
BRANCH  17  19
ATOM     18  C   UNL     1       3.424   7.434  17.729  0.00  0.00    +0.000 C 
ATOM     19  C   UNL     1       2.271   6.866  18.547  0.00  0.00    +0.000 C 
ENDBRANCH  17  19
BRANCH  17  20
ATOM     20  C   UNL     1       1.479   7.872  20.659  0.00  0.00    +0.000 C 
ATOM     21  C   UNL     1       1.048   9.087  19.841  0.00  0.00    +0.000 C 
ENDBRANCH  17  20
ENDBRANCH  16  17
ENDBRANCH  15  16
ENDBRANCH  14  15
ENDBRANCH  13  14
ENDBRANCH  12  13
ENDBRANCH   1  12
TORSDOF 10
ENDMDL
MODEL 3
REMARK VINA RESULT:      -5.7      2.035      4.083
REMARK  Name = 
REMARK  13 active torsions:
REMARK  status: ('A' for Active; 'I' for Inactive)
REMARK    1  A    between atoms: C_1  and  C_2
REMARK    2  A    between atoms: C_2  and  N_3
REMARK    3  A    between atoms: N_3  and  C_4
REMARK    4  A    between atoms: N_3  and  C_6
REMARK    5  A    between atoms: C_4  and  C_5
REMARK    6  A    between atoms: C_6  and  C_7
REMARK    7  A    between atoms: C_7  and  C_8
REMARK    8  A    between atoms: C_8  and  C_9
REMARK    9  A    between atoms: C_9  and  O_10
REMARK   10  A    between atoms: O_10  and  C_11
REMARK   11  A    between atoms: C_14  and  C_15
REMARK   12  A    between atoms: C_15  and  C_16
REMARK   13  A    between atoms: C_18  and  O_19
REMARK                            x       y       z     vdW  Elec       q    Type
REMARK                         _______ _______ _______ _____ _____    ______ ____
ROOT
ATOM      1  C   UNL     1       6.927   5.033  15.118  0.00  0.00    +0.000 A 
ATOM      2  C   UNL     1       5.754   4.304  15.325  0.00  0.00    +0.000 A 
ATOM      3  C   UNL     1       5.148   3.602  14.274  0.00  0.00    +0.000 A 
ATOM      4  C   UNL     1       5.715   3.615  12.995  0.00  0.00    +0.000 A 
ATOM      5  C   UNL     1       6.893   4.356  12.802  0.00  0.00    +0.000 A 
ATOM      6  C   UNL     1       7.492   5.059  13.849  0.00  0.00    +0.000 A 
ENDROOT
BRANCH   4   7
ATOM      7  C   UNL     1       5.122   2.878  11.833  0.00  0.00    +0.000 C 
ATOM      8  C   UNL     1       3.868   3.356  11.145  0.00  0.00    +0.000 C 
ATOM      9  O   UNL     1       5.684   1.857  11.439  0.00  0.00    +0.000 OA
ENDBRANCH   4   7
BRANCH   5  10
ATOM     10  O   UNL     1       7.543   4.447  11.597  0.00  0.00    +0.000 OA
ATOM     11  H   UNL     1       7.415   3.596  11.120  0.00  0.00    +0.000 HD
ENDBRANCH   5  10
BRANCH   1  12
ATOM     12  O   UNL     1       7.418   5.667  16.224  0.00  0.00    +0.000 OA
BRANCH  12  13
ATOM     13  C   UNL     1       7.420   4.918  17.441  0.00  0.00    +0.000 C 
BRANCH  13  14
ATOM     14  C   UNL     1       6.872   5.800  18.558  0.00  0.00    +0.000 C 
BRANCH  14  15
ATOM     15  C   UNL     1       5.435   5.443  18.945  0.00  0.00    +0.000 C 
BRANCH  15  16
ATOM     16  C   UNL     1       5.157   3.927  19.024  0.00  0.00    +0.000 C 
BRANCH  16  17
ATOM     17  N   UNL     1       3.870   3.512  18.432  0.00  0.00    +0.000 NA
BRANCH  17  19
ATOM     18  C   UNL     1       2.939   2.790  20.679  0.00  0.00    +0.000 C 
ATOM     19  C   UNL     1       3.248   2.440  19.230  0.00  0.00    +0.000 C 
ENDBRANCH  17  19
BRANCH  17  20
ATOM     20  C   UNL     1       2.987   4.667  18.195  0.00  0.00    +0.000 C 
ATOM     21  C   UNL     1       1.589   4.354  17.666  0.00  0.00    +0.000 C 
ENDBRANCH  17  20
ENDBRANCH  16  17
ENDBRANCH  15  16
ENDBRANCH  14  15
ENDBRANCH  13  14
ENDBRANCH  12  13
ENDBRANCH   1  12
TORSDOF 10
ENDMDL
MODEL 4
REMARK VINA RESULT:      -5.7      1.410      2.285
REMARK  Name = 
REMARK  13 active torsions:
REMARK  status: ('A' for Active; 'I' for Inactive)
REMARK    1  A    between atoms: C_1  and  C_2
REMARK    2  A    between atoms: C_2  and  N_3
REMARK    3  A    between atoms: N_3  and  C_4
REMARK    4  A    between atoms: N_3  and  C_6
REMARK    5  A    between atoms: C_4  and  C_5
REMARK    6  A    between atoms: C_6  and  C_7
REMARK    7  A    between atoms: C_7  and  C_8
REMARK    8  A    between atoms: C_8  and  C_9
REMARK    9  A    between atoms: C_9  and  O_10
REMARK   10  A    between atoms: O_10  and  C_11
REMARK   11  A    between atoms: C_14  and  C_15
REMARK   12  A    between atoms: C_15  and  C_16
REMARK   13  A    between atoms: C_18  and  O_19
REMARK                            x       y       z     vdW  Elec       q    Type
REMARK                         _______ _______ _______ _____ _____    ______ ____
ROOT
ATOM      1  C   UNL     1       3.338   5.945  17.690  0.00  0.00    +0.000 A 
ATOM      2  C   UNL     1       3.381   4.625  17.236  0.00  0.00    +0.000 A 
ATOM      3  C   UNL     1       4.485   4.148  16.517  0.00  0.00    +0.000 A 
ATOM      4  C   UNL     1       5.570   4.989  16.245  0.00  0.00    +0.000 A 
ATOM      5  C   UNL     1       5.510   6.315  16.705  0.00  0.00    +0.000 A 
ATOM      6  C   UNL     1       4.407   6.790  17.417  0.00  0.00    +0.000 A 
ENDROOT
BRANCH   4   7
ATOM      7  C   UNL     1       6.783   4.537  15.489  0.00  0.00    +0.000 C 
ATOM      8  C   UNL     1       6.703   4.089  14.053  0.00  0.00    +0.000 C 
ATOM      9  O   UNL     1       7.867   4.537  16.070  0.00  0.00    +0.000 OA
ENDBRANCH   4   7
BRANCH   5  10
ATOM     10  O   UNL     1       6.507   7.235  16.502  0.00  0.00    +0.000 OA
ATOM     11  H   UNL     1       6.418   7.579  15.584  0.00  0.00    +0.000 HD
ENDBRANCH   5  10
BRANCH   1  12
ATOM     12  O   UNL     1       2.210   6.283  18.382  0.00  0.00    +0.000 OA
BRANCH  12  13
ATOM     13  C   UNL     1       2.288   7.452  19.200  0.00  0.00    +0.000 C 
BRANCH  13  14
ATOM     14  C   UNL     1       1.972   7.063  20.640  0.00  0.00    +0.000 C 
BRANCH  14  15
ATOM     15  C   UNL     1       1.303   5.691  20.751  0.00  0.00    +0.000 C 
BRANCH  15  16
ATOM     16  C   UNL     1       2.225   4.578  21.293  0.00  0.00    +0.000 C 
BRANCH  16  17
ATOM     17  N   UNL     1       2.394   3.431  20.380  0.00  0.00    +0.000 NA
BRANCH  17  19
ATOM     18  C   UNL     1       4.465   2.104  19.754  0.00  0.00    +0.000 C 
ATOM     19  C   UNL     1       3.492   2.558  20.834  0.00  0.00    +0.000 C 
ENDBRANCH  17  19
BRANCH  17  20
ATOM     20  C   UNL     1       1.122   2.721  20.160  0.00  0.00    +0.000 C 
ATOM     21  C   UNL     1       0.722   2.480  18.706  0.00  0.00    +0.000 C 
ENDBRANCH  17  20
ENDBRANCH  16  17
ENDBRANCH  15  16
ENDBRANCH  14  15
ENDBRANCH  13  14
ENDBRANCH  12  13
ENDBRANCH   1  12
TORSDOF 10
ENDMDL
MODEL 5
REMARK VINA RESULT:      -5.6      4.867      7.580
REMARK  Name = 
REMARK  13 active torsions:
REMARK  status: ('A' for Active; 'I' for Inactive)
REMARK    1  A    between atoms: C_1  and  C_2
REMARK    2  A    between atoms: C_2  and  N_3
REMARK    3  A    between atoms: N_3  and  C_4
REMARK    4  A    between atoms: N_3  and  C_6
REMARK    5  A    between atoms: C_4  and  C_5
REMARK    6  A    between atoms: C_6  and  C_7
REMARK    7  A    between atoms: C_7  and  C_8
REMARK    8  A    between atoms: C_8  and  C_9
REMARK    9  A    between atoms: C_9  and  O_10
REMARK   10  A    between atoms: O_10  and  C_11
REMARK   11  A    between atoms: C_14  and  C_15
REMARK   12  A    between atoms: C_15  and  C_16
REMARK   13  A    between atoms: C_18  and  O_19
REMARK                            x       y       z     vdW  Elec       q    Type
REMARK                         _______ _______ _______ _____ _____    ______ ____
ROOT
ATOM      1  C   UNL     1       4.963   6.080  17.000  0.00  0.00    +0.000 A 
ATOM      2  C   UNL     1       3.890   6.759  17.582  0.00  0.00    +0.000 A 
ATOM      3  C   UNL     1       2.819   6.057  18.150  0.00  0.00    +0.000 A 
ATOM      4  C   UNL     1       2.809   4.657  18.150  0.00  0.00    +0.000 A 
ATOM      5  C   UNL     1       3.895   3.990  17.558  0.00  0.00    +0.000 A 
ATOM      6  C   UNL     1       4.958   4.691  16.987  0.00  0.00    +0.000 A 
ENDROOT
BRANCH   4   7
ATOM      7  C   UNL     1       1.699   3.849  18.750  0.00  0.00    +0.000 C 
ATOM      8  C   UNL     1       1.358   3.931  20.216  0.00  0.00    +0.000 C 
ATOM      9  O   UNL     1       1.056   3.102  18.014  0.00  0.00    +0.000 OA
ENDBRANCH   4   7
BRANCH   5  10
ATOM     10  O   UNL     1       4.001   2.623  17.493  0.00  0.00    +0.000 OA
ATOM     11  H   UNL     1       4.613   2.403  16.754  0.00  0.00    +0.000 HD
ENDBRANCH   5  10
BRANCH   1  12
ATOM     12  O   UNL     1       5.944   6.880  16.486  0.00  0.00    +0.000 OA
BRANCH  12  13
ATOM     13  C   UNL     1       7.290   6.534  16.821  0.00  0.00    +0.000 C 
BRANCH  13  14
ATOM     14  C   UNL     1       7.688   7.289  18.085  0.00  0.00    +0.000 C 
BRANCH  14  15
ATOM     15  C   UNL     1       7.857   8.792  17.852  0.00  0.00    +0.000 C 
BRANCH  15  16
ATOM     16  C   UNL     1       9.091   9.407  18.546  0.00  0.00    +0.000 C 
BRANCH  16  17
ATOM     17  N   UNL     1       8.868  10.758  19.097  0.00  0.00    +0.000 NA
BRANCH  17  19
ATOM     18  C   UNL     1      10.442  11.945  20.694  0.00  0.00    +0.000 C 
ATOM     19  C   UNL     1       9.399  10.858  20.468  0.00  0.00    +0.000 C 
ENDBRANCH  17  19
BRANCH  17  20
ATOM     20  C   UNL     1       9.368  11.803  18.187  0.00  0.00    +0.000 C 
ATOM     21  C   UNL     1       8.313  12.585  17.407  0.00  0.00    +0.000 C 
ENDBRANCH  17  20
ENDBRANCH  16  17
ENDBRANCH  15  16
ENDBRANCH  14  15
ENDBRANCH  13  14
ENDBRANCH  12  13
ENDBRANCH   1  12
TORSDOF 10
ENDMDL
MODEL 6
REMARK VINA RESULT:      -5.6      1.430      2.606
REMARK  Name = 
REMARK  13 active torsions:
REMARK  status: ('A' for Active; 'I' for Inactive)
REMARK    1  A    between atoms: C_1  and  C_2
REMARK    2  A    between atoms: C_2  and  N_3
REMARK    3  A    between atoms: N_3  and  C_4
REMARK    4  A    between atoms: N_3  and  C_6
REMARK    5  A    between atoms: C_4  and  C_5
REMARK    6  A    between atoms: C_6  and  C_7
REMARK    7  A    between atoms: C_7  and  C_8
REMARK    8  A    between atoms: C_8  and  C_9
REMARK    9  A    between atoms: C_9  and  O_10
REMARK   10  A    between atoms: O_10  and  C_11
REMARK   11  A    between atoms: C_14  and  C_15
REMARK   12  A    between atoms: C_15  and  C_16
REMARK   13  A    between atoms: C_18  and  O_19
REMARK                            x       y       z     vdW  Elec       q    Type
REMARK                         _______ _______ _______ _____ _____    ______ ____
ROOT
ATOM      1  C   UNL     1       5.875   4.584  16.832  0.00  0.00    +0.000 A 
ATOM      2  C   UNL     1       5.047   3.692  16.147  0.00  0.00    +0.000 A 
ATOM      3  C   UNL     1       5.238   3.437  14.782  0.00  0.00    +0.000 A 
ATOM      4  C   UNL     1       6.271   4.070  14.082  0.00  0.00    +0.000 A 
ATOM      5  C   UNL     1       7.093   4.967  14.784  0.00  0.00    +0.000 A 
ATOM      6  C   UNL     1       6.897   5.224  16.142  0.00  0.00    +0.000 A 
ENDROOT
BRANCH   4   7
ATOM      7  C   UNL     1       6.533   3.832  12.625  0.00  0.00    +0.000 C 
ATOM      8  C   UNL     1       5.807   2.762  11.851  0.00  0.00    +0.000 C 
ATOM      9  O   UNL     1       7.367   4.538  12.059  0.00  0.00    +0.000 OA
ENDBRANCH   4   7
BRANCH   5  10
ATOM     10  O   UNL     1       8.136   5.649  14.210  0.00  0.00    +0.000 OA
ATOM     11  H   UNL     1       7.995   6.610  14.375  0.00  0.00    +0.000 HD
ENDBRANCH   5  10
BRANCH   1  12
ATOM     12  O   UNL     1       5.586   4.741  18.158  0.00  0.00    +0.000 OA
BRANCH  12  13
ATOM     13  C   UNL     1       5.045   6.005  18.548  0.00  0.00    +0.000 C 
BRANCH  13  14
ATOM     14  C   UNL     1       3.833   6.308  17.673  0.00  0.00    +0.000 C 
BRANCH  14  15
ATOM     15  C   UNL     1       2.505   6.004  18.371  0.00  0.00    +0.000 C 
BRANCH  15  16
ATOM     16  C   UNL     1       1.855   4.671  17.943  0.00  0.00    +0.000 C 
BRANCH  16  17
ATOM     17  N   UNL     1       2.053   3.563  18.898  0.00  0.00    +0.000 NA
BRANCH  17  19
ATOM     18  C   UNL     1       1.340   2.863  21.230  0.00  0.00    +0.000 C 
ATOM     19  C   UNL     1       0.991   3.556  19.920  0.00  0.00    +0.000 C 
ENDBRANCH  17  19
BRANCH  17  20
ATOM     20  C   UNL     1       2.222   2.275  18.205  0.00  0.00    +0.000 C 
ATOM     21  C   UNL     1       3.505   1.504  18.507  0.00  0.00    +0.000 C 
ENDBRANCH  17  20
ENDBRANCH  16  17
ENDBRANCH  15  16
ENDBRANCH  14  15
ENDBRANCH  13  14
ENDBRANCH  12  13
ENDBRANCH   1  12
TORSDOF 10
ENDMDL
MODEL 7
REMARK VINA RESULT:      -5.6      0.884      1.458
REMARK  Name = 
REMARK  13 active torsions:
REMARK  status: ('A' for Active; 'I' for Inactive)
REMARK    1  A    between atoms: C_1  and  C_2
REMARK    2  A    between atoms: C_2  and  N_3
REMARK    3  A    between atoms: N_3  and  C_4
REMARK    4  A    between atoms: N_3  and  C_6
REMARK    5  A    between atoms: C_4  and  C_5
REMARK    6  A    between atoms: C_6  and  C_7
REMARK    7  A    between atoms: C_7  and  C_8
REMARK    8  A    between atoms: C_8  and  C_9
REMARK    9  A    between atoms: C_9  and  O_10
REMARK   10  A    between atoms: O_10  and  C_11
REMARK   11  A    between atoms: C_14  and  C_15
REMARK   12  A    between atoms: C_15  and  C_16
REMARK   13  A    between atoms: C_18  and  O_19
REMARK                            x       y       z     vdW  Elec       q    Type
REMARK                         _______ _______ _______ _____ _____    ______ ____
ROOT
ATOM      1  C   UNL     1       5.066   5.429  18.442  0.00  0.00    +0.000 A 
ATOM      2  C   UNL     1       4.408   5.845  17.284  0.00  0.00    +0.000 A 
ATOM      3  C   UNL     1       4.994   5.675  16.022  0.00  0.00    +0.000 A 
ATOM      4  C   UNL     1       6.254   5.077  15.902  0.00  0.00    +0.000 A 
ATOM      5  C   UNL     1       6.905   4.666  17.078  0.00  0.00    +0.000 A 
ATOM      6  C   UNL     1       6.321   4.841  18.333  0.00  0.00    +0.000 A 
ENDROOT
BRANCH   4   7
ATOM      7  C   UNL     1       6.930   4.858  14.583  0.00  0.00    +0.000 C 
ATOM      8  C   UNL     1       6.361   3.927  13.543  0.00  0.00    +0.000 C 
ATOM      9  O   UNL     1       7.978   5.461  14.356  0.00  0.00    +0.000 OA
ENDBRANCH   4   7
BRANCH   5  10
ATOM     10  O   UNL     1       8.140   4.069  17.092  0.00  0.00    +0.000 OA
ATOM     11  H   UNL     1       8.819   4.778  17.012  0.00  0.00    +0.000 HD
ENDBRANCH   5  10
BRANCH   1  12
ATOM     12  O   UNL     1       4.385   5.647  19.606  0.00  0.00    +0.000 OA
BRANCH  12  13
ATOM     13  C   UNL     1       3.261   6.526  19.533  0.00  0.00    +0.000 C 
BRANCH  13  14
ATOM     14  C   UNL     1       2.026   5.781  20.029  0.00  0.00    +0.000 C 
BRANCH  14  15
ATOM     15  C   UNL     1       1.243   5.109  18.898  0.00  0.00    +0.000 C 
BRANCH  15  16
ATOM     16  C   UNL     1       1.122   3.576  19.034  0.00  0.00    +0.000 C 
BRANCH  16  17
ATOM     17  N   UNL     1       2.397   2.888  19.315  0.00  0.00    +0.000 NA
BRANCH  17  19
ATOM     18  C   UNL     1       1.586   2.653  21.708  0.00  0.00    +0.000 C 
ATOM     19  C   UNL     1       2.275   2.025  20.503  0.00  0.00    +0.000 C 
ENDBRANCH  17  19
BRANCH  17  20
ATOM     20  C   UNL     1       2.911   2.191  18.123  0.00  0.00    +0.000 C 
ATOM     21  C   UNL     1       4.021   1.169  18.359  0.00  0.00    +0.000 C 
ENDBRANCH  17  20
ENDBRANCH  16  17
ENDBRANCH  15  16
ENDBRANCH  14  15
ENDBRANCH  13  14
ENDBRANCH  12  13
ENDBRANCH   1  12
TORSDOF 10
ENDMDL
MODEL 8
REMARK VINA RESULT:      -5.6      5.534      8.143
REMARK  Name = 
REMARK  13 active torsions:
REMARK  status: ('A' for Active; 'I' for Inactive)
REMARK    1  A    between atoms: C_1  and  C_2
REMARK    2  A    between atoms: C_2  and  N_3
REMARK    3  A    between atoms: N_3  and  C_4
REMARK    4  A    between atoms: N_3  and  C_6
REMARK    5  A    between atoms: C_4  and  C_5
REMARK    6  A    between atoms: C_6  and  C_7
REMARK    7  A    between atoms: C_7  and  C_8
REMARK    8  A    between atoms: C_8  and  C_9
REMARK    9  A    between atoms: C_9  and  O_10
REMARK   10  A    between atoms: O_10  and  C_11
REMARK   11  A    between atoms: C_14  and  C_15
REMARK   12  A    between atoms: C_15  and  C_16
REMARK   13  A    between atoms: C_18  and  O_19
REMARK                            x       y       z     vdW  Elec       q    Type
REMARK                         _______ _______ _______ _____ _____    ______ ____
ROOT
ATOM      1  C   UNL     1       5.811   6.102  17.585  0.00  0.00    +0.000 A 
ATOM      2  C   UNL     1       4.489   6.529  17.452  0.00  0.00    +0.000 A 
ATOM      3  C   UNL     1       3.435   5.791  18.007  0.00  0.00    +0.000 A 
ATOM      4  C   UNL     1       3.693   4.610  18.713  0.00  0.00    +0.000 A 
ATOM      5  C   UNL     1       5.029   4.192  18.834  0.00  0.00    +0.000 A 
ATOM      6  C   UNL     1       6.076   4.926  18.276  0.00  0.00    +0.000 A 
ENDROOT
BRANCH   4   7
ATOM      7  C   UNL     1       2.612   3.781  19.338  0.00  0.00    +0.000 C 
ATOM      8  C   UNL     1       1.558   4.389  20.227  0.00  0.00    +0.000 C 
ATOM      9  O   UNL     1       2.598   2.572  19.111  0.00  0.00    +0.000 OA
ENDBRANCH   4   7
BRANCH   5  10
ATOM     10  O   UNL     1       5.409   3.054  19.499  0.00  0.00    +0.000 OA
ATOM     11  H   UNL     1       4.683   2.395  19.410  0.00  0.00    +0.000 HD
ENDBRANCH   5  10
BRANCH   1  12
ATOM     12  O   UNL     1       6.744   6.913  17.002  0.00  0.00    +0.000 OA
BRANCH  12  13
ATOM     13  C   UNL     1       7.772   7.418  17.856  0.00  0.00    +0.000 C 
BRANCH  13  14
ATOM     14  C   UNL     1       7.916   8.918  17.613  0.00  0.00    +0.000 C 
BRANCH  14  15
ATOM     15  C   UNL     1       8.813   9.603  18.645  0.00  0.00    +0.000 C 
BRANCH  15  16
ATOM     16  C   UNL     1       9.154  11.072  18.313  0.00  0.00    +0.000 C 
BRANCH  16  17
ATOM     17  N   UNL     1       9.529  11.889  19.484  0.00  0.00    +0.000 NA
BRANCH  17  19
ATOM     18  C   UNL     1      12.020  11.990  19.957  0.00  0.00    +0.000 C 
ATOM     19  C   UNL     1      10.682  11.299  20.187  0.00  0.00    +0.000 C 
ENDBRANCH  17  19
BRANCH  17  20
ATOM     20  C   UNL     1       9.713  13.304  19.120  0.00  0.00    +0.000 C 
ATOM     21  C   UNL     1       9.632  13.639  17.632  0.00  0.00    +0.000 C 
ENDBRANCH  17  20
ENDBRANCH  16  17
ENDBRANCH  15  16
ENDBRANCH  14  15
ENDBRANCH  13  14
ENDBRANCH  12  13
ENDBRANCH   1  12
TORSDOF 10
ENDMDL
MODEL 9
REMARK VINA RESULT:      -5.5      5.757      8.014
REMARK  Name = 
REMARK  13 active torsions:
REMARK  status: ('A' for Active; 'I' for Inactive)
REMARK    1  A    between atoms: C_1  and  C_2
REMARK    2  A    between atoms: C_2  and  N_3
REMARK    3  A    between atoms: N_3  and  C_4
REMARK    4  A    between atoms: N_3  and  C_6
REMARK    5  A    between atoms: C_4  and  C_5
REMARK    6  A    between atoms: C_6  and  C_7
REMARK    7  A    between atoms: C_7  and  C_8
REMARK    8  A    between atoms: C_8  and  C_9
REMARK    9  A    between atoms: C_9  and  O_10
REMARK   10  A    between atoms: O_10  and  C_11
REMARK   11  A    between atoms: C_14  and  C_15
REMARK   12  A    between atoms: C_15  and  C_16
REMARK   13  A    between atoms: C_18  and  O_19
REMARK                            x       y       z     vdW  Elec       q    Type
REMARK                         _______ _______ _______ _____ _____    ______ ____
ROOT
ATOM      1  C   UNL     1       6.602   6.020  17.171  0.00  0.00    +0.000 A 
ATOM      2  C   UNL     1       5.557   6.053  16.245  0.00  0.00    +0.000 A 
ATOM      3  C   UNL     1       4.464   5.183  16.362  0.00  0.00    +0.000 A 
ATOM      4  C   UNL     1       4.399   4.267  17.418  0.00  0.00    +0.000 A 
ATOM      5  C   UNL     1       5.460   4.243  18.339  0.00  0.00    +0.000 A 
ATOM      6  C   UNL     1       6.550   5.106  18.217  0.00  0.00    +0.000 A 
ENDROOT
BRANCH   4   7
ATOM      7  C   UNL     1       3.254   3.317  17.604  0.00  0.00    +0.000 C 
ATOM      8  C   UNL     1       1.824   3.792  17.630  0.00  0.00    +0.000 C 
ATOM      9  O   UNL     1       3.503   2.120  17.738  0.00  0.00    +0.000 OA
ENDBRANCH   4   7
BRANCH   5  10
ATOM     10  O   UNL     1       5.513   3.392  19.413  0.00  0.00    +0.000 OA
ATOM     11  H   UNL     1       5.260   3.903  20.216  0.00  0.00    +0.000 HD
ENDBRANCH   5  10
BRANCH   1  12
ATOM     12  O   UNL     1       7.603   6.921  16.947  0.00  0.00    +0.000 OA
BRANCH  12  13
ATOM     13  C   UNL     1       8.139   7.579  18.097  0.00  0.00    +0.000 C 
BRANCH  13  14
ATOM     14  C   UNL     1       8.048   9.087  17.884  0.00  0.00    +0.000 C 
BRANCH  14  15
ATOM     15  C   UNL     1       8.984   9.874  18.803  0.00  0.00    +0.000 C 
BRANCH  15  16
ATOM     16  C   UNL     1       9.216  11.337  18.369  0.00  0.00    +0.000 C 
BRANCH  16  17
ATOM     17  N   UNL     1      10.106  12.103  19.263  0.00  0.00    +0.000 NA
BRANCH  17  19
ATOM     18  C   UNL     1      11.042  13.101  17.126  0.00  0.00    +0.000 C 
ATOM     19  C   UNL     1      10.632  13.298  18.580  0.00  0.00    +0.000 C 
ENDBRANCH  17  19
BRANCH  17  20
ATOM     20  C   UNL     1       9.458  12.392  20.555  0.00  0.00    +0.000 C 
ATOM     21  C   UNL     1      10.107  13.477  21.412  0.00  0.00    +0.000 C 
ENDBRANCH  17  20
ENDBRANCH  16  17
ENDBRANCH  15  16
ENDBRANCH  14  15
ENDBRANCH  13  14
ENDBRANCH  12  13
ENDBRANCH   1  12
TORSDOF 10
ENDMDL
