MODEL 1
REMARK VINA RESULT:      -7.8      0.000      0.000
REMARK  Name = 
REMARK  9 active torsions:
REMARK  status: ('A' for Active; 'I' for Inactive)
REMARK    1  A    between atoms: C_1  and  C_2
REMARK    2  A    between atoms: C_2  and  C_3
REMARK    3  A    between atoms: C_2  and  O_4
REMARK    4  A    between atoms: O_4  and  C_5
REMARK    5  A    between atoms: C_5  and  C_7
REMARK    6  A    between atoms: C_7  and  C_8
REMARK    7  A    between atoms: C_10  and  C_11
REMARK    8  A    between atoms: C_12  and  O_13
REMARK    9  A    between atoms: C_22  and  O_23
REMARK                            x       y       z     vdW  Elec       q    Type
REMARK                         _______ _______ _______ _____ _____    ______ ____
ROOT
ATOM      1  C   UNL     1       3.098   6.105  17.532  0.00  0.00    +0.000 C 
ATOM      2  C   UNL     1       3.241   4.560  17.484  0.00  0.00    +0.000 C 
ATOM      3  C   UNL     1       3.456   3.901  18.858  0.00  0.00    +0.000 C 
ATOM      4  C   UNL     1       4.889   4.172  19.382  0.00  0.00    +0.000 C 
ATOM      5  C   UNL     1       3.183   2.380  18.897  0.00  0.00    +0.000 C 
ATOM      6  C   UNL     1       2.958   2.095  20.396  0.00  0.00    +0.000 C 
ATOM      7  C   UNL     1       2.522   3.442  21.019  0.00  0.00    +0.000 C 
ATOM      8  C   UNL     1       2.327   4.356  19.808  0.00  0.00    +0.000 C 
ATOM      9  C   UNL     1       2.273   5.876  19.987  0.00  0.00    +0.000 C 
ATOM     10  C   UNL     1       1.154   6.309  20.940  0.00  0.00    +0.000 C 
ATOM     11  C   UNL     1       1.242   7.810  21.203  0.00  0.00    +0.000 C 
ATOM     12  C   UNL     1       1.480   8.637  19.963  0.00  0.00    +0.000 A 
ATOM     13  C   UNL     1       1.411  10.039  20.078  0.00  0.00    +0.000 A 
ATOM     14  C   UNL     1       1.625  10.844  18.966  0.00  0.00    +0.000 A 
ATOM     15  C   UNL     1       1.846  10.283  17.721  0.00  0.00    +0.000 A 
ATOM     16  C   UNL     1       1.906   8.894  17.596  0.00  0.00    +0.000 A 
ATOM     17  C   UNL     1       1.804   8.052  18.721  0.00  0.00    +0.000 A 
ATOM     18  C   UNL     1       2.024   6.545  18.595  0.00  0.00    +0.000 C 
ENDROOT
BRANCH   5  19
ATOM     19  O   UNL     1       4.211   1.593  18.329  0.00  0.00    +0.000 OA
ATOM     20  H   UNL     1       3.834   0.756  18.010  0.00  0.00    +0.000 HD
ENDBRANCH   5  19
BRANCH  14  21
ATOM     21  O   UNL     1       1.626  12.204  19.057  0.00  0.00    +0.000 OA
ATOM     22  H   UNL     1       0.902  12.550  18.508  0.00  0.00    +0.000 HD
ENDBRANCH  14  21
BRANCH   1  23
ATOM     23  C   UNL     1       4.441   6.853  17.687  0.00  0.00    +0.000 C 
BRANCH  23  24
ATOM     24  C   UNL     1       5.425   6.713  16.546  0.00  0.00    +0.000 C 
ATOM     25  O   UNL     1       5.116   6.817  15.367  0.00  0.00    +0.000 OA
BRANCH  24  26
ATOM     26  O   UNL     1       6.603   6.217  17.003  0.00  0.00    +0.000 OA
BRANCH  26  28
ATOM     27  C   UNL     1       8.018   5.945  18.980  0.00  0.00    +0.000 C 
ATOM     28  C   UNL     1       7.130   6.873  18.165  0.00  0.00    +0.000 C 
ATOM     29  C   UNL     1       7.914   8.061  17.628  0.00  0.00    +0.000 C 
ENDBRANCH  26  28
ENDBRANCH  24  26
ENDBRANCH  23  24
ENDBRANCH   1  23
TORSDOF 6
ENDMDL
MODEL 2
REMARK VINA RESULT:      -7.5      0.880      1.183
REMARK  Name = 
REMARK  9 active torsions:
REMARK  status: ('A' for Active; 'I' for Inactive)
REMARK    1  A    between atoms: C_1  and  C_2
REMARK    2  A    between atoms: C_2  and  C_3
REMARK    3  A    between atoms: C_2  and  O_4
REMARK    4  A    between atoms: O_4  and  C_5
REMARK    5  A    between atoms: C_5  and  C_7
REMARK    6  A    between atoms: C_7  and  C_8
REMARK    7  A    between atoms: C_10  and  C_11
REMARK    8  A    between atoms: C_12  and  O_13
REMARK    9  A    between atoms: C_22  and  O_23
REMARK                            x       y       z     vdW  Elec       q    Type
REMARK                         _______ _______ _______ _____ _____    ______ ____
ROOT
ATOM      1  C   UNL     1       3.102   6.006  17.593  0.00  0.00    +0.000 C 
ATOM      2  C   UNL     1       3.222   4.457  17.593  0.00  0.00    +0.000 C 
ATOM      3  C   UNL     1       3.417   3.837  18.988  0.00  0.00    +0.000 C 
ATOM      4  C   UNL     1       4.849   4.104  19.515  0.00  0.00    +0.000 C 
ATOM      5  C   UNL     1       3.121   2.322  19.070  0.00  0.00    +0.000 C 
ATOM      6  C   UNL     1       2.881   2.087  20.576  0.00  0.00    +0.000 C 
ATOM      7  C   UNL     1       2.459   3.458  21.154  0.00  0.00    +0.000 C 
ATOM      8  C   UNL     1       2.287   4.338  19.915  0.00  0.00    +0.000 C 
ATOM      9  C   UNL     1       2.255   5.863  20.047  0.00  0.00    +0.000 C 
ATOM     10  C   UNL     1       1.135   6.341  20.977  0.00  0.00    +0.000 C 
ATOM     11  C   UNL     1       1.244   7.848  21.195  0.00  0.00    +0.000 C 
ATOM     12  C   UNL     1       1.502   8.633  19.933  0.00  0.00    +0.000 A 
ATOM     13  C   UNL     1       1.454  10.039  20.005  0.00  0.00    +0.000 A 
ATOM     14  C   UNL     1       1.688  10.807  18.871  0.00  0.00    +0.000 A 
ATOM     15  C   UNL     1       1.910  10.205  17.646  0.00  0.00    +0.000 A 
ATOM     16  C   UNL     1       1.951   8.813  17.562  0.00  0.00    +0.000 A 
ATOM     17  C   UNL     1       1.827   8.006  18.712  0.00  0.00    +0.000 A 
ATOM     18  C   UNL     1       2.027   6.493  18.633  0.00  0.00    +0.000 C 
ENDROOT
BRANCH   5  19
ATOM     19  O   UNL     1       4.142   1.504  18.535  0.00  0.00    +0.000 OA
ATOM     20  H   UNL     1       4.128   0.642  18.983  0.00  0.00    +0.000 HD
ENDBRANCH   5  19
BRANCH  14  21
ATOM     21  O   UNL     1       1.709  12.169  18.921  0.00  0.00    +0.000 OA
ATOM     22  H   UNL     1       1.664  12.444  19.851  0.00  0.00    +0.000 HD
ENDBRANCH  14  21
BRANCH   1  23
ATOM     23  C   UNL     1       4.455   6.738  17.736  0.00  0.00    +0.000 C 
BRANCH  23  24
ATOM     24  C   UNL     1       5.284   6.872  16.478  0.00  0.00    +0.000 C 
ATOM     25  O   UNL     1       4.817   7.168  15.386  0.00  0.00    +0.000 OA
BRANCH  24  26
ATOM     26  O   UNL     1       6.532   6.381  16.686  0.00  0.00    +0.000 OA
BRANCH  26  28
ATOM     27  C   UNL     1       7.074   4.622  15.075  0.00  0.00    +0.000 C 
ATOM     28  C   UNL     1       6.668   4.965  16.500  0.00  0.00    +0.000 C 
ATOM     29  C   UNL     1       7.732   4.535  17.499  0.00  0.00    +0.000 C 
ENDBRANCH  26  28
ENDBRANCH  24  26
ENDBRANCH  23  24
ENDBRANCH   1  23
TORSDOF 6
ENDMDL
MODEL 3
REMARK VINA RESULT:      -7.3      0.999      1.531
REMARK  Name = 
REMARK  9 active torsions:
REMARK  status: ('A' for Active; 'I' for Inactive)
REMARK    1  A    between atoms: C_1  and  C_2
REMARK    2  A    between atoms: C_2  and  C_3
REMARK    3  A    between atoms: C_2  and  O_4
REMARK    4  A    between atoms: O_4  and  C_5
REMARK    5  A    between atoms: C_5  and  C_7
REMARK    6  A    between atoms: C_7  and  C_8
REMARK    7  A    between atoms: C_10  and  C_11
REMARK    8  A    between atoms: C_12  and  O_13
REMARK    9  A    between atoms: C_22  and  O_23
REMARK                            x       y       z     vdW  Elec       q    Type
REMARK                         _______ _______ _______ _____ _____    ______ ____
ROOT
ATOM      1  C   UNL     1       3.257   6.265  17.606  0.00  0.00    +0.000 C 
ATOM      2  C   UNL     1       3.425   4.722  17.552  0.00  0.00    +0.000 C 
ATOM      3  C   UNL     1       3.554   4.050  18.931  0.00  0.00    +0.000 C 
ATOM      4  C   UNL     1       4.944   4.336  19.556  0.00  0.00    +0.000 C 
ATOM      5  C   UNL     1       3.302   2.525  18.934  0.00  0.00    +0.000 C 
ATOM      6  C   UNL     1       2.978   2.220  20.411  0.00  0.00    +0.000 C 
ATOM      7  C   UNL     1       2.480   3.553  21.016  0.00  0.00    +0.000 C 
ATOM      8  C   UNL     1       2.356   4.478  19.805  0.00  0.00    +0.000 C 
ATOM      9  C   UNL     1       2.267   5.996  19.996  0.00  0.00    +0.000 C 
ATOM     10  C   UNL     1       1.079   6.402  20.874  0.00  0.00    +0.000 C 
ATOM     11  C   UNL     1       1.127   7.900  21.158  0.00  0.00    +0.000 C 
ATOM     12  C   UNL     1       1.437   8.745  19.946  0.00  0.00    +0.000 A 
ATOM     13  C   UNL     1       1.341  10.144  20.072  0.00  0.00    +0.000 A 
ATOM     14  C   UNL     1       1.619  10.966  18.986  0.00  0.00    +0.000 A 
ATOM     15  C   UNL     1       1.934  10.422  17.753  0.00  0.00    +0.000 A 
ATOM     16  C   UNL     1       2.023   9.036  17.617  0.00  0.00    +0.000 A 
ATOM     17  C   UNL     1       1.855   8.179  18.724  0.00  0.00    +0.000 A 
ATOM     18  C   UNL     1       2.106   6.677  18.597  0.00  0.00    +0.000 C 
ENDROOT
BRANCH   5  19
ATOM     19  O   UNL     1       4.378   1.760  18.431  0.00  0.00    +0.000 OA
ATOM     20  H   UNL     1       5.065   1.685  19.114  0.00  0.00    +0.000 HD
ENDBRANCH   5  19
BRANCH  14  21
ATOM     21  O   UNL     1       1.594  12.325  19.091  0.00  0.00    +0.000 OA
ATOM     22  H   UNL     1       1.104  12.683  18.333  0.00  0.00    +0.000 HD
ENDBRANCH  14  21
BRANCH   1  23
ATOM     23  C   UNL     1       4.575   7.030  17.863  0.00  0.00    +0.000 C 
BRANCH  23  24
ATOM     24  C   UNL     1       5.673   6.838  16.840  0.00  0.00    +0.000 C 
ATOM     25  O   UNL     1       6.705   7.496  16.820  0.00  0.00    +0.000 OA
BRANCH  24  26
ATOM     26  O   UNL     1       5.241   6.035  15.834  0.00  0.00    +0.000 OA
BRANCH  26  28
ATOM     27  C   UNL     1       6.939   4.344  16.326  0.00  0.00    +0.000 C 
ATOM     28  C   UNL     1       6.243   5.182  15.263  0.00  0.00    +0.000 C 
ATOM     29  C   UNL     1       5.498   4.306  14.267  0.00  0.00    +0.000 C 
ENDBRANCH  26  28
ENDBRANCH  24  26
ENDBRANCH  23  24
ENDBRANCH   1  23
TORSDOF 6
ENDMDL
MODEL 4
REMARK VINA RESULT:      -6.6      8.725     11.479
REMARK  Name = 
REMARK  9 active torsions:
REMARK  status: ('A' for Active; 'I' for Inactive)
REMARK    1  A    between atoms: C_1  and  C_2
REMARK    2  A    between atoms: C_2  and  C_3
REMARK    3  A    between atoms: C_2  and  O_4
REMARK    4  A    between atoms: O_4  and  C_5
REMARK    5  A    between atoms: C_5  and  C_7
REMARK    6  A    between atoms: C_7  and  C_8
REMARK    7  A    between atoms: C_10  and  C_11
REMARK    8  A    between atoms: C_12  and  O_13
REMARK    9  A    between atoms: C_22  and  O_23
REMARK                            x       y       z     vdW  Elec       q    Type
REMARK                         _______ _______ _______ _____ _____    ______ ____
ROOT
ATOM      1  C   UNL     1      10.081  14.949  21.469  0.00  0.00    +0.000 C 
ATOM      2  C   UNL     1       9.538  14.983  22.923  0.00  0.00    +0.000 C 
ATOM      3  C   UNL     1       8.374  14.011  23.187  0.00  0.00    +0.000 C 
ATOM      4  C   UNL     1       7.069  14.518  22.522  0.00  0.00    +0.000 C 
ATOM      5  C   UNL     1       8.101  13.719  24.681  0.00  0.00    +0.000 C 
ATOM      6  C   UNL     1       7.308  12.396  24.646  0.00  0.00    +0.000 C 
ATOM      7  C   UNL     1       7.677  11.719  23.306  0.00  0.00    +0.000 C 
ATOM      8  C   UNL     1       8.806  12.592  22.756  0.00  0.00    +0.000 C 
ATOM      9  C   UNL     1       9.199  12.511  21.278  0.00  0.00    +0.000 C 
ATOM     10  C   UNL     1       9.614  11.095  20.865  0.00  0.00    +0.000 C 
ATOM     11  C   UNL     1       9.845  11.036  19.358  0.00  0.00    +0.000 C 
ATOM     12  C   UNL     1      10.639  12.197  18.813  0.00  0.00    +0.000 A 
ATOM     13  C   UNL     1      11.044  12.149  17.465  0.00  0.00    +0.000 A 
ATOM     14  C   UNL     1      11.774  13.195  16.915  0.00  0.00    +0.000 A 
ATOM     15  C   UNL     1      12.167  14.267  17.696  0.00  0.00    +0.000 A 
ATOM     16  C   UNL     1      11.779  14.320  19.035  0.00  0.00    +0.000 A 
ATOM     17  C   UNL     1      10.945  13.331  19.595  0.00  0.00    +0.000 A 
ATOM     18  C   UNL     1      10.401  13.477  21.015  0.00  0.00    +0.000 C 
ENDROOT
BRANCH   5  19
ATOM     19  O   UNL     1       7.422  14.757  25.358  0.00  0.00    +0.000 OA
ATOM     20  H   UNL     1       7.972  15.558  25.349  0.00  0.00    +0.000 HD
ENDBRANCH   5  19
BRANCH  14  21
ATOM     21  O   UNL     1      12.129  13.206  15.598  0.00  0.00    +0.000 OA
ATOM     22  H   UNL     1      12.211  12.288  15.293  0.00  0.00    +0.000 HD
ENDBRANCH  14  21
BRANCH   1  23
ATOM     23  C   UNL     1       9.202  15.715  20.454  0.00  0.00    +0.000 C 
BRANCH  23  24
ATOM     24  C   UNL     1       9.542  17.173  20.236  0.00  0.00    +0.000 C 
ATOM     25  O   UNL     1       9.188  18.072  20.987  0.00  0.00    +0.000 OA
BRANCH  24  26
ATOM     26  O   UNL     1      10.057  17.352  18.993  0.00  0.00    +0.000 OA
BRANCH  26  28
ATOM     27  C   UNL     1      12.333  17.794  19.773  0.00  0.00    +0.000 C 
ATOM     28  C   UNL     1      11.165  18.261  18.918  0.00  0.00    +0.000 C 
ATOM     29  C   UNL     1      11.539  18.309  17.445  0.00  0.00    +0.000 C 
ENDBRANCH  26  28
ENDBRANCH  24  26
ENDBRANCH  23  24
ENDBRANCH   1  23
TORSDOF 6
ENDMDL
MODEL 5
REMARK VINA RESULT:      -6.4      8.563     11.196
REMARK  Name = 
REMARK  9 active torsions:
REMARK  status: ('A' for Active; 'I' for Inactive)
REMARK    1  A    between atoms: C_1  and  C_2
REMARK    2  A    between atoms: C_2  and  C_3
REMARK    3  A    between atoms: C_2  and  O_4
REMARK    4  A    between atoms: O_4  and  C_5
REMARK    5  A    between atoms: C_5  and  C_7
REMARK    6  A    between atoms: C_7  and  C_8
REMARK    7  A    between atoms: C_10  and  C_11
REMARK    8  A    between atoms: C_12  and  O_13
REMARK    9  A    between atoms: C_22  and  O_23
REMARK                            x       y       z     vdW  Elec       q    Type
REMARK                         _______ _______ _______ _____ _____    ______ ____
ROOT
ATOM      1  C   UNL     1      10.098  14.767  21.708  0.00  0.00    +0.000 C 
ATOM      2  C   UNL     1       9.478  14.803  23.131  0.00  0.00    +0.000 C 
ATOM      3  C   UNL     1       8.231  13.918  23.302  0.00  0.00    +0.000 C 
ATOM      4  C   UNL     1       7.008  14.544  22.585  0.00  0.00    +0.000 C 
ATOM      5  C   UNL     1       7.853  13.606  24.768  0.00  0.00    +0.000 C 
ATOM      6  C   UNL     1       6.964  12.351  24.649  0.00  0.00    +0.000 C 
ATOM      7  C   UNL     1       7.355  11.685  23.309  0.00  0.00    +0.000 C 
ATOM      8  C   UNL     1       8.576  12.482  22.849  0.00  0.00    +0.000 C 
ATOM      9  C   UNL     1       9.043  12.412  21.392  0.00  0.00    +0.000 C 
ATOM     10  C   UNL     1       9.372  10.980  20.957  0.00  0.00    +0.000 C 
ATOM     11  C   UNL     1       9.681  10.946  19.463  0.00  0.00    +0.000 C 
ATOM     12  C   UNL     1      10.591  12.056  18.998  0.00  0.00    +0.000 A 
ATOM     13  C   UNL     1      11.065  12.014  17.673  0.00  0.00    +0.000 A 
ATOM     14  C   UNL     1      11.903  13.014  17.197  0.00  0.00    +0.000 A 
ATOM     15  C   UNL     1      12.333  14.031  18.032  0.00  0.00    +0.000 A 
ATOM     16  C   UNL     1      11.876  14.075  19.349  0.00  0.00    +0.000 A 
ATOM     17  C   UNL     1      10.939  13.139  19.832  0.00  0.00    +0.000 A 
ATOM     18  C   UNL     1      10.328  13.288  21.225  0.00  0.00    +0.000 C 
ENDROOT
BRANCH   5  19
ATOM     19  O   UNL     1       7.218  14.675  25.441  0.00  0.00    +0.000 OA
ATOM     20  H   UNL     1       7.358  14.579  26.398  0.00  0.00    +0.000 HD
ENDBRANCH   5  19
BRANCH  14  21
ATOM     21  O   UNL     1      12.331  13.035  15.903  0.00  0.00    +0.000 OA
ATOM     22  H   UNL     1      12.351  13.958  15.600  0.00  0.00    +0.000 HD
ENDBRANCH  14  21
BRANCH   1  23
ATOM     23  C   UNL     1       9.338  15.628  20.673  0.00  0.00    +0.000 C 
BRANCH  23  24
ATOM     24  C   UNL     1       9.909  16.999  20.390  0.00  0.00    +0.000 C 
ATOM     25  O   UNL     1      10.396  17.723  21.249  0.00  0.00    +0.000 OA
BRANCH  24  26
ATOM     26  O   UNL     1       9.576  17.395  19.135  0.00  0.00    +0.000 OA
BRANCH  26  28
ATOM     27  C   UNL     1       8.070  16.052  17.753  0.00  0.00    +0.000 C 
ATOM     28  C   UNL     1       9.505  16.341  18.163  0.00  0.00    +0.000 C 
ATOM     29  C   UNL     1      10.330  16.834  16.984  0.00  0.00    +0.000 C 
ENDBRANCH  26  28
ENDBRANCH  24  26
ENDBRANCH  23  24
ENDBRANCH   1  23
TORSDOF 6
ENDMDL
MODEL 6
REMARK VINA RESULT:      -6.2      5.493      9.021
REMARK  Name = 
REMARK  9 active torsions:
REMARK  status: ('A' for Active; 'I' for Inactive)
REMARK    1  A    between atoms: C_1  and  C_2
REMARK    2  A    between atoms: C_2  and  C_3
REMARK    3  A    between atoms: C_2  and  O_4
REMARK    4  A    between atoms: O_4  and  C_5
REMARK    5  A    between atoms: C_5  and  C_7
REMARK    6  A    between atoms: C_7  and  C_8
REMARK    7  A    between atoms: C_10  and  C_11
REMARK    8  A    between atoms: C_12  and  O_13
REMARK    9  A    between atoms: C_22  and  O_23
REMARK                            x       y       z     vdW  Elec       q    Type
REMARK                         _______ _______ _______ _____ _____    ______ ____
ROOT
ATOM      1  C   UNL     1      -1.690  12.584  19.691  0.00  0.00    +0.000 C 
ATOM      2  C   UNL     1      -1.646  12.262  18.172  0.00  0.00    +0.000 C 
ATOM      3  C   UNL     1      -2.778  11.339  17.688  0.00  0.00    +0.000 C 
ATOM      4  C   UNL     1      -2.542   9.882  18.162  0.00  0.00    +0.000 C 
ATOM      5  C   UNL     1      -3.008  11.343  16.159  0.00  0.00    +0.000 C 
ATOM      6  C   UNL     1      -4.443  10.797  16.012  0.00  0.00    +0.000 C 
ATOM      7  C   UNL     1      -5.140  11.078  17.364  0.00  0.00    +0.000 C 
ATOM      8  C   UNL     1      -4.131  11.944  18.120  0.00  0.00    +0.000 C 
ATOM      9  C   UNL     1      -4.248  12.124  19.637  0.00  0.00    +0.000 C 
ATOM     10  C   UNL     1      -5.600  12.715  20.048  0.00  0.00    +0.000 C 
ATOM     11  C   UNL     1      -5.724  12.729  21.569  0.00  0.00    +0.000 C 
ATOM     12  C   UNL     1      -4.487  13.220  22.281  0.00  0.00    +0.000 A 
ATOM     13  C   UNL     1      -4.560  13.424  23.672  0.00  0.00    +0.000 A 
ATOM     14  C   UNL     1      -3.448  13.872  24.374  0.00  0.00    +0.000 A 
ATOM     15  C   UNL     1      -2.273  14.182  23.711  0.00  0.00    +0.000 A 
ATOM     16  C   UNL     1      -2.194  13.991  22.331  0.00  0.00    +0.000 A 
ATOM     17  C   UNL     1      -3.267  13.434  21.606  0.00  0.00    +0.000 A 
ATOM     18  C   UNL     1      -3.116  13.087  20.125  0.00  0.00    +0.000 C 
ENDROOT
BRANCH   5  19
ATOM     19  O   UNL     1      -2.053  10.599  15.429  0.00  0.00    +0.000 OA
ATOM     20  H   UNL     1      -1.400  10.224  16.044  0.00  0.00    +0.000 HD
ENDBRANCH   5  19
BRANCH  14  21
ATOM     21  O   UNL     1      -3.468  14.023  25.729  0.00  0.00    +0.000 OA
ATOM     22  H   UNL     1      -4.111  14.716  25.952  0.00  0.00    +0.000 HD
ENDBRANCH  14  21
BRANCH   1  23
ATOM     23  C   UNL     1      -1.152  11.446  20.587  0.00  0.00    +0.000 C 
BRANCH  23  24
ATOM     24  C   UNL     1       0.288  11.563  21.032  0.00  0.00    +0.000 C 
ATOM     25  O   UNL     1       0.659  12.279  21.952  0.00  0.00    +0.000 OA
BRANCH  24  26
ATOM     26  O   UNL     1       1.108  10.975  20.123  0.00  0.00    +0.000 OA
BRANCH  26  28
ATOM     27  C   UNL     1       1.163   9.422  18.233  0.00  0.00    +0.000 C 
ATOM     28  C   UNL     1       0.668   9.695  19.645  0.00  0.00    +0.000 C 
ATOM     29  C   UNL     1       1.232   8.687  20.635  0.00  0.00    +0.000 C 
ENDBRANCH  26  28
ENDBRANCH  24  26
ENDBRANCH  23  24
ENDBRANCH   1  23
TORSDOF 6
ENDMDL
MODEL 7
REMARK VINA RESULT:      -6.2      5.593      9.109
REMARK  Name = 
REMARK  9 active torsions:
REMARK  status: ('A' for Active; 'I' for Inactive)
REMARK    1  A    between atoms: C_1  and  C_2
REMARK    2  A    between atoms: C_2  and  C_3
REMARK    3  A    between atoms: C_2  and  O_4
REMARK    4  A    between atoms: O_4  and  C_5
REMARK    5  A    between atoms: C_5  and  C_7
REMARK    6  A    between atoms: C_7  and  C_8
REMARK    7  A    between atoms: C_10  and  C_11
REMARK    8  A    between atoms: C_12  and  O_13
REMARK    9  A    between atoms: C_22  and  O_23
REMARK                            x       y       z     vdW  Elec       q    Type
REMARK                         _______ _______ _______ _____ _____    ______ ____
ROOT
ATOM      1  C   UNL     1      -1.592  12.767  19.736  0.00  0.00    +0.000 C 
ATOM      2  C   UNL     1      -1.578  12.404  18.225  0.00  0.00    +0.000 C 
ATOM      3  C   UNL     1      -2.682  11.419  17.801  0.00  0.00    +0.000 C 
ATOM      4  C   UNL     1      -2.368   9.988  18.306  0.00  0.00    +0.000 C 
ATOM      5  C   UNL     1      -2.956  11.370  16.280  0.00  0.00    +0.000 C 
ATOM      6  C   UNL     1      -4.369  10.759  16.192  0.00  0.00    +0.000 C 
ATOM      7  C   UNL     1      -5.039  11.047  17.556  0.00  0.00    +0.000 C 
ATOM      8  C   UNL     1      -4.047  11.977  18.257  0.00  0.00    +0.000 C 
ATOM      9  C   UNL     1      -4.128  12.194  19.772  0.00  0.00    +0.000 C 
ATOM     10  C   UNL     1      -5.492  12.738  20.208  0.00  0.00    +0.000 C 
ATOM     11  C   UNL     1      -5.572  12.789  21.731  0.00  0.00    +0.000 C 
ATOM     12  C   UNL     1      -4.338  13.353  22.392  0.00  0.00    +0.000 A 
ATOM     13  C   UNL     1      -4.379  13.593  23.778  0.00  0.00    +0.000 A 
ATOM     14  C   UNL     1      -3.268  14.108  24.434  0.00  0.00    +0.000 A 
ATOM     15  C   UNL     1      -2.128  14.450  23.727  0.00  0.00    +0.000 A 
ATOM     16  C   UNL     1      -2.081  14.224  22.351  0.00  0.00    +0.000 A 
ATOM     17  C   UNL     1      -3.149  13.601  21.674  0.00  0.00    +0.000 A 
ATOM     18  C   UNL     1      -3.026  13.219  20.199  0.00  0.00    +0.000 C 
ENDROOT
BRANCH   5  19
ATOM     19  O   UNL     1      -1.990  10.649  15.542  0.00  0.00    +0.000 OA
ATOM     20  H   UNL     1      -1.287  11.255  15.256  0.00  0.00    +0.000 HD
ENDBRANCH   5  19
BRANCH  14  21
ATOM     21  O   UNL     1      -3.256  14.296  25.784  0.00  0.00    +0.000 OA
ATOM     22  H   UNL     1      -4.079  14.742  26.040  0.00  0.00    +0.000 HD
ENDBRANCH  14  21
BRANCH   1  23
ATOM     23  C   UNL     1      -0.979  11.678  20.646  0.00  0.00    +0.000 C 
BRANCH  23  24
ATOM     24  C   UNL     1       0.522  11.722  20.828  0.00  0.00    +0.000 C 
ATOM     25  O   UNL     1       1.291  12.216  20.015  0.00  0.00    +0.000 OA
BRANCH  24  26
ATOM     26  O   UNL     1       0.890  10.929  21.868  0.00  0.00    +0.000 OA
BRANCH  26  28
ATOM     27  C   UNL     1       1.103   8.545  21.364  0.00  0.00    +0.000 C 
ATOM     28  C   UNL     1       0.230   9.657  21.926  0.00  0.00    +0.000 C 
ATOM     29  C   UNL     1      -0.071   9.434  23.401  0.00  0.00    +0.000 C 
ENDBRANCH  26  28
ENDBRANCH  24  26
ENDBRANCH  23  24
ENDBRANCH   1  23
TORSDOF 6
ENDMDL
MODEL 8
REMARK VINA RESULT:      -6.1      8.708     11.226
REMARK  Name = 
REMARK  9 active torsions:
REMARK  status: ('A' for Active; 'I' for Inactive)
REMARK    1  A    between atoms: C_1  and  C_2
REMARK    2  A    between atoms: C_2  and  C_3
REMARK    3  A    between atoms: C_2  and  O_4
REMARK    4  A    between atoms: O_4  and  C_5
REMARK    5  A    between atoms: C_5  and  C_7
REMARK    6  A    between atoms: C_7  and  C_8
REMARK    7  A    between atoms: C_10  and  C_11
REMARK    8  A    between atoms: C_12  and  O_13
REMARK    9  A    between atoms: C_22  and  O_23
REMARK                            x       y       z     vdW  Elec       q    Type
REMARK                         _______ _______ _______ _____ _____    ______ ____
ROOT
ATOM      1  C   UNL     1       9.788  14.974  21.526  0.00  0.00    +0.000 C 
ATOM      2  C   UNL     1       9.338  14.965  23.013  0.00  0.00    +0.000 C 
ATOM      3  C   UNL     1       8.299  13.882  23.354  0.00  0.00    +0.000 C 
ATOM      4  C   UNL     1       6.909  14.249  22.774  0.00  0.00    +0.000 C 
ATOM      5  C   UNL     1       8.154  13.576  24.862  0.00  0.00    +0.000 C 
ATOM      6  C   UNL     1       7.498  12.180  24.882  0.00  0.00    +0.000 C 
ATOM      7  C   UNL     1       7.847  11.533  23.521  0.00  0.00    +0.000 C 
ATOM      8  C   UNL     1       8.844  12.511  22.898  0.00  0.00    +0.000 C 
ATOM      9  C   UNL     1       9.146  12.457  21.397  0.00  0.00    +0.000 C 
ATOM     10  C   UNL     1       9.676  11.088  20.961  0.00  0.00    +0.000 C 
ATOM     11  C   UNL     1       9.813  11.040  19.442  0.00  0.00    +0.000 C 
ATOM     12  C   UNL     1      10.449  12.271  18.844  0.00  0.00    +0.000 A 
ATOM     13  C   UNL     1      10.769  12.253  17.473  0.00  0.00    +0.000 A 
ATOM     14  C   UNL     1      11.353  13.362  16.875  0.00  0.00    +0.000 A 
ATOM     15  C   UNL     1      11.685  14.475  17.627  0.00  0.00    +0.000 A 
ATOM     16  C   UNL     1      11.380  14.499  18.988  0.00  0.00    +0.000 A 
ATOM     17  C   UNL     1      10.689  13.436  19.603  0.00  0.00    +0.000 A 
ATOM     18  C   UNL     1      10.225  13.538  21.055  0.00  0.00    +0.000 C 
ENDROOT
BRANCH   5  19
ATOM     19  O   UNL     1       7.418  14.546  25.580  0.00  0.00    +0.000 OA
ATOM     20  H   UNL     1       8.028  15.076  26.120  0.00  0.00    +0.000 HD
ENDBRANCH   5  19
BRANCH  14  21
ATOM     21  O   UNL     1      11.619  13.399  15.538  0.00  0.00    +0.000 OA
ATOM     22  H   UNL     1      10.845  13.766  15.080  0.00  0.00    +0.000 HD
ENDBRANCH  14  21
BRANCH   1  23
ATOM     23  C   UNL     1       8.772  15.639  20.570  0.00  0.00    +0.000 C 
BRANCH  23  24
ATOM     24  C   UNL     1       8.964  17.116  20.306  0.00  0.00    +0.000 C 
ATOM     25  O   UNL     1      10.055  17.635  20.116  0.00  0.00    +0.000 OA
BRANCH  24  26
ATOM     26  O   UNL     1       7.813  17.790  20.559  0.00  0.00    +0.000 OA
BRANCH  26  28
ATOM     27  C   UNL     1       5.549  17.450  21.419  0.00  0.00    +0.000 C 
ATOM     28  C   UNL     1       6.612  17.017  20.422  0.00  0.00    +0.000 C 
ATOM     29  C   UNL     1       6.155  17.247  18.989  0.00  0.00    +0.000 C 
ENDBRANCH  26  28
ENDBRANCH  24  26
ENDBRANCH  23  24
ENDBRANCH   1  23
TORSDOF 6
ENDMDL
MODEL 9
REMARK VINA RESULT:      -6.1      5.618      9.747
REMARK  Name = 
REMARK  9 active torsions:
REMARK  status: ('A' for Active; 'I' for Inactive)
REMARK    1  A    between atoms: C_1  and  C_2
REMARK    2  A    between atoms: C_2  and  C_3
REMARK    3  A    between atoms: C_2  and  O_4
REMARK    4  A    between atoms: O_4  and  C_5
REMARK    5  A    between atoms: C_5  and  C_7
REMARK    6  A    between atoms: C_7  and  C_8
REMARK    7  A    between atoms: C_10  and  C_11
REMARK    8  A    between atoms: C_12  and  O_13
REMARK    9  A    between atoms: C_22  and  O_23
REMARK                            x       y       z     vdW  Elec       q    Type
REMARK                         _______ _______ _______ _____ _____    ______ ____
ROOT
ATOM      1  C   UNL     1      -2.165  12.004  20.340  0.00  0.00    +0.000 C 
ATOM      2  C   UNL     1      -2.402  12.538  21.779  0.00  0.00    +0.000 C 
ATOM      3  C   UNL     1      -3.392  13.713  21.864  0.00  0.00    +0.000 C 
ATOM      4  C   UNL     1      -2.752  15.015  21.319  0.00  0.00    +0.000 C 
ATOM      5  C   UNL     1      -3.959  13.980  23.277  0.00  0.00    +0.000 C 
ATOM      6  C   UNL     1      -5.242  14.792  22.998  0.00  0.00    +0.000 C 
ATOM      7  C   UNL     1      -5.656  14.440  21.551  0.00  0.00    +0.000 C 
ATOM      8  C   UNL     1      -4.708  13.303  21.167  0.00  0.00    +0.000 C 
ATOM      9  C   UNL     1      -4.512  12.921  19.697  0.00  0.00    +0.000 C 
ATOM     10  C   UNL     1      -5.829  12.527  19.020  0.00  0.00    +0.000 C 
ATOM     11  C   UNL     1      -5.603  12.307  17.526  0.00  0.00    +0.000 C 
ATOM     12  C   UNL     1      -4.369  11.500  17.204  0.00  0.00    +0.000 A 
ATOM     13  C   UNL     1      -4.165  11.105  15.869  0.00  0.00    +0.000 A 
ATOM     14  C   UNL     1      -3.043  10.363  15.521  0.00  0.00    +0.000 A 
ATOM     15  C   UNL     1      -2.143   9.951  16.488  0.00  0.00    +0.000 A 
ATOM     16  C   UNL     1      -2.342  10.330  17.816  0.00  0.00    +0.000 A 
ATOM     17  C   UNL     1      -3.409  11.173  18.185  0.00  0.00    +0.000 A 
ATOM     18  C   UNL     1      -3.529  11.707  19.612  0.00  0.00    +0.000 C 
ENDROOT
BRANCH   5  19
ATOM     19  O   UNL     1      -3.061  14.641  24.145  0.00  0.00    +0.000 OA
ATOM     20  H   UNL     1      -2.768  14.022  24.834  0.00  0.00    +0.000 HD
ENDBRANCH   5  19
BRANCH  14  21
ATOM     21  O   UNL     1      -2.786  10.016  14.228  0.00  0.00    +0.000 OA
ATOM     22  H   UNL     1      -2.073  10.585  13.892  0.00  0.00    +0.000 HD
ENDBRANCH  14  21
BRANCH   1  23
ATOM     23  C   UNL     1      -1.210  12.879  19.497  0.00  0.00    +0.000 C 
BRANCH  23  24
ATOM     24  C   UNL     1       0.257  12.513  19.547  0.00  0.00    +0.000 C 
ATOM     25  O   UNL     1       1.094  13.147  20.176  0.00  0.00    +0.000 OA
BRANCH  24  26
ATOM     26  O   UNL     1       0.535  11.564  18.617  0.00  0.00    +0.000 OA
BRANCH  26  28
ATOM     27  C   UNL     1       0.506   9.657  20.149  0.00  0.00    +0.000 C 
ATOM     28  C   UNL     1       1.283  10.439  19.100  0.00  0.00    +0.000 C 
ATOM     29  C   UNL     1       1.561   9.590  17.869  0.00  0.00    +0.000 C 
ENDBRANCH  26  28
ENDBRANCH  24  26
ENDBRANCH  23  24
ENDBRANCH   1  23
TORSDOF 6
ENDMDL
