MODEL 1
REMARK VINA RESULT:      -7.2      0.000      0.000
REMARK  Name = 
REMARK  9 active torsions:
REMARK  status: ('A' for Active; 'I' for Inactive)
REMARK    1  A    between atoms: C_1  and  O_2
REMARK    2  A    between atoms: O_2  and  C_3
REMARK    3  A    between atoms: C_9  and  C_10
REMARK    4  A    between atoms: C_10  and  C_11
REMARK    5  A    between atoms: C_10  and  C_12
REMARK    6  A    between atoms: N_14  and  N_15
REMARK    7  A    between atoms: C_16  and  C_17
REMARK    8  A    between atoms: N_18  and  C_19
REMARK    9  A    between atoms: C_19  and  C_20
REMARK                            x       y       z     vdW  Elec       q    Type
REMARK                         _______ _______ _______ _____ _____    ______ ____
ROOT
ATOM      1  C   UNL     1      -3.591  11.017  16.190  0.00  0.00    +0.000 A 
ATOM      2  C   UNL     1      -2.259  11.119  16.570  0.00  0.00    +0.000 A 
ATOM      3  C   UNL     1      -1.912  11.553  17.855  0.00  0.00    +0.000 A 
ATOM      4  C   UNL     1      -2.940  11.882  18.754  0.00  0.00    +0.000 A 
ATOM      5  C   UNL     1      -4.287  11.760  18.414  0.00  0.00    +0.000 A 
ATOM      6  C   UNL     1      -4.607  11.346  17.101  0.00  0.00    +0.000 A 
ATOM      7  C   UNL     1      -5.063  12.074  19.584  0.00  0.00    +0.000 A 
ATOM      8  C   UNL     1      -4.165  12.497  20.563  0.00  0.00    +0.000 A 
ATOM      9  C   UNL     1      -4.402  12.979  21.955  0.00  0.00    +0.000 C 
ATOM     10  N   UNL     1      -2.887  12.381  20.043  0.00  0.00    +0.000 N 
ENDROOT
BRANCH   1  12
ATOM     11  C   UNL     1      -3.068   9.956  14.148  0.00  0.00    +0.000 C 
ATOM     12  O   UNL     1      -4.025  10.643  14.947  0.00  0.00    +0.000 OA
ENDBRANCH   1  12
BRANCH   7  13
ATOM     13  C   UNL     1      -6.565  11.895  19.702  0.00  0.00    +0.000 C 
ATOM     14  C   UNL     1      -7.291  12.515  18.504  0.00  0.00    +0.000 C 
BRANCH  13  15
ATOM     15  C   UNL     1      -7.040  10.457  19.920  0.00  0.00    +0.000 C 
ATOM     16  O   UNL     1      -7.197   9.653  18.995  0.00  0.00    +0.000 OA
ATOM     17  N   UNL     1      -7.419  10.139  21.216  0.00  0.00    +0.000 N 
ATOM     18  H   UNL     1      -7.156  10.744  21.994  0.00  0.00    +0.000 HD
BRANCH  17  19
ATOM     19  N   UNL     1      -7.916   8.841  21.487  0.00  0.00    +0.000 NA
ATOM     20  H   UNL     1      -7.354   8.467  22.266  0.00  0.00    +0.000 HD
ATOM     21  H   UNL     1      -7.630   8.244  20.704  0.00  0.00    +0.000 HD
ENDBRANCH  17  19
ENDBRANCH  13  15
ENDBRANCH   7  13
BRANCH  10  22
ATOM     22  C   UNL     1      -1.647  12.729  20.738  0.00  0.00    +0.000 C 
BRANCH  22  23
ATOM     23  C   UNL     1      -0.960  11.562  21.421  0.00  0.00    +0.000 A 
ATOM     24  C   UNL     1      -1.274  11.121  22.716  0.00  0.00    +0.000 A 
ATOM     25  C   UNL     1      -0.557  10.082  23.314  0.00  0.00    +0.000 A 
ATOM     26  C   UNL     1       0.479   9.459  22.624  0.00  0.00    +0.000 A 
ATOM     27  C   UNL     1       0.785   9.863  21.326  0.00  0.00    +0.000 A 
ATOM     28  C   UNL     1       0.071  10.902  20.728  0.00  0.00    +0.000 A 
ENDBRANCH  22  23
ENDBRANCH  10  22
TORSDOF 6
ENDMDL
MODEL 2
REMARK VINA RESULT:      -7.1      7.509     10.066
REMARK  Name = 
REMARK  9 active torsions:
REMARK  status: ('A' for Active; 'I' for Inactive)
REMARK    1  A    between atoms: C_1  and  O_2
REMARK    2  A    between atoms: O_2  and  C_3
REMARK    3  A    between atoms: C_9  and  C_10
REMARK    4  A    between atoms: C_10  and  C_11
REMARK    5  A    between atoms: C_10  and  C_12
REMARK    6  A    between atoms: N_14  and  N_15
REMARK    7  A    between atoms: C_16  and  C_17
REMARK    8  A    between atoms: N_18  and  C_19
REMARK    9  A    between atoms: C_19  and  C_20
REMARK                            x       y       z     vdW  Elec       q    Type
REMARK                         _______ _______ _______ _____ _____    ______ ____
ROOT
ATOM      1  C   UNL     1       1.186   8.082  20.397  0.00  0.00    +0.000 A 
ATOM      2  C   UNL     1       1.936   8.739  19.431  0.00  0.00    +0.000 A 
ATOM      3  C   UNL     1       2.735   8.022  18.533  0.00  0.00    +0.000 A 
ATOM      4  C   UNL     1       2.761   6.621  18.627  0.00  0.00    +0.000 A 
ATOM      5  C   UNL     1       1.995   5.928  19.565  0.00  0.00    +0.000 A 
ATOM      6  C   UNL     1       1.219   6.680  20.476  0.00  0.00    +0.000 A 
ATOM      7  C   UNL     1       2.175   4.521  19.322  0.00  0.00    +0.000 A 
ATOM      8  C   UNL     1       3.142   4.404  18.325  0.00  0.00    +0.000 A 
ATOM      9  C   UNL     1       3.750   3.192  17.701  0.00  0.00    +0.000 C 
ATOM     10  N   UNL     1       3.490   5.681  17.921  0.00  0.00    +0.000 N 
ENDROOT
BRANCH   1  12
ATOM     11  C   UNL     1       0.355  10.117  21.253  0.00  0.00    +0.000 C 
ATOM     12  O   UNL     1       0.409   8.697  21.341  0.00  0.00    +0.000 OA
ENDBRANCH   1  12
BRANCH   7  13
ATOM     13  C   UNL     1       1.386   3.417  20.001  0.00  0.00    +0.000 C 
ATOM     14  C   UNL     1       0.767   2.466  18.970  0.00  0.00    +0.000 C 
BRANCH  13  15
ATOM     15  C   UNL     1       2.149   2.620  21.060  0.00  0.00    +0.000 C 
ATOM     16  O   UNL     1       1.691   2.380  22.182  0.00  0.00    +0.000 OA
ATOM     17  N   UNL     1       3.458   2.291  20.738  0.00  0.00    +0.000 N 
ATOM     18  H   UNL     1       3.784   2.357  19.774  0.00  0.00    +0.000 HD
BRANCH  17  19
ATOM     19  N   UNL     1       4.246   1.595  21.688  0.00  0.00    +0.000 NA
ATOM     20  H   UNL     1       5.141   2.101  21.755  0.00  0.00    +0.000 HD
ATOM     21  H   UNL     1       4.525   0.710  21.251  0.00  0.00    +0.000 HD
ENDBRANCH  17  19
ENDBRANCH  13  15
ENDBRANCH   7  13
BRANCH  10  22
ATOM     22  C   UNL     1       4.481   6.012  16.896  0.00  0.00    +0.000 C 
BRANCH  22  23
ATOM     23  C   UNL     1       5.843   6.398  17.440  0.00  0.00    +0.000 A 
ATOM     24  C   UNL     1       6.564   5.624  18.363  0.00  0.00    +0.000 A 
ATOM     25  C   UNL     1       7.783   6.069  18.876  0.00  0.00    +0.000 A 
ATOM     26  C   UNL     1       8.309   7.292  18.468  0.00  0.00    +0.000 A 
ATOM     27  C   UNL     1       7.624   8.060  17.530  0.00  0.00    +0.000 A 
ATOM     28  C   UNL     1       6.403   7.618  17.018  0.00  0.00    +0.000 A 
ENDBRANCH  22  23
ENDBRANCH  10  22
TORSDOF 6
ENDMDL
MODEL 3
REMARK VINA RESULT:      -7.0      4.138      7.206
REMARK  Name = 
REMARK  9 active torsions:
REMARK  status: ('A' for Active; 'I' for Inactive)
REMARK    1  A    between atoms: C_1  and  O_2
REMARK    2  A    between atoms: O_2  and  C_3
REMARK    3  A    between atoms: C_9  and  C_10
REMARK    4  A    between atoms: C_10  and  C_11
REMARK    5  A    between atoms: C_10  and  C_12
REMARK    6  A    between atoms: N_14  and  N_15
REMARK    7  A    between atoms: C_16  and  C_17
REMARK    8  A    between atoms: N_18  and  C_19
REMARK    9  A    between atoms: C_19  and  C_20
REMARK                            x       y       z     vdW  Elec       q    Type
REMARK                         _______ _______ _______ _____ _____    ______ ____
ROOT
ATOM      1  C   UNL     1      -0.714  10.249  22.687  0.00  0.00    +0.000 A 
ATOM      2  C   UNL     1       0.196   9.322  23.177  0.00  0.00    +0.000 A 
ATOM      3  C   UNL     1       1.078   8.659  22.316  0.00  0.00    +0.000 A 
ATOM      4  C   UNL     1       1.026   8.952  20.943  0.00  0.00    +0.000 A 
ATOM      5  C   UNL     1       0.146   9.901  20.423  0.00  0.00    +0.000 A 
ATOM      6  C   UNL     1      -0.752  10.534  21.312  0.00  0.00    +0.000 A 
ATOM      7  C   UNL     1       0.423  10.029  19.016  0.00  0.00    +0.000 A 
ATOM      8  C   UNL     1       1.379   9.063  18.704  0.00  0.00    +0.000 A 
ATOM      9  C   UNL     1       2.012   8.711  17.400  0.00  0.00    +0.000 C 
ATOM     10  N   UNL     1       1.728   8.417  19.878  0.00  0.00    +0.000 N 
ENDROOT
BRANCH   1  12
ATOM     11  C   UNL     1      -2.000  12.207  22.965  0.00  0.00    +0.000 C 
ATOM     12  O   UNL     1      -1.641  10.914  23.442  0.00  0.00    +0.000 OA
ENDBRANCH   1  12
BRANCH   7  13
ATOM     13  C   UNL     1      -0.185  11.078  18.105  0.00  0.00    +0.000 C 
ATOM     14  C   UNL     1      -1.693  10.858  17.937  0.00  0.00    +0.000 C 
BRANCH  13  15
ATOM     15  C   UNL     1       0.095  12.530  18.497  0.00  0.00    +0.000 C 
ATOM     16  O   UNL     1       1.208  12.927  18.857  0.00  0.00    +0.000 OA
ATOM     17  N   UNL     1      -1.014  13.362  18.555  0.00  0.00    +0.000 N 
ATOM     18  H   UNL     1      -1.894  13.080  18.123  0.00  0.00    +0.000 HD
BRANCH  17  19
ATOM     19  N   UNL     1      -0.842  14.709  18.957  0.00  0.00    +0.000 NA
ATOM     20  H   UNL     1      -0.206  14.695  19.768  0.00  0.00    +0.000 HD
ATOM     21  H   UNL     1      -1.728  15.009  19.377  0.00  0.00    +0.000 HD
ENDBRANCH  17  19
ENDBRANCH  13  15
ENDBRANCH   7  13
BRANCH  10  22
ATOM     22  C   UNL     1       2.696   7.327  19.998  0.00  0.00    +0.000 C 
BRANCH  22  23
ATOM     23  C   UNL     1       2.144   5.956  19.658  0.00  0.00    +0.000 A 
ATOM     24  C   UNL     1       2.183   5.395  18.372  0.00  0.00    +0.000 A 
ATOM     25  C   UNL     1       1.597   4.155  18.111  0.00  0.00    +0.000 A 
ATOM     26  C   UNL     1       0.969   3.449  19.134  0.00  0.00    +0.000 A 
ATOM     27  C   UNL     1       0.946   3.975  20.423  0.00  0.00    +0.000 A 
ATOM     28  C   UNL     1       1.531   5.216  20.685  0.00  0.00    +0.000 A 
ENDBRANCH  22  23
ENDBRANCH  10  22
TORSDOF 6
ENDMDL
MODEL 4
REMARK VINA RESULT:      -7.0      7.666     10.338
REMARK  Name = 
REMARK  9 active torsions:
REMARK  status: ('A' for Active; 'I' for Inactive)
REMARK    1  A    between atoms: C_1  and  O_2
REMARK    2  A    between atoms: O_2  and  C_3
REMARK    3  A    between atoms: C_9  and  C_10
REMARK    4  A    between atoms: C_10  and  C_11
REMARK    5  A    between atoms: C_10  and  C_12
REMARK    6  A    between atoms: N_14  and  N_15
REMARK    7  A    between atoms: C_16  and  C_17
REMARK    8  A    between atoms: N_18  and  C_19
REMARK    9  A    between atoms: C_19  and  C_20
REMARK                            x       y       z     vdW  Elec       q    Type
REMARK                         _______ _______ _______ _____ _____    ______ ____
ROOT
ATOM      1  C   UNL     1       1.153   7.781  20.609  0.00  0.00    +0.000 A 
ATOM      2  C   UNL     1       1.773   8.564  19.645  0.00  0.00    +0.000 A 
ATOM      3  C   UNL     1       2.632   7.992  18.699  0.00  0.00    +0.000 A 
ATOM      4  C   UNL     1       2.853   6.605  18.744  0.00  0.00    +0.000 A 
ATOM      5  C   UNL     1       2.221   5.785  19.680  0.00  0.00    +0.000 A 
ATOM      6  C   UNL     1       1.381   6.396  20.639  0.00  0.00    +0.000 A 
ATOM      7  C   UNL     1       2.583   4.425  19.384  0.00  0.00    +0.000 A 
ATOM      8  C   UNL     1       3.522   4.472  18.355  0.00  0.00    +0.000 A 
ATOM      9  C   UNL     1       4.268   3.375  17.671  0.00  0.00    +0.000 C 
ATOM     10  N   UNL     1       3.678   5.796  17.984  0.00  0.00    +0.000 N 
ENDROOT
BRANCH   1  12
ATOM     11  C   UNL     1      -0.185   9.564  21.383  0.00  0.00    +0.000 C 
ATOM     12  O   UNL     1       0.333   8.255  21.597  0.00  0.00    +0.000 OA
ENDBRANCH   1  12
BRANCH   7  13
ATOM     13  C   UNL     1       1.977   3.202  20.047  0.00  0.00    +0.000 C 
ATOM     14  C   UNL     1       1.448   2.213  19.003  0.00  0.00    +0.000 C 
BRANCH  13  15
ATOM     15  C   UNL     1       2.882   2.480  21.047  0.00  0.00    +0.000 C 
ATOM     16  O   UNL     1       2.593   2.344  22.240  0.00  0.00    +0.000 OA
ATOM     17  N   UNL     1       4.126   2.098  20.564  0.00  0.00    +0.000 N 
ATOM     18  H   UNL     1       4.305   2.077  19.560  0.00  0.00    +0.000 HD
BRANCH  17  19
ATOM     19  N   UNL     1       5.039   1.467  21.443  0.00  0.00    +0.000 NA
ATOM     20  H   UNL     1       5.857   2.090  21.514  0.00  0.00    +0.000 HD
ATOM     21  H   UNL     1       5.423   0.658  20.942  0.00  0.00    +0.000 HD
ENDBRANCH  17  19
ENDBRANCH  13  15
ENDBRANCH   7  13
BRANCH  10  22
ATOM     22  C   UNL     1       4.579   6.292  16.943  0.00  0.00    +0.000 C 
BRANCH  22  23
ATOM     23  C   UNL     1       5.907   6.813  17.455  0.00  0.00    +0.000 A 
ATOM     24  C   UNL     1       6.443   8.063  17.105  0.00  0.00    +0.000 A 
ATOM     25  C   UNL     1       7.703   8.456  17.559  0.00  0.00    +0.000 A 
ATOM     26  C   UNL     1       8.446   7.611  18.379  0.00  0.00    +0.000 A 
ATOM     27  C   UNL     1       7.919   6.380  18.762  0.00  0.00    +0.000 A 
ATOM     28  C   UNL     1       6.659   5.985  18.308  0.00  0.00    +0.000 A 
ENDBRANCH  22  23
ENDBRANCH  10  22
TORSDOF 6
ENDMDL
MODEL 5
REMARK VINA RESULT:      -6.9      8.325     10.664
REMARK  Name = 
REMARK  9 active torsions:
REMARK  status: ('A' for Active; 'I' for Inactive)
REMARK    1  A    between atoms: C_1  and  O_2
REMARK    2  A    between atoms: O_2  and  C_3
REMARK    3  A    between atoms: C_9  and  C_10
REMARK    4  A    between atoms: C_10  and  C_11
REMARK    5  A    between atoms: C_10  and  C_12
REMARK    6  A    between atoms: N_14  and  N_15
REMARK    7  A    between atoms: C_16  and  C_17
REMARK    8  A    between atoms: N_18  and  C_19
REMARK    9  A    between atoms: C_19  and  C_20
REMARK                            x       y       z     vdW  Elec       q    Type
REMARK                         _______ _______ _______ _____ _____    ______ ____
ROOT
ATOM      1  C   UNL     1       2.544   8.261  17.777  0.00  0.00    +0.000 A 
ATOM      2  C   UNL     1       3.752   8.283  17.093  0.00  0.00    +0.000 A 
ATOM      3  C   UNL     1       4.558   7.140  17.022  0.00  0.00    +0.000 A 
ATOM      4  C   UNL     1       4.117   5.968  17.657  0.00  0.00    +0.000 A 
ATOM      5  C   UNL     1       2.894   5.903  18.326  0.00  0.00    +0.000 A 
ATOM      6  C   UNL     1       2.116   7.080  18.404  0.00  0.00    +0.000 A 
ATOM      7  C   UNL     1       2.708   4.545  18.764  0.00  0.00    +0.000 A 
ATOM      8  C   UNL     1       3.881   3.857  18.456  0.00  0.00    +0.000 A 
ATOM      9  C   UNL     1       4.268   2.438  18.710  0.00  0.00    +0.000 C 
ATOM     10  N   UNL     1       4.724   4.732  17.794  0.00  0.00    +0.000 N 
ENDROOT
BRANCH   1  12
ATOM     11  C   UNL     1       1.150   9.484  19.235  0.00  0.00    +0.000 C 
ATOM     12  O   UNL     1       1.712   9.336  17.935  0.00  0.00    +0.000 OA
ENDBRANCH   1  12
BRANCH   7  13
ATOM     13  C   UNL     1       1.431   4.000  19.376  0.00  0.00    +0.000 C 
ATOM     14  C   UNL     1       0.928   2.775  18.604  0.00  0.00    +0.000 C 
BRANCH  13  15
ATOM     15  C   UNL     1       1.502   3.687  20.872  0.00  0.00    +0.000 C 
ATOM     16  O   UNL     1       2.228   4.307  21.656  0.00  0.00    +0.000 OA
ATOM     17  N   UNL     1       0.797   2.565  21.286  0.00  0.00    +0.000 N 
ATOM     18  H   UNL     1       0.091   2.147  20.680  0.00  0.00    +0.000 HD
BRANCH  17  19
ATOM     19  N   UNL     1       0.853   2.183  22.649  0.00  0.00    +0.000 NA
ATOM     20  H   UNL     1       1.517   2.824  23.107  0.00  0.00    +0.000 HD
ATOM     21  H   UNL     1       1.350   1.287  22.685  0.00  0.00    +0.000 HD
ENDBRANCH  17  19
ENDBRANCH  13  15
ENDBRANCH   7  13
BRANCH  10  22
ATOM     22  C   UNL     1       6.065   4.417  17.300  0.00  0.00    +0.000 C 
BRANCH  22  23
ATOM     23  C   UNL     1       6.188   4.389  15.789  0.00  0.00    +0.000 A 
ATOM     24  C   UNL     1       5.255   3.773  14.941  0.00  0.00    +0.000 A 
ATOM     25  C   UNL     1       5.461   3.723  13.561  0.00  0.00    +0.000 A 
ATOM     26  C   UNL     1       6.600   4.297  13.003  0.00  0.00    +0.000 A 
ATOM     27  C   UNL     1       7.523   4.940  13.825  0.00  0.00    +0.000 A 
ATOM     28  C   UNL     1       7.319   4.988  15.205  0.00  0.00    +0.000 A 
ENDBRANCH  22  23
ENDBRANCH  10  22
TORSDOF 6
ENDMDL
MODEL 6
REMARK VINA RESULT:      -6.9      7.468      9.738
REMARK  Name = 
REMARK  9 active torsions:
REMARK  status: ('A' for Active; 'I' for Inactive)
REMARK    1  A    between atoms: C_1  and  O_2
REMARK    2  A    between atoms: O_2  and  C_3
REMARK    3  A    between atoms: C_9  and  C_10
REMARK    4  A    between atoms: C_10  and  C_11
REMARK    5  A    between atoms: C_10  and  C_12
REMARK    6  A    between atoms: N_14  and  N_15
REMARK    7  A    between atoms: C_16  and  C_17
REMARK    8  A    between atoms: N_18  and  C_19
REMARK    9  A    between atoms: C_19  and  C_20
REMARK                            x       y       z     vdW  Elec       q    Type
REMARK                         _______ _______ _______ _____ _____    ______ ____
ROOT
ATOM      1  C   UNL     1       4.836   4.957  16.053  0.00  0.00    +0.000 A 
ATOM      2  C   UNL     1       5.080   6.320  16.149  0.00  0.00    +0.000 A 
ATOM      3  C   UNL     1       4.454   7.093  17.133  0.00  0.00    +0.000 A 
ATOM      4  C   UNL     1       3.573   6.461  18.025  0.00  0.00    +0.000 A 
ATOM      5  C   UNL     1       3.330   5.088  17.976  0.00  0.00    +0.000 A 
ATOM      6  C   UNL     1       3.955   4.338  16.954  0.00  0.00    +0.000 A 
ATOM      7  C   UNL     1       2.471   4.756  19.082  0.00  0.00    +0.000 A 
ATOM      8  C   UNL     1       2.120   5.958  19.695  0.00  0.00    +0.000 A 
ATOM      9  C   UNL     1       1.228   6.229  20.860  0.00  0.00    +0.000 C 
ATOM     10  N   UNL     1       2.788   6.979  19.040  0.00  0.00    +0.000 N 
ENDROOT
BRANCH   1  12
ATOM     11  C   UNL     1       6.580   4.584  14.507  0.00  0.00    +0.000 C 
ATOM     12  O   UNL     1       5.368   4.129  15.102  0.00  0.00    +0.000 OA
ENDBRANCH   1  12
BRANCH   7  13
ATOM     13  C   UNL     1       2.105   3.345  19.503  0.00  0.00    +0.000 C 
ATOM     14  C   UNL     1       0.942   2.804  18.665  0.00  0.00    +0.000 C 
BRANCH  13  15
ATOM     15  C   UNL     1       3.260   2.342  19.512  0.00  0.00    +0.000 C 
ATOM     16  O   UNL     1       4.222   2.430  20.282  0.00  0.00    +0.000 OA
ATOM     17  N   UNL     1       3.236   1.388  18.504  0.00  0.00    +0.000 N 
ATOM     18  H   UNL     1       2.384   1.226  17.968  0.00  0.00    +0.000 HD
BRANCH  17  19
ATOM     19  N   UNL     1       4.297   0.454  18.417  0.00  0.00    +0.000 NA
ATOM     20  H   UNL     1       3.864  -0.480  18.388  0.00  0.00    +0.000 HD
ATOM     21  H   UNL     1       4.766   0.452  19.329  0.00  0.00    +0.000 HD
ENDBRANCH  17  19
ENDBRANCH  13  15
ENDBRANCH   7  13
BRANCH  10  22
ATOM     22  C   UNL     1       2.695   8.404  19.359  0.00  0.00    +0.000 C 
BRANCH  22  23
ATOM     23  C   UNL     1       1.341   9.024  19.076  0.00  0.00    +0.000 A 
ATOM     24  C   UNL     1       0.783   9.130  17.792  0.00  0.00    +0.000 A 
ATOM     25  C   UNL     1      -0.439   9.773  17.591  0.00  0.00    +0.000 A 
ATOM     26  C   UNL     1      -1.131  10.314  18.671  0.00  0.00    +0.000 A 
ATOM     27  C   UNL     1      -0.609  10.192  19.957  0.00  0.00    +0.000 A 
ATOM     28  C   UNL     1       0.614   9.551  20.159  0.00  0.00    +0.000 A 
ENDBRANCH  22  23
ENDBRANCH  10  22
TORSDOF 6
ENDMDL
MODEL 7
REMARK VINA RESULT:      -6.8      4.329      7.237
REMARK  Name = 
REMARK  9 active torsions:
REMARK  status: ('A' for Active; 'I' for Inactive)
REMARK    1  A    between atoms: C_1  and  O_2
REMARK    2  A    between atoms: O_2  and  C_3
REMARK    3  A    between atoms: C_9  and  C_10
REMARK    4  A    between atoms: C_10  and  C_11
REMARK    5  A    between atoms: C_10  and  C_12
REMARK    6  A    between atoms: N_14  and  N_15
REMARK    7  A    between atoms: C_16  and  C_17
REMARK    8  A    between atoms: N_18  and  C_19
REMARK    9  A    between atoms: C_19  and  C_20
REMARK                            x       y       z     vdW  Elec       q    Type
REMARK                         _______ _______ _______ _____ _____    ______ ____
ROOT
ATOM      1  C   UNL     1      -0.724  10.319  22.691  0.00  0.00    +0.000 A 
ATOM      2  C   UNL     1       0.183   9.387  23.179  0.00  0.00    +0.000 A 
ATOM      3  C   UNL     1       1.050   8.709  22.314  0.00  0.00    +0.000 A 
ATOM      4  C   UNL     1       0.986   8.993  20.940  0.00  0.00    +0.000 A 
ATOM      5  C   UNL     1       0.110   9.946  20.421  0.00  0.00    +0.000 A 
ATOM      6  C   UNL     1      -0.773  10.594  21.315  0.00  0.00    +0.000 A 
ATOM      7  C   UNL     1       0.373  10.061  19.011  0.00  0.00    +0.000 A 
ATOM      8  C   UNL     1       1.317   9.084  18.696  0.00  0.00    +0.000 A 
ATOM      9  C   UNL     1       1.933   8.716  17.388  0.00  0.00    +0.000 C 
ATOM     10  N   UNL     1       1.672   8.444  19.871  0.00  0.00    +0.000 N 
ENDROOT
BRANCH   1  12
ATOM     11  C   UNL     1      -2.282  12.087  22.798  0.00  0.00    +0.000 C 
ATOM     12  O   UNL     1      -1.636  10.999  23.451  0.00  0.00    +0.000 OA
ENDBRANCH   1  12
BRANCH   7  13
ATOM     13  C   UNL     1      -0.234  11.110  18.098  0.00  0.00    +0.000 C 
ATOM     14  C   UNL     1      -1.730  10.855  17.883  0.00  0.00    +0.000 C 
BRANCH  13  15
ATOM     15  C   UNL     1      -0.002  12.562  18.520  0.00  0.00    +0.000 C 
ATOM     16  O   UNL     1      -0.896  13.279  18.982  0.00  0.00    +0.000 OA
ATOM     17  N   UNL     1       1.252  13.080  18.228  0.00  0.00    +0.000 N 
ATOM     18  H   UNL     1       2.024  12.458  17.987  0.00  0.00    +0.000 HD
BRANCH  17  19
ATOM     19  N   UNL     1       1.526  14.433  18.544  0.00  0.00    +0.000 NA
ATOM     20  H   UNL     1       1.811  14.451  19.535  0.00  0.00    +0.000 HD
ATOM     21  H   UNL     1       0.625  14.922  18.565  0.00  0.00    +0.000 HD
ENDBRANCH  17  19
ENDBRANCH  13  15
ENDBRANCH   7  13
BRANCH  10  22
ATOM     22  C   UNL     1       2.630   7.344  19.989  0.00  0.00    +0.000 C 
BRANCH  22  23
ATOM     23  C   UNL     1       2.050   5.972  19.713  0.00  0.00    +0.000 A 
ATOM     24  C   UNL     1       1.411   5.184  20.683  0.00  0.00    +0.000 A 
ATOM     25  C   UNL     1       0.958   3.899  20.381  0.00  0.00    +0.000 A 
ATOM     26  C   UNL     1       1.126   3.381  19.099  0.00  0.00    +0.000 A 
ATOM     27  C   UNL     1       1.730   4.159  18.114  0.00  0.00    +0.000 A 
ATOM     28  C   UNL     1       2.186   5.444  18.416  0.00  0.00    +0.000 A 
ENDBRANCH  22  23
ENDBRANCH  10  22
TORSDOF 6
ENDMDL
MODEL 8
REMARK VINA RESULT:      -6.7      7.492      9.796
REMARK  Name = 
REMARK  9 active torsions:
REMARK  status: ('A' for Active; 'I' for Inactive)
REMARK    1  A    between atoms: C_1  and  O_2
REMARK    2  A    between atoms: O_2  and  C_3
REMARK    3  A    between atoms: C_9  and  C_10
REMARK    4  A    between atoms: C_10  and  C_11
REMARK    5  A    between atoms: C_10  and  C_12
REMARK    6  A    between atoms: N_14  and  N_15
REMARK    7  A    between atoms: C_16  and  C_17
REMARK    8  A    between atoms: N_18  and  C_19
REMARK    9  A    between atoms: C_19  and  C_20
REMARK                            x       y       z     vdW  Elec       q    Type
REMARK                         _______ _______ _______ _____ _____    ______ ____
ROOT
ATOM      1  C   UNL     1       4.920   4.948  16.010  0.00  0.00    +0.000 A 
ATOM      2  C   UNL     1       5.183   6.300  16.185  0.00  0.00    +0.000 A 
ATOM      3  C   UNL     1       4.568   7.023  17.214  0.00  0.00    +0.000 A 
ATOM      4  C   UNL     1       3.679   6.352  18.069  0.00  0.00    +0.000 A 
ATOM      5  C   UNL     1       3.417   4.987  17.940  0.00  0.00    +0.000 A 
ATOM      6  C   UNL     1       4.031   4.290  16.875  0.00  0.00    +0.000 A 
ATOM      7  C   UNL     1       2.555   4.604  19.027  0.00  0.00    +0.000 A 
ATOM      8  C   UNL     1       2.221   5.773  19.709  0.00  0.00    +0.000 A 
ATOM      9  C   UNL     1       1.334   5.987  20.890  0.00  0.00    +0.000 C 
ATOM     10  N   UNL     1       2.903   6.820  19.114  0.00  0.00    +0.000 N 
ENDROOT
BRANCH   1  12
ATOM     11  C   UNL     1       6.541   4.736  14.309  0.00  0.00    +0.000 C 
ATOM     12  O   UNL     1       5.439   4.170  15.011  0.00  0.00    +0.000 OA
ENDBRANCH   1  12
BRANCH   7  13
ATOM     13  C   UNL     1       2.170   3.176  19.365  0.00  0.00    +0.000 C 
ATOM     14  C   UNL     1       1.009   2.695  18.487  0.00  0.00    +0.000 C 
BRANCH  13  15
ATOM     15  C   UNL     1       3.314   2.161  19.329  0.00  0.00    +0.000 C 
ATOM     16  O   UNL     1       3.357   1.224  18.524  0.00  0.00    +0.000 OA
ATOM     17  N   UNL     1       4.247   2.269  20.350  0.00  0.00    +0.000 N 
ATOM     18  H   UNL     1       4.294   3.116  20.918  0.00  0.00    +0.000 HD
BRANCH  17  19
ATOM     19  N   UNL     1       5.309   1.335  20.412  0.00  0.00    +0.000 NA
ATOM     20  H   UNL     1       5.144   0.757  21.250  0.00  0.00    +0.000 HD
ATOM     21  H   UNL     1       6.152   1.860  20.671  0.00  0.00    +0.000 HD
ENDBRANCH  17  19
ENDBRANCH  13  15
ENDBRANCH   7  13
BRANCH  10  22
ATOM     22  C   UNL     1       2.830   8.225  19.516  0.00  0.00    +0.000 C 
BRANCH  22  23
ATOM     23  C   UNL     1       1.520   8.909  19.177  0.00  0.00    +0.000 A 
ATOM     24  C   UNL     1       0.649   9.449  20.137  0.00  0.00    +0.000 A 
ATOM     25  C   UNL     1      -0.575  10.006  19.763  0.00  0.00    +0.000 A 
ATOM     26  C   UNL     1      -0.946  10.043  18.422  0.00  0.00    +0.000 A 
ATOM     27  C   UNL     1      -0.082   9.540  17.452  0.00  0.00    +0.000 A 
ATOM     28  C   UNL     1       1.141   8.980  17.824  0.00  0.00    +0.000 A 
ENDBRANCH  22  23
ENDBRANCH  10  22
TORSDOF 6
ENDMDL
MODEL 9
REMARK VINA RESULT:      -6.7      8.614     11.219
REMARK  Name = 
REMARK  9 active torsions:
REMARK  status: ('A' for Active; 'I' for Inactive)
REMARK    1  A    between atoms: C_1  and  O_2
REMARK    2  A    between atoms: O_2  and  C_3
REMARK    3  A    between atoms: C_9  and  C_10
REMARK    4  A    between atoms: C_10  and  C_11
REMARK    5  A    between atoms: C_10  and  C_12
REMARK    6  A    between atoms: N_14  and  N_15
REMARK    7  A    between atoms: C_16  and  C_17
REMARK    8  A    between atoms: N_18  and  C_19
REMARK    9  A    between atoms: C_19  and  C_20
REMARK                            x       y       z     vdW  Elec       q    Type
REMARK                         _______ _______ _______ _____ _____    ______ ____
ROOT
ATOM      1  C   UNL     1       1.950   2.857  18.041  0.00  0.00    +0.000 A 
ATOM      2  C   UNL     1       3.022   2.072  17.640  0.00  0.00    +0.000 A 
ATOM      3  C   UNL     1       4.241   2.654  17.276  0.00  0.00    +0.000 A 
ATOM      4  C   UNL     1       4.360   4.053  17.325  0.00  0.00    +0.000 A 
ATOM      5  C   UNL     1       3.312   4.869  17.754  0.00  0.00    +0.000 A 
ATOM      6  C   UNL     1       2.085   4.254  18.089  0.00  0.00    +0.000 A 
ATOM      7  C   UNL     1       3.797   6.223  17.783  0.00  0.00    +0.000 A 
ATOM      8  C   UNL     1       5.086   6.202  17.251  0.00  0.00    +0.000 A 
ATOM      9  C   UNL     1       6.052   7.312  17.004  0.00  0.00    +0.000 C 
ATOM     10  N   UNL     1       5.408   4.885  16.975  0.00  0.00    +0.000 N 
ENDROOT
BRANCH   1  12
ATOM     11  C   UNL     1       0.256   2.733  19.679  0.00  0.00    +0.000 C 
ATOM     12  O   UNL     1       0.711   2.383  18.376  0.00  0.00    +0.000 OA
ENDBRANCH   1  12
BRANCH   7  13
ATOM     13  C   UNL     1       3.037   7.404  18.357  0.00  0.00    +0.000 C 
ATOM     14  C   UNL     1       1.893   7.829  17.429  0.00  0.00    +0.000 C 
BRANCH  13  15
ATOM     15  C   UNL     1       2.518   7.220  19.784  0.00  0.00    +0.000 C 
ATOM     16  O   UNL     1       2.645   6.166  20.415  0.00  0.00    +0.000 OA
ATOM     17  N   UNL     1       1.768   8.272  20.291  0.00  0.00    +0.000 N 
ATOM     18  H   UNL     1       1.787   9.185  19.837  0.00  0.00    +0.000 HD
BRANCH  17  19
ATOM     19  N   UNL     1       1.212   8.156  21.589  0.00  0.00    +0.000 NA
ATOM     20  H   UNL     1       0.432   8.827  21.635  0.00  0.00    +0.000 HD
ATOM     21  H   UNL     1       1.891   8.562  22.240  0.00  0.00    +0.000 HD
ENDBRANCH  17  19
ENDBRANCH  13  15
ENDBRANCH   7  13
BRANCH  10  22
ATOM     22  C   UNL     1       6.668   4.416  16.396  0.00  0.00    +0.000 C 
BRANCH  22  23
ATOM     23  C   UNL     1       6.691   4.384  14.881  0.00  0.00    +0.000 A 
ATOM     24  C   UNL     1       5.842   3.580  14.104  0.00  0.00    +0.000 A 
ATOM     25  C   UNL     1       5.959   3.546  12.713  0.00  0.00    +0.000 A 
ATOM     26  C   UNL     1       6.921   4.323  12.073  0.00  0.00    +0.000 A 
ATOM     27  C   UNL     1       7.752   5.150  12.825  0.00  0.00    +0.000 A 
ATOM     28  C   UNL     1       7.637   5.184  14.215  0.00  0.00    +0.000 A 
ENDBRANCH  22  23
ENDBRANCH  10  22
TORSDOF 6
ENDMDL
