MODEL 1
REMARK VINA RESULT:      -7.9      0.000      0.000
REMARK  Name = 
REMARK  5 active torsions:
REMARK  status: ('A' for Active; 'I' for Inactive)
REMARK    1  A    between atoms: C_1  and  O_2
REMARK    2  A    between atoms: O_2  and  C_3
REMARK    3  A    between atoms: C_6  and  N_7
REMARK    4  A    between atoms: C_11  and  N_12
REMARK    5  A    between atoms: C_13  and  C_14
REMARK                            x       y       z     vdW  Elec       q    Type
REMARK                         _______ _______ _______ _____ _____    ______ ____
ROOT
ATOM      1  N   UNL     1       2.192   7.557  19.466  0.00  0.00    +0.000 NA
ATOM      2  C   UNL     1       1.565   7.917  20.544  0.00  0.00    +0.000 C 
ENDROOT
BRANCH   2   3
ATOM      3  C   UNL     1       0.900   9.234  20.664  0.00  0.00    +0.000 A 
ATOM      4  C   UNL     1       0.427   9.872  19.586  0.00  0.00    +0.000 A 
ATOM      5  O   UNL     1      -0.240  11.081  19.601  0.00  0.00    +0.000 OA
ATOM      6  C   UNL     1      -0.835  11.427  20.791  0.00  0.00    +0.000 A 
ATOM      7  C   UNL     1      -1.850  12.380  20.761  0.00  0.00    +0.000 A 
ATOM      8  C   UNL     1      -2.617  12.600  21.908  0.00  0.00    +0.000 A 
ATOM      9  C   UNL     1      -2.352  11.885  23.080  0.00  0.00    +0.000 A 
ATOM     10  C   UNL     1      -1.268  11.006  23.137  0.00  0.00    +0.000 A 
ATOM     11  C   UNL     1      -0.502  10.796  21.989  0.00  0.00    +0.000 A 
ATOM     12  C   UNL     1       0.631   9.854  21.978  0.00  0.00    +0.000 A 
ATOM     13  O   UNL     1       1.259   9.578  22.990  0.00  0.00    +0.000 OA
ENDBRANCH   2   3
BRANCH   1  19
ATOM     14  C   UNL     1       3.598   5.805  18.381  0.00  0.00    +0.000 A 
ATOM     15  C   UNL     1       4.054   4.480  18.367  0.00  0.00    +0.000 A 
ATOM     16  C   UNL     1       3.582   3.564  19.305  0.00  0.00    +0.000 A 
ATOM     17  C   UNL     1       2.613   3.968  20.237  0.00  0.00    +0.000 A 
ATOM     18  C   UNL     1       2.109   5.279  20.220  0.00  0.00    +0.000 A 
ATOM     19  C   UNL     1       2.591   6.213  19.295  0.00  0.00    +0.000 A 
BRANCH  17  20
ATOM     20  N   UNL     1       2.168   3.007  21.248  0.00  0.00    +0.000 N 
ATOM     21  O   UNL     1       0.950   2.800  21.357  0.00  0.00    +0.000 OA
ATOM     22  O   UNL     1       3.036   2.442  21.928  0.00  0.00    +0.000 OA
ENDBRANCH  17  20
BRANCH  14  24
ATOM     23  C   UNL     1       5.182   6.348  16.706  0.00  0.00    +0.000 C 
ATOM     24  O   UNL     1       4.096   6.758  17.529  0.00  0.00    +0.000 OA
ENDBRANCH  14  24
ENDBRANCH   1  19
TORSDOF 4
ENDMDL
MODEL 2
REMARK VINA RESULT:      -7.5      2.219      4.026
REMARK  Name = 
REMARK  5 active torsions:
REMARK  status: ('A' for Active; 'I' for Inactive)
REMARK    1  A    between atoms: C_1  and  O_2
REMARK    2  A    between atoms: O_2  and  C_3
REMARK    3  A    between atoms: C_6  and  N_7
REMARK    4  A    between atoms: C_11  and  N_12
REMARK    5  A    between atoms: C_13  and  C_14
REMARK                            x       y       z     vdW  Elec       q    Type
REMARK                         _______ _______ _______ _____ _____    ______ ____
ROOT
ATOM      1  N   UNL     1       2.448   6.913  18.317  0.00  0.00    +0.000 NA
ATOM      2  C   UNL     1       2.574   7.447  19.494  0.00  0.00    +0.000 C 
ENDROOT
BRANCH   2   3
ATOM      3  C   UNL     1       1.491   8.242  20.116  0.00  0.00    +0.000 A 
ATOM      4  C   UNL     1       0.936   7.868  21.276  0.00  0.00    +0.000 A 
ATOM      5  O   UNL     1      -0.049   8.561  21.951  0.00  0.00    +0.000 OA
ATOM      6  C   UNL     1      -0.149   9.902  21.662  0.00  0.00    +0.000 A 
ATOM      7  C   UNL     1      -0.798  10.722  22.582  0.00  0.00    +0.000 A 
ATOM      8  C   UNL     1      -0.734  12.108  22.428  0.00  0.00    +0.000 A 
ATOM      9  C   UNL     1      -0.043  12.666  21.348  0.00  0.00    +0.000 A 
ATOM     10  C   UNL     1       0.518  11.839  20.371  0.00  0.00    +0.000 A 
ATOM     11  C   UNL     1       0.444  10.454  20.528  0.00  0.00    +0.000 A 
ATOM     12  C   UNL     1       1.048   9.533  19.550  0.00  0.00    +0.000 A 
ATOM     13  O   UNL     1       1.211   9.841  18.378  0.00  0.00    +0.000 OA
ENDBRANCH   2   3
BRANCH   1  19
ATOM     14  C   UNL     1       3.060   4.613  17.572  0.00  0.00    +0.000 A 
ATOM     15  C   UNL     1       4.004   3.759  16.987  0.00  0.00    +0.000 A 
ATOM     16  C   UNL     1       5.255   4.245  16.614  0.00  0.00    +0.000 A 
ATOM     17  C   UNL     1       5.578   5.587  16.869  0.00  0.00    +0.000 A 
ATOM     18  C   UNL     1       4.657   6.434  17.507  0.00  0.00    +0.000 A 
ATOM     19  C   UNL     1       3.390   5.962  17.868  0.00  0.00    +0.000 A 
BRANCH  17  20
ATOM     20  N   UNL     1       6.877   6.095  16.422  0.00  0.00    +0.000 N 
ATOM     21  O   UNL     1       7.305   7.135  16.944  0.00  0.00    +0.000 OA
ATOM     22  O   UNL     1       7.483   5.446  15.558  0.00  0.00    +0.000 OA
ENDBRANCH  17  20
BRANCH  14  24
ATOM     23  C   UNL     1       1.665   2.840  18.296  0.00  0.00    +0.000 C 
ATOM     24  O   UNL     1       1.789   4.195  17.879  0.00  0.00    +0.000 OA
ENDBRANCH  14  24
ENDBRANCH   1  19
TORSDOF 4
ENDMDL
MODEL 3
REMARK VINA RESULT:      -7.4      1.438      1.513
REMARK  Name = 
REMARK  5 active torsions:
REMARK  status: ('A' for Active; 'I' for Inactive)
REMARK    1  A    between atoms: C_1  and  O_2
REMARK    2  A    between atoms: O_2  and  C_3
REMARK    3  A    between atoms: C_6  and  N_7
REMARK    4  A    between atoms: C_11  and  N_12
REMARK    5  A    between atoms: C_13  and  C_14
REMARK                            x       y       z     vdW  Elec       q    Type
REMARK                         _______ _______ _______ _____ _____    ______ ____
ROOT
ATOM      1  N   UNL     1       2.688   7.466  18.602  0.00  0.00    +0.000 NA
ATOM      2  C   UNL     1       1.820   7.581  19.560  0.00  0.00    +0.000 C 
ENDROOT
BRANCH   2   3
ATOM      3  C   UNL     1       1.278   8.894  19.976  0.00  0.00    +0.000 A 
ATOM      4  C   UNL     1       0.807   9.767  19.076  0.00  0.00    +0.000 A 
ATOM      5  O   UNL     1       0.249  10.995  19.369  0.00  0.00    +0.000 OA
ATOM      6  C   UNL     1      -0.252  11.142  20.641  0.00  0.00    +0.000 A 
ATOM      7  C   UNL     1      -1.182  12.155  20.864  0.00  0.00    +0.000 A 
ATOM      8  C   UNL     1      -1.866  12.201  22.080  0.00  0.00    +0.000 A 
ATOM      9  C   UNL     1      -1.605  11.250  23.072  0.00  0.00    +0.000 A 
ATOM     10  C   UNL     1      -0.599  10.299  22.885  0.00  0.00    +0.000 A 
ATOM     11  C   UNL     1       0.086  10.264  21.669  0.00  0.00    +0.000 A 
ATOM     12  C   UNL     1       1.132   9.261  21.401  0.00  0.00    +0.000 A 
ATOM     13  O   UNL     1       1.784   8.744  22.296  0.00  0.00    +0.000 OA
ENDBRANCH   2   3
BRANCH   1  19
ATOM     14  C   UNL     1       4.170   5.909  17.337  0.00  0.00    +0.000 A 
ATOM     15  C   UNL     1       4.481   4.595  16.965  0.00  0.00    +0.000 A 
ATOM     16  C   UNL     1       3.673   3.538  17.378  0.00  0.00    +0.000 A 
ATOM     17  C   UNL     1       2.520   3.805  18.133  0.00  0.00    +0.000 A 
ATOM     18  C   UNL     1       2.171   5.125  18.460  0.00  0.00    +0.000 A 
ATOM     19  C   UNL     1       2.987   6.193  18.068  0.00  0.00    +0.000 A 
BRANCH  17  20
ATOM     20  N   UNL     1       1.711   2.678  18.603  0.00  0.00    +0.000 N 
ATOM     21  O   UNL     1       0.493   2.701  18.372  0.00  0.00    +0.000 OA
ATOM     22  O   UNL     1       2.294   1.756  19.191  0.00  0.00    +0.000 OA
ENDBRANCH  17  20
BRANCH  14  24
ATOM     23  C   UNL     1       6.366   6.799  17.311  0.00  0.00    +0.000 C 
ATOM     24  O   UNL     1       4.983   6.969  17.021  0.00  0.00    +0.000 OA
ENDBRANCH  14  24
ENDBRANCH   1  19
TORSDOF 4
ENDMDL
MODEL 4
REMARK VINA RESULT:      -7.3      1.751      3.822
REMARK  Name = 
REMARK  5 active torsions:
REMARK  status: ('A' for Active; 'I' for Inactive)
REMARK    1  A    between atoms: C_1  and  O_2
REMARK    2  A    between atoms: O_2  and  C_3
REMARK    3  A    between atoms: C_6  and  N_7
REMARK    4  A    between atoms: C_11  and  N_12
REMARK    5  A    between atoms: C_13  and  C_14
REMARK                            x       y       z     vdW  Elec       q    Type
REMARK                         _______ _______ _______ _____ _____    ______ ____
ROOT
ATOM      1  N   UNL     1       2.260   6.495  19.638  0.00  0.00    +0.000 NA
ATOM      2  C   UNL     1       2.179   7.787  19.540  0.00  0.00    +0.000 C 
ENDROOT
BRANCH   2   3
ATOM      3  C   UNL     1       1.139   8.565  20.251  0.00  0.00    +0.000 A 
ATOM      4  C   UNL     1       0.679   8.177  21.447  0.00  0.00    +0.000 A 
ATOM      5  O   UNL     1      -0.257   8.854  22.202  0.00  0.00    +0.000 OA
ATOM      6  C   UNL     1      -0.394  10.196  21.932  0.00  0.00    +0.000 A 
ATOM      7  C   UNL     1      -0.978  11.002  22.906  0.00  0.00    +0.000 A 
ATOM      8  C   UNL     1      -0.942  12.390  22.758  0.00  0.00    +0.000 A 
ATOM      9  C   UNL     1      -0.342  12.963  21.632  0.00  0.00    +0.000 A 
ATOM     10  C   UNL     1       0.150  12.150  20.609  0.00  0.00    +0.000 A 
ATOM     11  C   UNL     1       0.103  10.762  20.760  0.00  0.00    +0.000 A 
ATOM     12  C   UNL     1       0.639   9.855  19.730  0.00  0.00    +0.000 A 
ATOM     13  O   UNL     1       0.707  10.173  18.552  0.00  0.00    +0.000 OA
ENDBRANCH   2   3
BRANCH   1  19
ATOM     14  C   UNL     1       3.737   4.488  19.518  0.00  0.00    +0.000 A 
ATOM     15  C   UNL     1       4.798   3.824  18.891  0.00  0.00    +0.000 A 
ATOM     16  C   UNL     1       5.491   4.433  17.847  0.00  0.00    +0.000 A 
ATOM     17  C   UNL     1       5.145   5.736  17.458  0.00  0.00    +0.000 A 
ATOM     18  C   UNL     1       4.120   6.431  18.120  0.00  0.00    +0.000 A 
ATOM     19  C   UNL     1       3.403   5.821  19.157  0.00  0.00    +0.000 A 
BRANCH  17  20
ATOM     20  N   UNL     1       5.848   6.341  16.324  0.00  0.00    +0.000 N 
ATOM     21  O   UNL     1       5.168   6.772  15.382  0.00  0.00    +0.000 OA
ATOM     22  O   UNL     1       7.084   6.402  16.379  0.00  0.00    +0.000 OA
ENDBRANCH  17  20
BRANCH  14  24
ATOM     23  C   UNL     1       2.244   2.741  20.093  0.00  0.00    +0.000 C 
ATOM     24  O   UNL     1       2.976   3.893  20.494  0.00  0.00    +0.000 OA
ENDBRANCH  14  24
ENDBRANCH   1  19
TORSDOF 4
ENDMDL
MODEL 5
REMARK VINA RESULT:      -7.2      2.421      4.121
REMARK  Name = 
REMARK  5 active torsions:
REMARK  status: ('A' for Active; 'I' for Inactive)
REMARK    1  A    between atoms: C_1  and  O_2
REMARK    2  A    between atoms: O_2  and  C_3
REMARK    3  A    between atoms: C_6  and  N_7
REMARK    4  A    between atoms: C_11  and  N_12
REMARK    5  A    between atoms: C_13  and  C_14
REMARK                            x       y       z     vdW  Elec       q    Type
REMARK                         _______ _______ _______ _____ _____    ______ ____
ROOT
ATOM      1  N   UNL     1       2.821   6.936  18.075  0.00  0.00    +0.000 NA
ATOM      2  C   UNL     1       2.645   7.291  19.311  0.00  0.00    +0.000 C 
ENDROOT
BRANCH   2   3
ATOM      3  C   UNL     1       1.660   8.326  19.699  0.00  0.00    +0.000 A 
ATOM      4  C   UNL     1       1.069   8.305  20.900  0.00  0.00    +0.000 A 
ATOM      5  O   UNL     1       0.171   9.245  21.365  0.00  0.00    +0.000 OA
ATOM      6  C   UNL     1       0.222  10.479  20.762  0.00  0.00    +0.000 A 
ATOM      7  C   UNL     1      -0.328  11.563  21.443  0.00  0.00    +0.000 A 
ATOM      8  C   UNL     1      -0.109  12.856  20.963  0.00  0.00    +0.000 A 
ATOM      9  C   UNL     1       0.638  13.058  19.798  0.00  0.00    +0.000 A 
ATOM     10  C   UNL     1       1.099  11.964  19.061  0.00  0.00    +0.000 A 
ATOM     11  C   UNL     1       0.870  10.674  19.543  0.00  0.00    +0.000 A 
ATOM     12  C   UNL     1       1.364   9.484  18.829  0.00  0.00    +0.000 A 
ATOM     13  O   UNL     1       1.557   9.481  17.621  0.00  0.00    +0.000 OA
ENDBRANCH   2   3
BRANCH   1  19
ATOM     14  C   UNL     1       2.997   4.502  17.555  0.00  0.00    +0.000 A 
ATOM     15  C   UNL     1       3.782   3.431  17.110  0.00  0.00    +0.000 A 
ATOM     16  C   UNL     1       5.125   3.625  16.798  0.00  0.00    +0.000 A 
ATOM     17  C   UNL     1       5.698   4.894  16.974  0.00  0.00    +0.000 A 
ATOM     18  C   UNL     1       4.931   5.960  17.474  0.00  0.00    +0.000 A 
ATOM     19  C   UNL     1       3.575   5.781  17.772  0.00  0.00    +0.000 A 
BRANCH  17  20
ATOM     20  N   UNL     1       7.097   5.094  16.590  0.00  0.00    +0.000 N 
ATOM     21  O   UNL     1       7.952   4.362  17.110  0.00  0.00    +0.000 OA
ATOM     22  O   UNL     1       7.345   5.973  15.753  0.00  0.00    +0.000 OA
ENDBRANCH  17  20
BRANCH  14  24
ATOM     23  C   UNL     1       1.255   3.189  18.479  0.00  0.00    +0.000 C 
ATOM     24  O   UNL     1       1.652   4.373  17.795  0.00  0.00    +0.000 OA
ENDBRANCH  14  24
ENDBRANCH   1  19
TORSDOF 4
ENDMDL
MODEL 6
REMARK VINA RESULT:      -7.2      2.491      3.942
REMARK  Name = 
REMARK  5 active torsions:
REMARK  status: ('A' for Active; 'I' for Inactive)
REMARK    1  A    between atoms: C_1  and  O_2
REMARK    2  A    between atoms: O_2  and  C_3
REMARK    3  A    between atoms: C_6  and  N_7
REMARK    4  A    between atoms: C_11  and  N_12
REMARK    5  A    between atoms: C_13  and  C_14
REMARK                            x       y       z     vdW  Elec       q    Type
REMARK                         _______ _______ _______ _____ _____    ______ ____
ROOT
ATOM      1  N   UNL     1       3.034   7.069  18.680  0.00  0.00    +0.000 NA
ATOM      2  C   UNL     1       2.537   7.973  17.892  0.00  0.00    +0.000 C 
ENDROOT
BRANCH   2   3
ATOM      3  C   UNL     1       2.072   9.285  18.396  0.00  0.00    +0.000 A 
ATOM      4  C   UNL     1       2.432  10.426  17.794  0.00  0.00    +0.000 A 
ATOM      5  O   UNL     1       2.020  11.690  18.165  0.00  0.00    +0.000 OA
ATOM      6  C   UNL     1       0.854  11.756  18.892  0.00  0.00    +0.000 A 
ATOM      7  C   UNL     1       0.173  12.971  18.926  0.00  0.00    +0.000 A 
ATOM      8  C   UNL     1      -1.112  13.020  19.471  0.00  0.00    +0.000 A 
ATOM      9  C   UNL     1      -1.699  11.865  19.996  0.00  0.00    +0.000 A 
ATOM     10  C   UNL     1      -0.974  10.673  20.055  0.00  0.00    +0.000 A 
ATOM     11  C   UNL     1       0.313  10.632  19.514  0.00  0.00    +0.000 A 
ATOM     12  C   UNL     1       1.112   9.394  19.514  0.00  0.00    +0.000 A 
ATOM     13  O   UNL     1       0.949   8.513  20.347  0.00  0.00    +0.000 OA
ENDBRANCH   2   3
BRANCH   1  19
ATOM     14  C   UNL     1       3.017   4.767  17.717  0.00  0.00    +0.000 A 
ATOM     15  C   UNL     1       3.708   3.749  17.048  0.00  0.00    +0.000 A 
ATOM     16  C   UNL     1       5.050   3.911  16.715  0.00  0.00    +0.000 A 
ATOM     17  C   UNL     1       5.718   5.086  17.092  0.00  0.00    +0.000 A 
ATOM     18  C   UNL     1       5.047   6.088  17.814  0.00  0.00    +0.000 A 
ATOM     19  C   UNL     1       3.693   5.944  18.137  0.00  0.00    +0.000 A 
BRANCH  17  20
ATOM     20  N   UNL     1       7.114   5.263  16.687  0.00  0.00    +0.000 N 
ATOM     21  O   UNL     1       7.922   4.368  16.978  0.00  0.00    +0.000 OA
ATOM     22  O   UNL     1       7.406   6.291  16.059  0.00  0.00    +0.000 OA
ENDBRANCH  17  20
BRANCH  14  24
ATOM     23  C   UNL     1       1.316   3.823  19.068  0.00  0.00    +0.000 C 
ATOM     24  O   UNL     1       1.675   4.682  17.992  0.00  0.00    +0.000 OA
ENDBRANCH  14  24
ENDBRANCH   1  19
TORSDOF 4
ENDMDL
MODEL 7
REMARK VINA RESULT:      -7.2      1.769      2.215
REMARK  Name = 
REMARK  5 active torsions:
REMARK  status: ('A' for Active; 'I' for Inactive)
REMARK    1  A    between atoms: C_1  and  O_2
REMARK    2  A    between atoms: O_2  and  C_3
REMARK    3  A    between atoms: C_6  and  N_7
REMARK    4  A    between atoms: C_11  and  N_12
REMARK    5  A    between atoms: C_13  and  C_14
REMARK                            x       y       z     vdW  Elec       q    Type
REMARK                         _______ _______ _______ _____ _____    ______ ____
ROOT
ATOM      1  N   UNL     1       2.977   6.944  18.050  0.00  0.00    +0.000 NA
ATOM      2  C   UNL     1       2.148   7.393  18.941  0.00  0.00    +0.000 C 
ENDROOT
BRANCH   2   3
ATOM      3  C   UNL     1       1.813   8.831  19.049  0.00  0.00    +0.000 A 
ATOM      4  C   UNL     1       2.096   9.685  18.057  0.00  0.00    +0.000 A 
ATOM      5  O   UNL     1       1.789  11.031  18.048  0.00  0.00    +0.000 OA
ATOM      6  C   UNL     1       0.766  11.422  18.879  0.00  0.00    +0.000 A 
ATOM      7  C   UNL     1       0.136  12.635  18.613  0.00  0.00    +0.000 A 
ATOM      8  C   UNL     1      -1.036  12.962  19.299  0.00  0.00    +0.000 A 
ATOM      9  C   UNL     1      -1.558  12.089  20.259  0.00  0.00    +0.000 A 
ATOM     10  C   UNL     1      -0.867  10.923  20.597  0.00  0.00    +0.000 A 
ATOM     11  C   UNL     1       0.307  10.606  19.912  0.00  0.00    +0.000 A 
ATOM     12  C   UNL     1       1.059   9.372  20.199  0.00  0.00    +0.000 A 
ATOM     13  O   UNL     1       1.016   8.821  21.290  0.00  0.00    +0.000 OA
ENDBRANCH   2   3
BRANCH   1  19
ATOM     14  C   UNL     1       4.200   4.944  17.195  0.00  0.00    +0.000 A 
ATOM     15  C   UNL     1       4.305   3.549  17.127  0.00  0.00    +0.000 A 
ATOM     16  C   UNL     1       3.348   2.741  17.736  0.00  0.00    +0.000 A 
ATOM     17  C   UNL     1       2.253   3.335  18.383  0.00  0.00    +0.000 A 
ATOM     18  C   UNL     1       2.111   4.732  18.406  0.00  0.00    +0.000 A 
ATOM     19  C   UNL     1       3.077   5.555  17.814  0.00  0.00    +0.000 A 
BRANCH  17  20
ATOM     20  N   UNL     1       1.286   2.472  19.063  0.00  0.00    +0.000 N 
ATOM     21  O   UNL     1       0.265   2.140  18.442  0.00  0.00    +0.000 OA
ATOM     22  O   UNL     1       1.549   2.109  20.218  0.00  0.00    +0.000 OA
ENDBRANCH  17  20
BRANCH  14  24
ATOM     23  C   UNL     1       5.532   5.534  15.327  0.00  0.00    +0.000 C 
ATOM     24  O   UNL     1       5.162   5.776  16.680  0.00  0.00    +0.000 OA
ENDBRANCH  14  24
ENDBRANCH   1  19
TORSDOF 4
ENDMDL
MODEL 8
REMARK VINA RESULT:      -7.0      1.477      2.473
REMARK  Name = 
REMARK  5 active torsions:
REMARK  status: ('A' for Active; 'I' for Inactive)
REMARK    1  A    between atoms: C_1  and  O_2
REMARK    2  A    between atoms: O_2  and  C_3
REMARK    3  A    between atoms: C_6  and  N_7
REMARK    4  A    between atoms: C_11  and  N_12
REMARK    5  A    between atoms: C_13  and  C_14
REMARK                            x       y       z     vdW  Elec       q    Type
REMARK                         _______ _______ _______ _____ _____    ______ ____
ROOT
ATOM      1  N   UNL     1       2.408   7.481  19.671  0.00  0.00    +0.000 NA
ATOM      2  C   UNL     1       1.473   7.810  20.510  0.00  0.00    +0.000 C 
ENDROOT
BRANCH   2   3
ATOM      3  C   UNL     1       0.967   9.197  20.618  0.00  0.00    +0.000 A 
ATOM      4  C   UNL     1       0.770   9.772  21.811  0.00  0.00    +0.000 A 
ATOM      5  O   UNL     1       0.340  11.068  22.012  0.00  0.00    +0.000 OA
ATOM      6  C   UNL     1       0.548  11.942  20.971  0.00  0.00    +0.000 A 
ATOM      7  C   UNL     1       0.539  13.306  21.251  0.00  0.00    +0.000 A 
ATOM      8  C   UNL     1       0.954  14.209  20.269  0.00  0.00    +0.000 A 
ATOM      9  C   UNL     1       1.354  13.748  19.011  0.00  0.00    +0.000 A 
ATOM     10  C   UNL     1       1.262  12.389  18.700  0.00  0.00    +0.000 A 
ATOM     11  C   UNL     1       0.840  11.493  19.684  0.00  0.00    +0.000 A 
ATOM     12  C   UNL     1       0.758  10.045  19.425  0.00  0.00    +0.000 A 
ATOM     13  O   UNL     1       0.582   9.592  18.303  0.00  0.00    +0.000 OA
ENDBRANCH   2   3
BRANCH   1  19
ATOM     14  C   UNL     1       3.563   5.674  18.398  0.00  0.00    +0.000 A 
ATOM     15  C   UNL     1       3.913   4.321  18.297  0.00  0.00    +0.000 A 
ATOM     16  C   UNL     1       3.464   3.406  19.246  0.00  0.00    +0.000 A 
ATOM     17  C   UNL     1       2.623   3.842  20.282  0.00  0.00    +0.000 A 
ATOM     18  C   UNL     1       2.222   5.186  20.357  0.00  0.00    +0.000 A 
ATOM     19  C   UNL     1       2.683   6.119  19.420  0.00  0.00    +0.000 A 
BRANCH  17  20
ATOM     20  N   UNL     1       2.204   2.878  21.301  0.00  0.00    +0.000 N 
ATOM     21  O   UNL     1       3.088   2.302  21.954  0.00  0.00    +0.000 OA
ATOM     22  O   UNL     1       0.989   2.704  21.465  0.00  0.00    +0.000 OA
ENDBRANCH  17  20
BRANCH  14  24
ATOM     23  C   UNL     1       5.006   6.161  16.583  0.00  0.00    +0.000 C 
ATOM     24  O   UNL     1       4.050   6.621  17.532  0.00  0.00    +0.000 OA
ENDBRANCH  14  24
ENDBRANCH   1  19
TORSDOF 4
ENDMDL
MODEL 9
REMARK VINA RESULT:      -7.0      2.223      2.686
REMARK  Name = 
REMARK  5 active torsions:
REMARK  status: ('A' for Active; 'I' for Inactive)
REMARK    1  A    between atoms: C_1  and  O_2
REMARK    2  A    between atoms: O_2  and  C_3
REMARK    3  A    between atoms: C_6  and  N_7
REMARK    4  A    between atoms: C_11  and  N_12
REMARK    5  A    between atoms: C_13  and  C_14
REMARK                            x       y       z     vdW  Elec       q    Type
REMARK                         _______ _______ _______ _____ _____    ______ ____
ROOT
ATOM      1  N   UNL     1       3.456   7.293  18.259  0.00  0.00    +0.000 NA
ATOM      2  C   UNL     1       2.269   7.790  18.087  0.00  0.00    +0.000 C 
ENDROOT
BRANCH   2   3
ATOM      3  C   UNL     1       1.917   9.156  18.535  0.00  0.00    +0.000 A 
ATOM      4  C   UNL     1       2.268  10.232  17.819  0.00  0.00    +0.000 A 
ATOM      5  O   UNL     1       1.953  11.539  18.133  0.00  0.00    +0.000 OA
ATOM      6  C   UNL     1       0.868  11.716  18.959  0.00  0.00    +0.000 A 
ATOM      7  C   UNL     1       0.250  12.965  18.968  0.00  0.00    +0.000 A 
ATOM      8  C   UNL     1      -0.971  13.120  19.627  0.00  0.00    +0.000 A 
ATOM      9  C   UNL     1      -1.557  12.036  20.289  0.00  0.00    +0.000 A 
ATOM     10  C   UNL     1      -0.885  10.814  20.366  0.00  0.00    +0.000 A 
ATOM     11  C   UNL     1       0.339  10.668  19.711  0.00  0.00    +0.000 A 
ATOM     12  C   UNL     1       1.076   9.393  19.727  0.00  0.00    +0.000 A 
ATOM     13  O   UNL     1       0.956   8.581  20.634  0.00  0.00    +0.000 OA
ENDBRANCH   2   3
BRANCH   1  19
ATOM     14  C   UNL     1       5.004   5.966  16.822  0.00  0.00    +0.000 A 
ATOM     15  C   UNL     1       5.391   4.716  16.321  0.00  0.00    +0.000 A 
ATOM     16  C   UNL     1       4.666   3.573  16.647  0.00  0.00    +0.000 A 
ATOM     17  C   UNL     1       3.519   3.688  17.447  0.00  0.00    +0.000 A 
ATOM     18  C   UNL     1       3.092   4.945  17.906  0.00  0.00    +0.000 A 
ATOM     19  C   UNL     1       3.824   6.099  17.601  0.00  0.00    +0.000 A 
BRANCH  17  20
ATOM     20  N   UNL     1       2.799   2.470  17.824  0.00  0.00    +0.000 N 
ATOM     21  O   UNL     1       1.560   2.502  17.820  0.00  0.00    +0.000 OA
ATOM     22  O   UNL     1       3.471   1.469  18.109  0.00  0.00    +0.000 OA
ENDBRANCH  17  20
BRANCH  14  24
ATOM     23  C   UNL     1       6.966   7.205  17.302  0.00  0.00    +0.000 C 
ATOM     24  O   UNL     1       5.737   7.104  16.592  0.00  0.00    +0.000 OA
ENDBRANCH  14  24
ENDBRANCH   1  19
TORSDOF 4
ENDMDL
