MODEL 1
REMARK VINA RESULT:      -6.8      0.000      0.000
REMARK  Name = 
REMARK  3 active torsions:
REMARK  status: ('A' for Active; 'I' for Inactive)
REMARK    1  A    between atoms: C_1  and  N_2
REMARK    2  A    between atoms: N_2  and  C_11
REMARK    3  A    between atoms: C_3  and  C_5
REMARK                            x       y       z     vdW  Elec       q    Type
REMARK                         _______ _______ _______ _____ _____    ______ ____
ROOT
ATOM      1  C   UNL     1       4.637   3.136  20.075  0.00  0.00    +0.000 C 
ATOM      2  N   UNL     1       4.602   3.458  18.646  0.00  0.00    +0.000 N 
ATOM      3  C   UNL     1       5.708   4.192  18.143  0.00  0.00    +0.000 C 
ATOM      4  O   UNL     1       6.678   4.433  18.859  0.00  0.00    +0.000 OA
ENDROOT
BRANCH   2   5
ATOM      5  C   UNL     1       3.510   2.919  17.793  0.00  0.00    +0.000 C 
ATOM      6  C   UNL     1       2.499   3.990  17.336  0.00  0.00    +0.000 C 
ATOM      7  C   UNL     1       1.496   4.178  18.463  0.00  0.00    +0.000 C 
ATOM      8  S   UNL     1       1.241   2.541  19.123  0.00  0.00    +0.000 S 
ATOM      9  O   UNL     1       0.058   1.975  18.508  0.00  0.00    +0.000 OA
ATOM     10  O   UNL     1       1.417   2.579  20.559  0.00  0.00    +0.000 OA
ATOM     11  C   UNL     1       2.674   1.779  18.386  0.00  0.00    +0.000 C 
ENDBRANCH   2   5
BRANCH   3  12
ATOM     12  C   UNL     1       5.714   4.617  16.753  0.00  0.00    +0.000 A 
ATOM     13  C   UNL     1       5.457   5.861  16.204  0.00  0.00    +0.000 A 
ATOM     14  C   UNL     1       5.608   5.732  14.800  0.00  0.00    +0.000 A 
ATOM     15  C   UNL     1       5.900   4.408  14.571  0.00  0.00    +0.000 A 
ATOM     16 BR   UNL     1       6.219   3.640  12.904  0.00  0.00    +0.000 Br
ATOM     17  O   UNL     1       5.943   3.725  15.743  0.00  0.00    +0.000 OA
ENDBRANCH   3  12
TORSDOF 2
ENDMDL
MODEL 2
REMARK VINA RESULT:      -6.5      3.680      6.015
REMARK  Name = 
REMARK  3 active torsions:
REMARK  status: ('A' for Active; 'I' for Inactive)
REMARK    1  A    between atoms: C_1  and  N_2
REMARK    2  A    between atoms: N_2  and  C_11
REMARK    3  A    between atoms: C_3  and  C_5
REMARK                            x       y       z     vdW  Elec       q    Type
REMARK                         _______ _______ _______ _____ _____    ______ ____
ROOT
ATOM      1  C   UNL     1       4.336   7.626  17.107  0.00  0.00    +0.000 C 
ATOM      2  N   UNL     1       3.823   6.307  17.489  0.00  0.00    +0.000 N 
ATOM      3  C   UNL     1       2.620   6.298  18.240  0.00  0.00    +0.000 C 
ATOM      4  O   UNL     1       2.003   7.341  18.448  0.00  0.00    +0.000 OA
ENDROOT
BRANCH   2   5
ATOM      5  C   UNL     1       4.496   5.079  16.989  0.00  0.00    +0.000 C 
ATOM      6  C   UNL     1       5.220   4.281  18.093  0.00  0.00    +0.000 C 
ATOM      7  C   UNL     1       6.584   4.920  18.295  0.00  0.00    +0.000 C 
ATOM      8  S   UNL     1       7.114   5.389  16.658  0.00  0.00    +0.000 S 
ATOM      9  O   UNL     1       7.966   4.343  16.132  0.00  0.00    +0.000 OA
ATOM     10  O   UNL     1       7.524   6.777  16.675  0.00  0.00    +0.000 OA
ATOM     11  C   UNL     1       5.522   5.267  15.866  0.00  0.00    +0.000 C 
ENDBRANCH   2   5
BRANCH   3  12
ATOM     12  C   UNL     1       2.085   5.036  18.724  0.00  0.00    +0.000 A 
ATOM     13  C   UNL     1       1.370   4.059  18.054  0.00  0.00    +0.000 A 
ATOM     14  C   UNL     1       1.102   3.028  18.990  0.00  0.00    +0.000 A 
ATOM     15  C   UNL     1       1.626   3.458  20.186  0.00  0.00    +0.000 A 
ATOM     16 BR   UNL     1       1.588   2.510  21.790  0.00  0.00    +0.000 Br
ATOM     17  O   UNL     1       2.201   4.678  20.038  0.00  0.00    +0.000 OA
ENDBRANCH   3  12
TORSDOF 2
ENDMDL
MODEL 3
REMARK VINA RESULT:      -6.4      1.907      2.159
REMARK  Name = 
REMARK  3 active torsions:
REMARK  status: ('A' for Active; 'I' for Inactive)
REMARK    1  A    between atoms: C_1  and  N_2
REMARK    2  A    between atoms: N_2  and  C_11
REMARK    3  A    between atoms: C_3  and  C_5
REMARK                            x       y       z     vdW  Elec       q    Type
REMARK                         _______ _______ _______ _____ _____    ______ ____
ROOT
ATOM      1  C   UNL     1       5.744   5.225  19.400  0.00  0.00    +0.000 C 
ATOM      2  N   UNL     1       5.626   5.043  17.951  0.00  0.00    +0.000 N 
ATOM      3  C   UNL     1       6.803   4.629  17.276  0.00  0.00    +0.000 C 
ATOM      4  O   UNL     1       7.818   4.338  17.906  0.00  0.00    +0.000 OA
ENDROOT
BRANCH   2   5
ATOM      5  C   UNL     1       4.299   5.178  17.295  0.00  0.00    +0.000 C 
ATOM      6  C   UNL     1       3.353   6.159  18.016  0.00  0.00    +0.000 C 
ATOM      7  C   UNL     1       2.688   5.398  19.151  0.00  0.00    +0.000 C 
ATOM      8  S   UNL     1       2.396   3.765  18.494  0.00  0.00    +0.000 S 
ATOM      9  O   UNL     1       1.036   3.704  18.000  0.00  0.00    +0.000 OA
ATOM     10  O   UNL     1       2.921   2.784  19.419  0.00  0.00    +0.000 OA
ATOM     11  C   UNL     1       3.496   3.888  17.098  0.00  0.00    +0.000 C 
ENDBRANCH   2   5
BRANCH   3  12
ATOM     12  C   UNL     1       6.791   4.499  15.828  0.00  0.00    +0.000 A 
ATOM     13  C   UNL     1       6.141   3.579  15.024  0.00  0.00    +0.000 A 
ATOM     14  C   UNL     1       6.458   3.907  13.682  0.00  0.00    +0.000 A 
ATOM     15  C   UNL     1       7.320   4.976  13.747  0.00  0.00    +0.000 A 
ATOM     16 BR   UNL     1       8.071   5.855  12.286  0.00  0.00    +0.000 Br
ATOM     17  O   UNL     1       7.544   5.323  15.039  0.00  0.00    +0.000 OA
ENDBRANCH   3  12
TORSDOF 2
ENDMDL
MODEL 4
REMARK VINA RESULT:      -6.3      1.761      2.189
REMARK  Name = 
REMARK  3 active torsions:
REMARK  status: ('A' for Active; 'I' for Inactive)
REMARK    1  A    between atoms: C_1  and  N_2
REMARK    2  A    between atoms: N_2  and  C_11
REMARK    3  A    between atoms: C_3  and  C_5
REMARK                            x       y       z     vdW  Elec       q    Type
REMARK                         _______ _______ _______ _____ _____    ______ ____
ROOT
ATOM      1  C   UNL     1       2.745   6.633  18.856  0.00  0.00    +0.000 C 
ATOM      2  N   UNL     1       3.667   5.768  18.117  0.00  0.00    +0.000 N 
ATOM      3  C   UNL     1       4.569   6.422  17.237  0.00  0.00    +0.000 C 
ATOM      4  O   UNL     1       4.628   7.649  17.201  0.00  0.00    +0.000 OA
ENDROOT
BRANCH   2   5
ATOM      5  C   UNL     1       3.699   4.308  18.400  0.00  0.00    +0.000 C 
ATOM      6  C   UNL     1       2.739   3.488  17.515  0.00  0.00    +0.000 C 
ATOM      7  C   UNL     1       1.361   3.559  18.153  0.00  0.00    +0.000 C 
ATOM      8  S   UNL     1       1.670   3.496  19.909  0.00  0.00    +0.000 S 
ATOM      9  O   UNL     1       1.524   2.126  20.353  0.00  0.00    +0.000 OA
ATOM     10  O   UNL     1       0.971   4.589  20.550  0.00  0.00    +0.000 OA
ATOM     11  C   UNL     1       3.408   3.882  19.842  0.00  0.00    +0.000 C 
ENDBRANCH   2   5
BRANCH   3  12
ATOM     12  C   UNL     1       5.465   5.631  16.410  0.00  0.00    +0.000 A 
ATOM     13  C   UNL     1       6.763   5.217  16.652  0.00  0.00    +0.000 A 
ATOM     14  C   UNL     1       7.173   4.462  15.524  0.00  0.00    +0.000 A 
ATOM     15  C   UNL     1       6.120   4.501  14.640  0.00  0.00    +0.000 A 
ATOM     16 BR   UNL     1       6.071   3.670  12.973  0.00  0.00    +0.000 Br
ATOM     17  O   UNL     1       5.095   5.224  15.159  0.00  0.00    +0.000 OA
ENDBRANCH   3  12
TORSDOF 2
ENDMDL
MODEL 5
REMARK VINA RESULT:      -6.2      1.622      1.859
REMARK  Name = 
REMARK  3 active torsions:
REMARK  status: ('A' for Active; 'I' for Inactive)
REMARK    1  A    between atoms: C_1  and  N_2
REMARK    2  A    between atoms: N_2  and  C_11
REMARK    3  A    between atoms: C_3  and  C_5
REMARK                            x       y       z     vdW  Elec       q    Type
REMARK                         _______ _______ _______ _____ _____    ______ ____
ROOT
ATOM      1  C   UNL     1       5.744   4.754  19.183  0.00  0.00    +0.000 C 
ATOM      2  N   UNL     1       5.642   4.723  17.722  0.00  0.00    +0.000 N 
ATOM      3  C   UNL     1       6.854   4.519  17.014  0.00  0.00    +0.000 C 
ATOM      4  O   UNL     1       7.897   4.272  17.617  0.00  0.00    +0.000 OA
ENDROOT
BRANCH   2   5
ATOM      5  C   UNL     1       4.305   4.785  17.073  0.00  0.00    +0.000 C 
ATOM      6  C   UNL     1       3.364   5.833  17.700  0.00  0.00    +0.000 C 
ATOM      7  C   UNL     1       2.718   5.194  18.919  0.00  0.00    +0.000 C 
ATOM      8  S   UNL     1       2.424   3.500  18.441  0.00  0.00    +0.000 S 
ATOM      9  O   UNL     1       1.058   3.384  17.975  0.00  0.00    +0.000 OA
ATOM     10  O   UNL     1       2.966   2.623  19.457  0.00  0.00    +0.000 OA
ATOM     11  C   UNL     1       3.505   3.479  17.024  0.00  0.00    +0.000 C 
ENDBRANCH   2   5
BRANCH   3  12
ATOM     12  C   UNL     1       6.851   4.551  15.561  0.00  0.00    +0.000 A 
ATOM     13  C   UNL     1       7.480   5.424  14.691  0.00  0.00    +0.000 A 
ATOM     14  C   UNL     1       7.156   5.002  13.377  0.00  0.00    +0.000 A 
ATOM     15  C   UNL     1       6.311   3.928  13.522  0.00  0.00    +0.000 A 
ATOM     16 BR   UNL     1       5.561   2.941  12.131  0.00  0.00    +0.000 Br
ATOM     17  O   UNL     1       6.104   3.665  14.837  0.00  0.00    +0.000 OA
ENDBRANCH   3  12
TORSDOF 2
ENDMDL
MODEL 6
REMARK VINA RESULT:      -6.1      3.321      4.150
REMARK  Name = 
REMARK  3 active torsions:
REMARK  status: ('A' for Active; 'I' for Inactive)
REMARK    1  A    between atoms: C_1  and  N_2
REMARK    2  A    between atoms: N_2  and  C_11
REMARK    3  A    between atoms: C_3  and  C_5
REMARK                            x       y       z     vdW  Elec       q    Type
REMARK                         _______ _______ _______ _____ _____    ______ ____
ROOT
ATOM      1  C   UNL     1       4.507   4.391  15.861  0.00  0.00    +0.000 C 
ATOM      2  N   UNL     1       5.179   5.304  16.789  0.00  0.00    +0.000 N 
ATOM      3  C   UNL     1       6.453   5.780  16.384  0.00  0.00    +0.000 C 
ATOM      4  O   UNL     1       6.895   5.517  15.267  0.00  0.00    +0.000 OA
ENDROOT
BRANCH   2   5
ATOM      5  C   UNL     1       4.472   5.770  18.011  0.00  0.00    +0.000 C 
ATOM      6  C   UNL     1       4.773   4.916  19.260  0.00  0.00    +0.000 C 
ATOM      7  C   UNL     1       3.854   3.706  19.216  0.00  0.00    +0.000 C 
ATOM      8  S   UNL     1       2.311   4.331  18.575  0.00  0.00    +0.000 S 
ATOM      9  O   UNL     1       1.438   4.633  19.690  0.00  0.00    +0.000 OA
ATOM     10  O   UNL     1       1.887   3.496  17.472  0.00  0.00    +0.000 OA
ATOM     11  C   UNL     1       2.945   5.865  17.927  0.00  0.00    +0.000 C 
ENDBRANCH   2   5
BRANCH   3  12
ATOM     12  C   UNL     1       7.220   6.630  17.281  0.00  0.00    +0.000 A 
ATOM     13  C   UNL     1       7.842   6.323  18.479  0.00  0.00    +0.000 A 
ATOM     14  C   UNL     1       8.458   7.513  18.940  0.00  0.00    +0.000 A 
ATOM     15  C   UNL     1       8.136   8.487  18.023  0.00  0.00    +0.000 A 
ATOM     16 BR   UNL     1       8.680  10.267  18.094  0.00  0.00    +0.000 Br
ATOM     17  O   UNL     1       7.370   7.965  17.032  0.00  0.00    +0.000 OA
ENDBRANCH   3  12
TORSDOF 2
ENDMDL
MODEL 7
REMARK VINA RESULT:      -6.1      3.628      5.948
REMARK  Name = 
REMARK  3 active torsions:
REMARK  status: ('A' for Active; 'I' for Inactive)
REMARK    1  A    between atoms: C_1  and  N_2
REMARK    2  A    between atoms: N_2  and  C_11
REMARK    3  A    between atoms: C_3  and  C_5
REMARK                            x       y       z     vdW  Elec       q    Type
REMARK                         _______ _______ _______ _____ _____    ______ ____
ROOT
ATOM      1  C   UNL     1       4.589   7.614  16.894  0.00  0.00    +0.000 C 
ATOM      2  N   UNL     1       4.017   6.479  17.623  0.00  0.00    +0.000 N 
ATOM      3  C   UNL     1       2.755   6.699  18.232  0.00  0.00    +0.000 C 
ATOM      4  O   UNL     1       2.146   7.752  18.050  0.00  0.00    +0.000 OA
ENDROOT
BRANCH   2   5
ATOM      5  C   UNL     1       4.702   5.159  17.591  0.00  0.00    +0.000 C 
ATOM      6  C   UNL     1       5.422   4.808  18.908  0.00  0.00    +0.000 C 
ATOM      7  C   UNL     1       6.781   5.488  18.879  0.00  0.00    +0.000 C 
ATOM      8  S   UNL     1       7.320   5.355  17.184  0.00  0.00    +0.000 S 
ATOM      9  O   UNL     1       8.183   4.198  17.064  0.00  0.00    +0.000 OA
ATOM     10  O   UNL     1       7.721   6.663  16.712  0.00  0.00    +0.000 OA
ATOM     11  C   UNL     1       5.735   4.948  16.478  0.00  0.00    +0.000 C 
ENDBRANCH   2   5
BRANCH   3  12
ATOM     12  C   UNL     1       2.154   5.649  19.037  0.00  0.00    +0.000 A 
ATOM     13  C   UNL     1       1.887   5.613  20.394  0.00  0.00    +0.000 A 
ATOM     14  C   UNL     1       1.286   4.358  20.664  0.00  0.00    +0.000 A 
ATOM     15  C   UNL     1       1.267   3.682  19.467  0.00  0.00    +0.000 A 
ATOM     16 BR   UNL     1       0.579   1.972  19.197  0.00  0.00    +0.000 Br
ATOM     17  O   UNL     1       1.810   4.446  18.486  0.00  0.00    +0.000 OA
ENDBRANCH   3  12
TORSDOF 2
ENDMDL
MODEL 8
REMARK VINA RESULT:      -6.0      2.368      3.330
REMARK  Name = 
REMARK  3 active torsions:
REMARK  status: ('A' for Active; 'I' for Inactive)
REMARK    1  A    between atoms: C_1  and  N_2
REMARK    2  A    between atoms: N_2  and  C_11
REMARK    3  A    between atoms: C_3  and  C_5
REMARK                            x       y       z     vdW  Elec       q    Type
REMARK                         _______ _______ _______ _____ _____    ______ ____
ROOT
ATOM      1  C   UNL     1       2.934   3.232  16.648  0.00  0.00    +0.000 C 
ATOM      2  N   UNL     1       3.923   4.045  17.361  0.00  0.00    +0.000 N 
ATOM      3  C   UNL     1       5.042   4.475  16.602  0.00  0.00    +0.000 C 
ATOM      4  O   UNL     1       5.098   4.262  15.392  0.00  0.00    +0.000 OA
ENDROOT
BRANCH   2   5
ATOM      5  C   UNL     1       3.661   4.467  18.762  0.00  0.00    +0.000 C 
ATOM      6  C   UNL     1       4.184   3.468  19.814  0.00  0.00    +0.000 C 
ATOM      7  C   UNL     1       3.134   2.381  19.969  0.00  0.00    +0.000 C 
ATOM      8  S   UNL     1       1.573   3.235  19.848  0.00  0.00    +0.000 S 
ATOM      9  O   UNL     1       1.101   3.526  21.185  0.00  0.00    +0.000 OA
ATOM     10  O   UNL     1       0.744   2.564  18.870  0.00  0.00    +0.000 OA
ATOM     11  C   UNL     1       2.201   4.743  19.135  0.00  0.00    +0.000 C 
ENDBRANCH   2   5
BRANCH   3  12
ATOM     12  C   UNL     1       6.107   5.221  17.253  0.00  0.00    +0.000 A 
ATOM     13  C   UNL     1       7.065   4.795  18.156  0.00  0.00    +0.000 A 
ATOM     14  C   UNL     1       7.866   5.921  18.469  0.00  0.00    +0.000 A 
ATOM     15  C   UNL     1       7.321   6.978  17.778  0.00  0.00    +0.000 A 
ATOM     16 BR   UNL     1       7.961   8.727  17.789  0.00  0.00    +0.000 Br
ATOM     17  O   UNL     1       6.246   6.567  17.060  0.00  0.00    +0.000 OA
ENDBRANCH   3  12
TORSDOF 2
ENDMDL
MODEL 9
REMARK VINA RESULT:      -5.9      3.638      5.697
REMARK  Name = 
REMARK  3 active torsions:
REMARK  status: ('A' for Active; 'I' for Inactive)
REMARK    1  A    between atoms: C_1  and  N_2
REMARK    2  A    between atoms: N_2  and  C_11
REMARK    3  A    between atoms: C_3  and  C_5
REMARK                            x       y       z     vdW  Elec       q    Type
REMARK                         _______ _______ _______ _____ _____    ______ ____
ROOT
ATOM      1  C   UNL     1       3.908   2.988  17.335  0.00  0.00    +0.000 C 
ATOM      2  N   UNL     1       3.775   4.350  17.859  0.00  0.00    +0.000 N 
ATOM      3  C   UNL     1       2.535   4.664  18.474  0.00  0.00    +0.000 C 
ATOM      4  O   UNL     1       1.682   3.795  18.645  0.00  0.00    +0.000 OA
ENDROOT
BRANCH   2   5
ATOM      5  C   UNL     1       4.943   5.270  17.832  0.00  0.00    +0.000 C 
ATOM      6  C   UNL     1       4.759   6.469  16.880  0.00  0.00    +0.000 C 
ATOM      7  C   UNL     1       5.125   6.000  15.482  0.00  0.00    +0.000 C 
ATOM      8  S   UNL     1       6.510   4.901  15.719  0.00  0.00    +0.000 S 
ATOM      9  O   UNL     1       7.733   5.648  15.511  0.00  0.00    +0.000 OA
ATOM     10  O   UNL     1       6.246   3.655  15.032  0.00  0.00    +0.000 OA
ATOM     11  C   UNL     1       6.297   4.650  17.470  0.00  0.00    +0.000 C 
ENDBRANCH   2   5
BRANCH   3  12
ATOM     12  C   UNL     1       2.294   6.016  18.951  0.00  0.00    +0.000 A 
ATOM     13  C   UNL     1       2.143   6.488  20.243  0.00  0.00    +0.000 A 
ATOM     14  C   UNL     1       1.938   7.887  20.150  0.00  0.00    +0.000 A 
ATOM     15  C   UNL     1       1.926   8.180  18.807  0.00  0.00    +0.000 A 
ATOM     16 BR   UNL     1       1.706   9.875  18.067  0.00  0.00    +0.000 Br
ATOM     17  O   UNL     1       2.118   7.052  18.077  0.00  0.00    +0.000 OA
ENDBRANCH   3  12
TORSDOF 2
ENDMDL
