MODEL 1
REMARK VINA RESULT:      -6.7      0.000      0.000
REMARK  Name = 
REMARK  10 active torsions:
REMARK  status: ('A' for Active; 'I' for Inactive)
REMARK    1  A    between atoms: C_1  and  O_2
REMARK    2  A    between atoms: O_2  and  C_3
REMARK    3  A    between atoms: C_3  and  C_5
REMARK    4  A    between atoms: C_6  and  S_7
REMARK    5  A    between atoms: S_7  and  N_10
REMARK    6  A    between atoms: N_13  and  C_14
REMARK    7  A    between atoms: N_22  and  C_23
REMARK    8  A    between atoms: C_23  and  C_24
REMARK    9  A    between atoms: C_24  and  C_25
REMARK   10  A    between atoms: C_25  and  C_26
REMARK                            x       y       z     vdW  Elec       q    Type
REMARK                         _______ _______ _______ _____ _____    ______ ____
ROOT
ATOM      1  C   UNL     1       1.035   8.726  20.205  0.00  0.00    +0.000 A 
ATOM      2  C   UNL     1       0.717   9.687  19.247  0.00  0.00    +0.000 A 
ATOM      3  S   UNL     1       1.780   9.604  17.901  0.00  0.00    +0.000 S 
ATOM      4  C   UNL     1       2.525   8.193  18.488  0.00  0.00    +0.000 A 
ATOM      5  C   UNL     1       2.047   7.825  19.728  0.00  0.00    +0.000 A 
ATOM      6  C   UNL     1       2.436   6.507  20.348  0.00  0.00    +0.000 C 
ATOM      7  C   UNL     1       3.545   5.791  19.542  0.00  0.00    +0.000 C 
ATOM      8  N   UNL     1       3.449   5.935  18.066  0.00  0.00    +0.000 NA
ATOM      9  C   UNL     1       3.529   7.383  17.715  0.00  0.00    +0.000 C 
ENDROOT
BRANCH   2  10
ATOM     10  S   UNL     1      -0.596  10.916  19.192  0.00  0.00    +0.000 S 
ATOM     11  O   UNL     1      -0.061  11.943  18.324  0.00  0.00    +0.000 OA
ATOM     12  O   UNL     1      -1.765  10.144  18.833  0.00  0.00    +0.000 OA
BRANCH  10  13
ATOM     13  N   UNL     1      -0.836  11.613  20.727  0.00  0.00    +0.000 NA
ATOM     14  C   UNL     1      -2.135  12.287  20.988  0.00  0.00    +0.000 C 
ATOM     15  C   UNL     1      -2.167  13.734  20.445  0.00  0.00    +0.000 C 
ATOM     16  N   UNL     1      -0.982  14.574  20.711  0.00  0.00    +0.000 NA
ATOM     17  C   UNL     1      -0.948  15.728  19.799  0.00  0.00    +0.000 C 
ATOM     18  C   UNL     1       0.301  13.844  20.644  0.00  0.00    +0.000 C 
ATOM     19  C   UNL     1       0.282  12.436  21.274  0.00  0.00    +0.000 C 
ENDBRANCH  10  13
ENDBRANCH   2  10
BRANCH   1  20
ATOM     20  C   UNL     1       0.333   8.530  21.466  0.00  0.00    +0.000 C 
ATOM     21  O   UNL     1      -0.761   7.988  21.537  0.00  0.00    +0.000 OA
BRANCH  20  23
ATOM     22  C   UNL     1       0.106   9.528  23.576  0.00  0.00    +0.000 C 
ATOM     23  O   UNL     1       0.946   9.171  22.486  0.00  0.00    +0.000 OA
ENDBRANCH  20  23
ENDBRANCH   1  20
BRANCH   8  24
ATOM     24  C   UNL     1       2.242   5.263  17.540  0.00  0.00    +0.000 C 
BRANCH  24  25
ATOM     25  C   UNL     1       2.533   3.845  17.045  0.00  0.00    +0.000 C 
BRANCH  25  26
ATOM     26  C   UNL     1       1.660   2.786  17.723  0.00  0.00    +0.000 C 
BRANCH  26  27
ATOM     27  C   UNL     1       1.960   2.772  19.203  0.00  0.00    +0.000 A 
ATOM     28  C   UNL     1       3.226   2.390  19.666  0.00  0.00    +0.000 A 
ATOM     29  C   UNL     1       3.470   2.259  21.033  0.00  0.00    +0.000 A 
ATOM     30  C   UNL     1       2.451   2.518  21.953  0.00  0.00    +0.000 A 
ATOM     31  C   UNL     1       1.190   2.910  21.504  0.00  0.00    +0.000 A 
ATOM     32  C   UNL     1       0.945   3.039  20.135  0.00  0.00    +0.000 A 
ENDBRANCH  26  27
ENDBRANCH  25  26
ENDBRANCH  24  25
ENDBRANCH   8  24
TORSDOF 8
ENDMDL
MODEL 2
REMARK VINA RESULT:      -6.7      0.965      1.661
REMARK  Name = 
REMARK  10 active torsions:
REMARK  status: ('A' for Active; 'I' for Inactive)
REMARK    1  A    between atoms: C_1  and  O_2
REMARK    2  A    between atoms: O_2  and  C_3
REMARK    3  A    between atoms: C_3  and  C_5
REMARK    4  A    between atoms: C_6  and  S_7
REMARK    5  A    between atoms: S_7  and  N_10
REMARK    6  A    between atoms: N_13  and  C_14
REMARK    7  A    between atoms: N_22  and  C_23
REMARK    8  A    between atoms: C_23  and  C_24
REMARK    9  A    between atoms: C_24  and  C_25
REMARK   10  A    between atoms: C_25  and  C_26
REMARK                            x       y       z     vdW  Elec       q    Type
REMARK                         _______ _______ _______ _____ _____    ______ ____
ROOT
ATOM      1  C   UNL     1       1.100   8.757  20.150  0.00  0.00    +0.000 A 
ATOM      2  C   UNL     1       0.846   9.673  19.131  0.00  0.00    +0.000 A 
ATOM      3  S   UNL     1       1.926   9.462  17.813  0.00  0.00    +0.000 S 
ATOM      4  C   UNL     1       2.592   8.054  18.496  0.00  0.00    +0.000 A 
ATOM      5  C   UNL     1       2.076   7.783  19.745  0.00  0.00    +0.000 A 
ATOM      6  C   UNL     1       2.390   6.487  20.449  0.00  0.00    +0.000 C 
ATOM      7  C   UNL     1       3.477   5.674  19.708  0.00  0.00    +0.000 C 
ATOM      8  N   UNL     1       3.414   5.735  18.224  0.00  0.00    +0.000 NA
ATOM      9  C   UNL     1       3.569   7.154  17.791  0.00  0.00    +0.000 C 
ENDROOT
BRANCH   2  10
ATOM     10  S   UNL     1      -0.405  10.958  18.979  0.00  0.00    +0.000 S 
ATOM     11  O   UNL     1      -1.152  10.565  17.803  0.00  0.00    +0.000 OA
ATOM     12  O   UNL     1      -1.011  10.994  20.292  0.00  0.00    +0.000 OA
BRANCH  10  13
ATOM     13  N   UNL     1       0.313  12.466  18.653  0.00  0.00    +0.000 NA
ATOM     14  C   UNL     1       1.584  12.796  19.349  0.00  0.00    +0.000 C 
ATOM     15  C   UNL     1       1.351  13.337  20.778  0.00  0.00    +0.000 C 
ATOM     16  N   UNL     1       0.288  14.348  20.945  0.00  0.00    +0.000 NA
ATOM     17  C   UNL     1      -0.120  14.448  22.354  0.00  0.00    +0.000 C 
ATOM     18  C   UNL     1      -0.898  14.120  20.094  0.00  0.00    +0.000 C 
ATOM     19  C   UNL     1      -0.589  13.655  18.656  0.00  0.00    +0.000 C 
ENDBRANCH  10  13
ENDBRANCH   2  10
BRANCH   1  20
ATOM     20  C   UNL     1       0.368   8.668  21.406  0.00  0.00    +0.000 C 
ATOM     21  O   UNL     1      -0.656   8.013  21.529  0.00  0.00    +0.000 OA
BRANCH  20  23
ATOM     22  C   UNL     1       0.218   9.478  23.601  0.00  0.00    +0.000 C 
ATOM     23  O   UNL     1       0.853   9.527  22.330  0.00  0.00    +0.000 OA
ENDBRANCH  20  23
ENDBRANCH   1  20
BRANCH   8  24
ATOM     24  C   UNL     1       2.185   5.090  17.714  0.00  0.00    +0.000 C 
BRANCH  24  25
ATOM     25  C   UNL     1       2.461   3.724  17.083  0.00  0.00    +0.000 C 
BRANCH  25  26
ATOM     26  C   UNL     1       1.623   2.602  17.701  0.00  0.00    +0.000 C 
BRANCH  26  27
ATOM     27  C   UNL     1       1.895   2.541  19.185  0.00  0.00    +0.000 A 
ATOM     28  C   UNL     1       0.896   2.889  20.104  0.00  0.00    +0.000 A 
ATOM     29  C   UNL     1       1.180   2.951  21.467  0.00  0.00    +0.000 A 
ATOM     30  C   UNL     1       2.465   2.657  21.929  0.00  0.00    +0.000 A 
ATOM     31  C   UNL     1       3.465   2.299  21.024  0.00  0.00    +0.000 A 
ATOM     32  C   UNL     1       3.181   2.240  19.658  0.00  0.00    +0.000 A 
ENDBRANCH  26  27
ENDBRANCH  25  26
ENDBRANCH  24  25
ENDBRANCH   8  24
TORSDOF 8
ENDMDL
MODEL 3
REMARK VINA RESULT:      -6.3      1.976      3.231
REMARK  Name = 
REMARK  10 active torsions:
REMARK  status: ('A' for Active; 'I' for Inactive)
REMARK    1  A    between atoms: C_1  and  O_2
REMARK    2  A    between atoms: O_2  and  C_3
REMARK    3  A    between atoms: C_3  and  C_5
REMARK    4  A    between atoms: C_6  and  S_7
REMARK    5  A    between atoms: S_7  and  N_10
REMARK    6  A    between atoms: N_13  and  C_14
REMARK    7  A    between atoms: N_22  and  C_23
REMARK    8  A    between atoms: C_23  and  C_24
REMARK    9  A    between atoms: C_24  and  C_25
REMARK   10  A    between atoms: C_25  and  C_26
REMARK                            x       y       z     vdW  Elec       q    Type
REMARK                         _______ _______ _______ _____ _____    ______ ____
ROOT
ATOM      1  C   UNL     1       0.989   8.669  20.223  0.00  0.00    +0.000 A 
ATOM      2  C   UNL     1       0.794   9.564  19.172  0.00  0.00    +0.000 A 
ATOM      3  S   UNL     1       1.935   9.312  17.914  0.00  0.00    +0.000 S 
ATOM      4  C   UNL     1       2.552   7.914  18.662  0.00  0.00    +0.000 A 
ATOM      5  C   UNL     1       1.973   7.677  19.890  0.00  0.00    +0.000 A 
ATOM      6  C   UNL     1       2.239   6.396  20.638  0.00  0.00    +0.000 C 
ATOM      7  C   UNL     1       3.353   5.555  19.970  0.00  0.00    +0.000 C 
ATOM      8  N   UNL     1       3.363   5.582  18.484  0.00  0.00    +0.000 NA
ATOM      9  C   UNL     1       3.554   6.989  18.026  0.00  0.00    +0.000 C 
ENDROOT
BRANCH   2  10
ATOM     10  S   UNL     1      -0.435  10.855  18.929  0.00  0.00    +0.000 S 
ATOM     11  O   UNL     1      -1.112  10.454  17.714  0.00  0.00    +0.000 OA
ATOM     12  O   UNL     1      -1.121  10.911  20.202  0.00  0.00    +0.000 OA
BRANCH  10  13
ATOM     13  N   UNL     1       0.314  12.355  18.632  0.00  0.00    +0.000 NA
ATOM     14  C   UNL     1       1.572  12.660  19.361  0.00  0.00    +0.000 C 
ATOM     15  C   UNL     1       1.313  13.194  20.788  0.00  0.00    +0.000 C 
ATOM     16  N   UNL     1       0.262  14.221  20.936  0.00  0.00    +0.000 NA
ATOM     17  C   UNL     1      -0.178  14.317  22.336  0.00  0.00    +0.000 C 
ATOM     18  C   UNL     1      -0.907  14.017  20.055  0.00  0.00    +0.000 C 
ATOM     19  C   UNL     1      -0.570  13.557  18.622  0.00  0.00    +0.000 C 
ENDBRANCH  10  13
ENDBRANCH   2  10
BRANCH   1  20
ATOM     20  C   UNL     1       0.196   8.617  21.443  0.00  0.00    +0.000 C 
ATOM     21  O   UNL     1      -0.852   7.991  21.525  0.00  0.00    +0.000 OA
BRANCH  20  23
ATOM     22  C   UNL     1      -0.290   9.884  23.356  0.00  0.00    +0.000 C 
ATOM     23  O   UNL     1       0.660   9.474  22.379  0.00  0.00    +0.000 OA
ENDBRANCH  20  23
ENDBRANCH   1  20
BRANCH   8  24
ATOM     24  C   UNL     1       2.154   4.937  17.929  0.00  0.00    +0.000 C 
BRANCH  24  25
ATOM     25  C   UNL     1       2.486   3.706  17.082  0.00  0.00    +0.000 C 
BRANCH  25  26
ATOM     26  C   UNL     1       3.832   3.077  17.446  0.00  0.00    +0.000 C 
BRANCH  26  27
ATOM     27  C   UNL     1       4.931   3.793  16.696  0.00  0.00    +0.000 A 
ATOM     28  C   UNL     1       4.802   4.051  15.325  0.00  0.00    +0.000 A 
ATOM     29  C   UNL     1       5.862   4.601  14.605  0.00  0.00    +0.000 A 
ATOM     30  C   UNL     1       7.062   4.908  15.252  0.00  0.00    +0.000 A 
ATOM     31  C   UNL     1       7.197   4.665  16.619  0.00  0.00    +0.000 A 
ATOM     32  C   UNL     1       6.137   4.112  17.339  0.00  0.00    +0.000 A 
ENDBRANCH  26  27
ENDBRANCH  25  26
ENDBRANCH  24  25
ENDBRANCH   8  24
TORSDOF 8
ENDMDL
MODEL 4
REMARK VINA RESULT:      -6.3      2.990      4.789
REMARK  Name = 
REMARK  10 active torsions:
REMARK  status: ('A' for Active; 'I' for Inactive)
REMARK    1  A    between atoms: C_1  and  O_2
REMARK    2  A    between atoms: O_2  and  C_3
REMARK    3  A    between atoms: C_3  and  C_5
REMARK    4  A    between atoms: C_6  and  S_7
REMARK    5  A    between atoms: S_7  and  N_10
REMARK    6  A    between atoms: N_13  and  C_14
REMARK    7  A    between atoms: N_22  and  C_23
REMARK    8  A    between atoms: C_23  and  C_24
REMARK    9  A    between atoms: C_24  and  C_25
REMARK   10  A    between atoms: C_25  and  C_26
REMARK                            x       y       z     vdW  Elec       q    Type
REMARK                         _______ _______ _______ _____ _____    ______ ____
ROOT
ATOM      1  C   UNL     1       0.692  13.200  20.276  0.00  0.00    +0.000 A 
ATOM      2  C   UNL     1      -0.558  13.135  20.889  0.00  0.00    +0.000 A 
ATOM      3  S   UNL     1      -1.555  11.945  20.155  0.00  0.00    +0.000 S 
ATOM      4  C   UNL     1      -0.284  11.390  19.170  0.00  0.00    +0.000 A 
ATOM      5  C   UNL     1       0.862  12.141  19.320  0.00  0.00    +0.000 A 
ATOM      6  C   UNL     1       2.158  11.712  18.681  0.00  0.00    +0.000 C 
ATOM      7  C   UNL     1       1.964  10.514  17.721  0.00  0.00    +0.000 C 
ATOM      8  N   UNL     1       0.965   9.506  18.161  0.00  0.00    +0.000 NA
ATOM      9  C   UNL     1      -0.365  10.168  18.296  0.00  0.00    +0.000 C 
ENDROOT
BRANCH   2  10
ATOM     10  S   UNL     1      -1.239  14.039  22.287  0.00  0.00    +0.000 S 
ATOM     11  O   UNL     1      -0.475  13.545  23.414  0.00  0.00    +0.000 OA
ATOM     12  O   UNL     1      -1.168  15.420  21.862  0.00  0.00    +0.000 OA
BRANCH  10  13
ATOM     13  N   UNL     1      -2.868  13.617  22.545  0.00  0.00    +0.000 NA
ATOM     14  C   UNL     1      -3.914  14.482  21.940  0.00  0.00    +0.000 C 
ATOM     15  C   UNL     1      -4.214  15.731  22.799  0.00  0.00    +0.000 C 
ATOM     16  N   UNL     1      -4.365  15.523  24.253  0.00  0.00    +0.000 NA
ATOM     17  C   UNL     1      -4.210  16.792  24.980  0.00  0.00    +0.000 C 
ATOM     18  C   UNL     1      -3.449  14.508  24.814  0.00  0.00    +0.000 C 
ATOM     19  C   UNL     1      -3.255  13.252  23.939  0.00  0.00    +0.000 C 
ENDBRANCH  10  13
ENDBRANCH   2  10
BRANCH   1  20
ATOM     20  C   UNL     1       1.770  14.103  20.654  0.00  0.00    +0.000 C 
ATOM     21  O   UNL     1       2.555  13.855  21.557  0.00  0.00    +0.000 OA
BRANCH  20  23
ATOM     22  C   UNL     1       2.600  15.499  18.962  0.00  0.00    +0.000 C 
ATOM     23  O   UNL     1       1.672  15.293  20.019  0.00  0.00    +0.000 OA
ENDBRANCH  20  23
ENDBRANCH   1  20
BRANCH   8  24
ATOM     24  C   UNL     1       1.409   8.812  19.388  0.00  0.00    +0.000 C 
BRANCH  24  25
ATOM     25  C   UNL     1       2.309   7.612  19.087  0.00  0.00    +0.000 C 
BRANCH  25  26
ATOM     26  C   UNL     1       2.288   6.557  20.197  0.00  0.00    +0.000 C 
BRANCH  26  27
ATOM     27  C   UNL     1       1.813   5.245  19.621  0.00  0.00    +0.000 A 
ATOM     28  C   UNL     1       1.204   4.288  20.445  0.00  0.00    +0.000 A 
ATOM     29  C   UNL     1       0.875   3.029  19.945  0.00  0.00    +0.000 A 
ATOM     30  C   UNL     1       1.143   2.715  18.610  0.00  0.00    +0.000 A 
ATOM     31  C   UNL     1       1.738   3.664  17.778  0.00  0.00    +0.000 A 
ATOM     32  C   UNL     1       2.070   4.923  18.280  0.00  0.00    +0.000 A 
ENDBRANCH  26  27
ENDBRANCH  25  26
ENDBRANCH  24  25
ENDBRANCH   8  24
TORSDOF 8
ENDMDL
MODEL 5
REMARK VINA RESULT:      -6.3      1.697      2.841
REMARK  Name = 
REMARK  10 active torsions:
REMARK  status: ('A' for Active; 'I' for Inactive)
REMARK    1  A    between atoms: C_1  and  O_2
REMARK    2  A    between atoms: O_2  and  C_3
REMARK    3  A    between atoms: C_3  and  C_5
REMARK    4  A    between atoms: C_6  and  S_7
REMARK    5  A    between atoms: S_7  and  N_10
REMARK    6  A    between atoms: N_13  and  C_14
REMARK    7  A    between atoms: N_22  and  C_23
REMARK    8  A    between atoms: C_23  and  C_24
REMARK    9  A    between atoms: C_24  and  C_25
REMARK   10  A    between atoms: C_25  and  C_26
REMARK                            x       y       z     vdW  Elec       q    Type
REMARK                         _______ _______ _______ _____ _____    ______ ____
ROOT
ATOM      1  C   UNL     1       0.986   8.681  20.297  0.00  0.00    +0.000 A 
ATOM      2  C   UNL     1       0.727   9.611  19.292  0.00  0.00    +0.000 A 
ATOM      3  S   UNL     1       1.828   9.443  17.984  0.00  0.00    +0.000 S 
ATOM      4  C   UNL     1       2.511   8.036  18.651  0.00  0.00    +0.000 A 
ATOM      5  C   UNL     1       1.985   7.733  19.888  0.00  0.00    +0.000 A 
ATOM      6  C   UNL     1       2.314   6.431  20.573  0.00  0.00    +0.000 C 
ATOM      7  C   UNL     1       3.426   5.651  19.831  0.00  0.00    +0.000 C 
ATOM      8  N   UNL     1       3.380   5.738  18.348  0.00  0.00    +0.000 NA
ATOM      9  C   UNL     1       3.514   7.167  17.943  0.00  0.00    +0.000 C 
ENDROOT
BRANCH   2  10
ATOM     10  S   UNL     1      -0.546  10.874  19.146  0.00  0.00    +0.000 S 
ATOM     11  O   UNL     1       0.060  11.867  18.284  0.00  0.00    +0.000 OA
ATOM     12  O   UNL     1      -1.718  10.127  18.745  0.00  0.00    +0.000 OA
BRANCH  10  13
ATOM     13  N   UNL     1      -0.842  11.611  20.652  0.00  0.00    +0.000 NA
ATOM     14  C   UNL     1      -2.123  12.344  20.827  0.00  0.00    +0.000 C 
ATOM     15  C   UNL     1      -2.064  13.779  20.257  0.00  0.00    +0.000 C 
ATOM     16  N   UNL     1      -0.862  14.576  20.574  0.00  0.00    +0.000 NA
ATOM     17  C   UNL     1      -0.728  15.708  19.646  0.00  0.00    +0.000 C 
ATOM     18  C   UNL     1       0.391  13.792  20.593  0.00  0.00    +0.000 C 
ATOM     19  C   UNL     1       0.278  12.399  21.246  0.00  0.00    +0.000 C 
ENDBRANCH  10  13
ENDBRANCH   2  10
BRANCH   1  20
ATOM     20  C   UNL     1       0.240   8.557  21.542  0.00  0.00    +0.000 C 
ATOM     21  O   UNL     1      -0.868   8.043  21.600  0.00  0.00    +0.000 OA
BRANCH  20  23
ATOM     22  C   UNL     1      -0.021   9.603  23.624  0.00  0.00    +0.000 C 
ATOM     23  O   UNL     1       0.835   9.229  22.552  0.00  0.00    +0.000 OA
ENDBRANCH  20  23
ENDBRANCH   1  20
BRANCH   8  24
ATOM     24  C   UNL     1       2.170   5.080  17.811  0.00  0.00    +0.000 C 
BRANCH  24  25
ATOM     25  C   UNL     1       2.496   3.798  17.041  0.00  0.00    +0.000 C 
BRANCH  25  26
ATOM     26  C   UNL     1       3.799   3.140  17.502  0.00  0.00    +0.000 C 
BRANCH  26  27
ATOM     27  C   UNL     1       4.951   3.727  16.722  0.00  0.00    +0.000 A 
ATOM     28  C   UNL     1       6.134   4.097  17.376  0.00  0.00    +0.000 A 
ATOM     29  C   UNL     1       7.152   4.751  16.682  0.00  0.00    +0.000 A 
ATOM     30  C   UNL     1       7.001   5.033  15.322  0.00  0.00    +0.000 A 
ATOM     31  C   UNL     1       5.832   4.659  14.658  0.00  0.00    +0.000 A 
ATOM     32  C   UNL     1       4.812   4.008  15.354  0.00  0.00    +0.000 A 
ENDBRANCH  26  27
ENDBRANCH  25  26
ENDBRANCH  24  25
ENDBRANCH   8  24
TORSDOF 8
ENDMDL
MODEL 6
REMARK VINA RESULT:      -6.2      3.101      4.952
REMARK  Name = 
REMARK  10 active torsions:
REMARK  status: ('A' for Active; 'I' for Inactive)
REMARK    1  A    between atoms: C_1  and  O_2
REMARK    2  A    between atoms: O_2  and  C_3
REMARK    3  A    between atoms: C_3  and  C_5
REMARK    4  A    between atoms: C_6  and  S_7
REMARK    5  A    between atoms: S_7  and  N_10
REMARK    6  A    between atoms: N_13  and  C_14
REMARK    7  A    between atoms: N_22  and  C_23
REMARK    8  A    between atoms: C_23  and  C_24
REMARK    9  A    between atoms: C_24  and  C_25
REMARK   10  A    between atoms: C_25  and  C_26
REMARK                            x       y       z     vdW  Elec       q    Type
REMARK                         _______ _______ _______ _____ _____    ______ ____
ROOT
ATOM      1  C   UNL     1       0.539  13.389  20.537  0.00  0.00    +0.000 A 
ATOM      2  C   UNL     1      -0.715  13.347  21.143  0.00  0.00    +0.000 A 
ATOM      3  S   UNL     1      -1.713  12.140  20.437  0.00  0.00    +0.000 S 
ATOM      4  C   UNL     1      -0.438  11.552  19.477  0.00  0.00    +0.000 A 
ATOM      5  C   UNL     1       0.710  12.303  19.612  0.00  0.00    +0.000 A 
ATOM      6  C   UNL     1       2.009  11.851  18.995  0.00  0.00    +0.000 C 
ATOM      7  C   UNL     1       1.816  10.627  18.068  0.00  0.00    +0.000 C 
ATOM      8  N   UNL     1       0.810   9.635  18.530  0.00  0.00    +0.000 NA
ATOM      9  C   UNL     1      -0.518  10.307  18.637  0.00  0.00    +0.000 C 
ENDROOT
BRANCH   2  10
ATOM     10  S   UNL     1      -1.402  14.293  22.511  0.00  0.00    +0.000 S 
ATOM     11  O   UNL     1      -0.644  13.833  23.655  0.00  0.00    +0.000 OA
ATOM     12  O   UNL     1      -1.328  15.661  22.044  0.00  0.00    +0.000 OA
BRANCH  10  13
ATOM     13  N   UNL     1      -3.032  13.880  22.773  0.00  0.00    +0.000 NA
ATOM     14  C   UNL     1      -4.074  14.708  22.113  0.00  0.00    +0.000 C 
ATOM     15  C   UNL     1      -4.387  16.001  22.900  0.00  0.00    +0.000 C 
ATOM     16  N   UNL     1      -4.553  15.870  24.361  0.00  0.00    +0.000 NA
ATOM     17  C   UNL     1      -4.408  17.177  25.021  0.00  0.00    +0.000 C 
ATOM     18  C   UNL     1      -3.640  14.890  24.985  0.00  0.00    +0.000 C 
ATOM     19  C   UNL     1      -3.433  13.589  24.181  0.00  0.00    +0.000 C 
ENDBRANCH  10  13
ENDBRANCH   2  10
BRANCH   1  20
ATOM     20  C   UNL     1       1.618  14.299  20.895  0.00  0.00    +0.000 C 
ATOM     21  O   UNL     1       2.135  14.308  22.003  0.00  0.00    +0.000 OA
BRANCH  20  23
ATOM     22  C   UNL     1       1.410  16.544  20.252  0.00  0.00    +0.000 C 
ATOM     23  O   UNL     1       1.833  15.224  19.934  0.00  0.00    +0.000 OA
ENDBRANCH  20  23
ENDBRANCH   1  20
BRANCH   8  24
ATOM     24  C   UNL     1       1.243   8.975  19.780  0.00  0.00    +0.000 C 
BRANCH  24  25
ATOM     25  C   UNL     1       2.080   7.721  19.518  0.00  0.00    +0.000 C 
BRANCH  25  26
ATOM     26  C   UNL     1       1.864   6.630  20.569  0.00  0.00    +0.000 C 
BRANCH  26  27
ATOM     27  C   UNL     1       1.724   5.296  19.876  0.00  0.00    +0.000 A 
ATOM     28  C   UNL     1       2.080   5.157  18.527  0.00  0.00    +0.000 A 
ATOM     29  C   UNL     1       1.837   3.962  17.851  0.00  0.00    +0.000 A 
ATOM     30  C   UNL     1       1.244   2.888  18.519  0.00  0.00    +0.000 A 
ATOM     31  C   UNL     1       0.897   3.011  19.865  0.00  0.00    +0.000 A 
ATOM     32  C   UNL     1       1.136   4.209  20.541  0.00  0.00    +0.000 A 
ENDBRANCH  26  27
ENDBRANCH  25  26
ENDBRANCH  24  25
ENDBRANCH   8  24
TORSDOF 8
ENDMDL
MODEL 7
REMARK VINA RESULT:      -6.2      1.955      3.031
REMARK  Name = 
REMARK  10 active torsions:
REMARK  status: ('A' for Active; 'I' for Inactive)
REMARK    1  A    between atoms: C_1  and  O_2
REMARK    2  A    between atoms: O_2  and  C_3
REMARK    3  A    between atoms: C_3  and  C_5
REMARK    4  A    between atoms: C_6  and  S_7
REMARK    5  A    between atoms: S_7  and  N_10
REMARK    6  A    between atoms: N_13  and  C_14
REMARK    7  A    between atoms: N_22  and  C_23
REMARK    8  A    between atoms: C_23  and  C_24
REMARK    9  A    between atoms: C_24  and  C_25
REMARK   10  A    between atoms: C_25  and  C_26
REMARK                            x       y       z     vdW  Elec       q    Type
REMARK                         _______ _______ _______ _____ _____    ______ ____
ROOT
ATOM      1  C   UNL     1       0.872   8.800  20.329  0.00  0.00    +0.000 A 
ATOM      2  C   UNL     1       0.696   9.733  19.309  0.00  0.00    +0.000 A 
ATOM      3  S   UNL     1       1.857   9.522  18.060  0.00  0.00    +0.000 S 
ATOM      4  C   UNL     1       2.457   8.095  18.766  0.00  0.00    +0.000 A 
ATOM      5  C   UNL     1       1.857   7.816  19.975  0.00  0.00    +0.000 A 
ATOM      6  C   UNL     1       2.107   6.507  20.680  0.00  0.00    +0.000 C 
ATOM      7  C   UNL     1       3.228   5.687  19.999  0.00  0.00    +0.000 C 
ATOM      8  N   UNL     1       3.261   5.768  18.516  0.00  0.00    +0.000 NA
ATOM      9  C   UNL     1       3.464   7.190  18.113  0.00  0.00    +0.000 C 
ENDROOT
BRANCH   2  10
ATOM     10  S   UNL     1      -0.523  11.038  19.094  0.00  0.00    +0.000 S 
ATOM     11  O   UNL     1      -0.229  11.563  17.777  0.00  0.00    +0.000 OA
ATOM     12  O   UNL     1      -1.777  10.379  19.391  0.00  0.00    +0.000 OA
BRANCH  10  13
ATOM     13  N   UNL     1      -0.272  12.292  20.217  0.00  0.00    +0.000 NA
ATOM     14  C   UNL     1      -0.783  13.645  19.874  0.00  0.00    +0.000 C 
ATOM     15  C   UNL     1       0.181  14.424  18.951  0.00  0.00    +0.000 C 
ATOM     16  N   UNL     1       1.616  14.388  19.300  0.00  0.00    +0.000 NA
ATOM     17  C   UNL     1       2.442  14.774  18.146  0.00  0.00    +0.000 C 
ATOM     18  C   UNL     1       2.073  13.087  19.831  0.00  0.00    +0.000 C 
ATOM     19  C   UNL     1       1.094  12.401  20.807  0.00  0.00    +0.000 C 
ENDBRANCH  10  13
ENDBRANCH   2  10
BRANCH   1  20
ATOM     20  C   UNL     1       0.059   8.707  21.534  0.00  0.00    +0.000 C 
ATOM     21  O   UNL     1      -0.913   7.970  21.620  0.00  0.00    +0.000 OA
BRANCH  20  23
ATOM     22  C   UNL     1      -0.679  10.199  23.185  0.00  0.00    +0.000 C 
ATOM     23  O   UNL     1       0.401   9.647  22.442  0.00  0.00    +0.000 OA
ENDBRANCH  20  23
ENDBRANCH   1  20
BRANCH   8  24
ATOM     24  C   UNL     1       2.059   5.148  17.919  0.00  0.00    +0.000 C 
BRANCH  24  25
ATOM     25  C   UNL     1       2.392   3.904  17.093  0.00  0.00    +0.000 C 
BRANCH  25  26
ATOM     26  C   UNL     1       3.667   3.200  17.563  0.00  0.00    +0.000 C 
BRANCH  26  27
ATOM     27  C   UNL     1       4.851   3.780  16.827  0.00  0.00    +0.000 A 
ATOM     28  C   UNL     1       6.032   4.090  17.515  0.00  0.00    +0.000 A 
ATOM     29  C   UNL     1       7.081   4.737  16.863  0.00  0.00    +0.000 A 
ATOM     30  C   UNL     1       6.966   5.072  15.512  0.00  0.00    +0.000 A 
ATOM     31  C   UNL     1       5.800   4.758  14.814  0.00  0.00    +0.000 A 
ATOM     32  C   UNL     1       4.747   4.113  15.467  0.00  0.00    +0.000 A 
ENDBRANCH  26  27
ENDBRANCH  25  26
ENDBRANCH  24  25
ENDBRANCH   8  24
TORSDOF 8
ENDMDL
MODEL 8
REMARK VINA RESULT:      -6.0      2.891      4.911
REMARK  Name = 
REMARK  10 active torsions:
REMARK  status: ('A' for Active; 'I' for Inactive)
REMARK    1  A    between atoms: C_1  and  O_2
REMARK    2  A    between atoms: O_2  and  C_3
REMARK    3  A    between atoms: C_3  and  C_5
REMARK    4  A    between atoms: C_6  and  S_7
REMARK    5  A    between atoms: S_7  and  N_10
REMARK    6  A    between atoms: N_13  and  C_14
REMARK    7  A    between atoms: N_22  and  C_23
REMARK    8  A    between atoms: C_23  and  C_24
REMARK    9  A    between atoms: C_24  and  C_25
REMARK   10  A    between atoms: C_25  and  C_26
REMARK                            x       y       z     vdW  Elec       q    Type
REMARK                         _______ _______ _______ _____ _____    ______ ____
ROOT
ATOM      1  C   UNL     1      -0.042  13.361  19.640  0.00  0.00    +0.000 A 
ATOM      2  C   UNL     1      -1.398  13.226  19.935  0.00  0.00    +0.000 A 
ATOM      3  S   UNL     1      -2.080  11.865  19.140  0.00  0.00    +0.000 S 
ATOM      4  C   UNL     1      -0.561  11.350  18.573  0.00  0.00    +0.000 A 
ATOM      5  C   UNL     1       0.447  12.232  18.898  0.00  0.00    +0.000 A 
ATOM      6  C   UNL     1       1.892  11.882  18.653  0.00  0.00    +0.000 C 
ATOM      7  C   UNL     1       2.042  10.576  17.838  0.00  0.00    +0.000 C 
ATOM      8  N   UNL     1       1.047   9.516  18.148  0.00  0.00    +0.000 NA
ATOM      9  C   UNL     1      -0.322  10.042  17.870  0.00  0.00    +0.000 C 
ENDROOT
BRANCH   2  10
ATOM     10  S   UNL     1      -2.481  14.193  20.998  0.00  0.00    +0.000 S 
ATOM     11  O   UNL     1      -2.280  15.551  20.540  0.00  0.00    +0.000 OA
ATOM     12  O   UNL     1      -3.758  13.526  20.873  0.00  0.00    +0.000 OA
BRANCH  10  13
ATOM     13  N   UNL     1      -1.966  14.114  22.619  0.00  0.00    +0.000 NA
ATOM     14  C   UNL     1      -1.746  12.769  23.213  0.00  0.00    +0.000 C 
ATOM     15  C   UNL     1      -3.058  12.123  23.711  0.00  0.00    +0.000 C 
ATOM     16  N   UNL     1      -3.977  12.985  24.482  0.00  0.00    +0.000 NA
ATOM     17  C   UNL     1      -5.330  12.408  24.512  0.00  0.00    +0.000 C 
ATOM     18  C   UNL     1      -4.038  14.381  24.003  0.00  0.00    +0.000 C 
ATOM     19  C   UNL     1      -2.680  14.989  23.594  0.00  0.00    +0.000 C 
ENDBRANCH  10  13
ENDBRANCH   2  10
BRANCH   1  20
ATOM     20  C   UNL     1       0.830  14.411  20.148  0.00  0.00    +0.000 C 
ATOM     21  O   UNL     1       1.312  14.384  21.272  0.00  0.00    +0.000 OA
BRANCH  20  23
ATOM     22  C   UNL     1       2.102  15.630  18.602  0.00  0.00    +0.000 C 
ATOM     23  O   UNL     1       0.879  15.470  19.310  0.00  0.00    +0.000 OA
ENDBRANCH  20  23
ENDBRANCH   1  20
BRANCH   8  24
ATOM     24  C   UNL     1       1.218   9.007  19.525  0.00  0.00    +0.000 C 
BRANCH  24  25
ATOM     25  C   UNL     1       2.062   7.732  19.576  0.00  0.00    +0.000 C 
BRANCH  25  26
ATOM     26  C   UNL     1       2.778   7.438  18.255  0.00  0.00    +0.000 C 
BRANCH  26  27
ATOM     27  C   UNL     1       2.896   5.942  18.080  0.00  0.00    +0.000 A 
ATOM     28  C   UNL     1       4.145   5.353  17.845  0.00  0.00    +0.000 A 
ATOM     29  C   UNL     1       4.243   3.991  17.562  0.00  0.00    +0.000 A 
ATOM     30  C   UNL     1       3.091   3.201  17.521  0.00  0.00    +0.000 A 
ATOM     31  C   UNL     1       1.844   3.775  17.765  0.00  0.00    +0.000 A 
ATOM     32  C   UNL     1       1.746   5.139  18.045  0.00  0.00    +0.000 A 
ENDBRANCH  26  27
ENDBRANCH  25  26
ENDBRANCH  24  25
ENDBRANCH   8  24
TORSDOF 8
ENDMDL
MODEL 9
REMARK VINA RESULT:      -6.0      2.949      4.981
REMARK  Name = 
REMARK  10 active torsions:
REMARK  status: ('A' for Active; 'I' for Inactive)
REMARK    1  A    between atoms: C_1  and  O_2
REMARK    2  A    between atoms: O_2  and  C_3
REMARK    3  A    between atoms: C_3  and  C_5
REMARK    4  A    between atoms: C_6  and  S_7
REMARK    5  A    between atoms: S_7  and  N_10
REMARK    6  A    between atoms: N_13  and  C_14
REMARK    7  A    between atoms: N_22  and  C_23
REMARK    8  A    between atoms: C_23  and  C_24
REMARK    9  A    between atoms: C_24  and  C_25
REMARK   10  A    between atoms: C_25  and  C_26
REMARK                            x       y       z     vdW  Elec       q    Type
REMARK                         _______ _______ _______ _____ _____    ______ ____
ROOT
ATOM      1  C   UNL     1      -0.078  13.600  19.652  0.00  0.00    +0.000 A 
ATOM      2  C   UNL     1      -1.400  13.530  20.087  0.00  0.00    +0.000 A 
ATOM      3  S   UNL     1      -2.136  12.050  19.619  0.00  0.00    +0.000 S 
ATOM      4  C   UNL     1      -0.669  11.431  19.022  0.00  0.00    +0.000 A 
ATOM      5  C   UNL     1       0.355  12.352  19.088  0.00  0.00    +0.000 A 
ATOM      6  C   UNL     1       1.776  11.953  18.782  0.00  0.00    +0.000 C 
ATOM      7  C   UNL     1       1.866  10.519  18.209  0.00  0.00    +0.000 C 
ATOM      8  N   UNL     1       0.914   9.541  18.797  0.00  0.00    +0.000 NA
ATOM      9  C   UNL     1      -0.479  10.015  18.552  0.00  0.00    +0.000 C 
ENDROOT
BRANCH   2  10
ATOM     10  S   UNL     1      -2.393  14.682  21.048  0.00  0.00    +0.000 S 
ATOM     11  O   UNL     1      -2.118  15.962  20.431  0.00  0.00    +0.000 OA
ATOM     12  O   UNL     1      -3.713  14.089  21.024  0.00  0.00    +0.000 OA
BRANCH  10  13
ATOM     13  N   UNL     1      -1.844  14.757  22.658  0.00  0.00    +0.000 NA
ATOM     14  C   UNL     1      -2.550  13.932  23.672  0.00  0.00    +0.000 C 
ATOM     15  C   UNL     1      -3.837  14.611  24.193  0.00  0.00    +0.000 C 
ATOM     16  N   UNL     1      -3.745  16.045  24.534  0.00  0.00    +0.000 NA
ATOM     17  C   UNL     1      -5.083  16.654  24.588  0.00  0.00    +0.000 C 
ATOM     18  C   UNL     1      -2.875  16.824  23.630  0.00  0.00    +0.000 C 
ATOM     19  C   UNL     1      -1.570  16.115  23.211  0.00  0.00    +0.000 C 
ENDBRANCH  10  13
ENDBRANCH   2  10
BRANCH   1  20
ATOM     20  C   UNL     1       0.825  14.720  19.878  0.00  0.00    +0.000 C 
ATOM     21  O   UNL     1       1.116  15.119  20.997  0.00  0.00    +0.000 OA
BRANCH  20  23
ATOM     22  C   UNL     1       0.562  16.643  18.563  0.00  0.00    +0.000 C 
ATOM     23  O   UNL     1       1.138  15.353  18.726  0.00  0.00    +0.000 OA
ENDBRANCH  20  23
ENDBRANCH   1  20
BRANCH   8  24
ATOM     24  C   UNL     1       1.214   9.292  20.222  0.00  0.00    +0.000 C 
BRANCH  24  25
ATOM     25  C   UNL     1       1.427   7.807  20.524  0.00  0.00    +0.000 C 
BRANCH  25  26
ATOM     26  C   UNL     1       2.416   7.140  19.564  0.00  0.00    +0.000 C 
BRANCH  26  27
ATOM     27  C   UNL     1       2.051   5.682  19.414  0.00  0.00    +0.000 A 
ATOM     28  C   UNL     1       2.153   5.051  18.167  0.00  0.00    +0.000 A 
ATOM     29  C   UNL     1       1.702   3.742  17.998  0.00  0.00    +0.000 A 
ATOM     30  C   UNL     1       1.153   3.046  19.078  0.00  0.00    +0.000 A 
ATOM     31  C   UNL     1       1.058   3.661  20.326  0.00  0.00    +0.000 A 
ATOM     32  C   UNL     1       1.506   4.973  20.495  0.00  0.00    +0.000 A 
ENDBRANCH  26  27
ENDBRANCH  25  26
ENDBRANCH  24  25
ENDBRANCH   8  24
TORSDOF 8
ENDMDL
