MODEL 1
REMARK VINA RESULT:      -6.6      0.000      0.000
REMARK  Name = 
REMARK  5 active torsions:
REMARK  status: ('A' for Active; 'I' for Inactive)
REMARK    1  A    between atoms: C_1  and  C_2
REMARK    2  A    between atoms: C_4  and  C_5
REMARK    3  A    between atoms: C_6  and  C_7
REMARK    4  A    between atoms: C_12  and  C_13
REMARK    5  A    between atoms: C_16  and  C_17
REMARK                            x       y       z     vdW  Elec       q    Type
REMARK                         _______ _______ _______ _____ _____    ______ ____
ROOT
ATOM      1  C   UNL     1       4.889   4.226  18.466  0.00  0.00    +0.000 C 
ATOM      2  O   UNL     1       5.626   5.105  18.899  0.00  0.00    +0.000 OA
ATOM      3  N   UNL     1       4.931   3.697  17.195  0.00  0.00    +0.000 N 
ATOM      4  C   UNL     1       5.799   4.105  16.200  0.00  0.00    +0.000 A 
ATOM      5  N   UNL     1       5.718   3.691  14.956  0.00  0.00    +0.000 NA
ATOM      6  C   UNL     1       6.690   4.362  14.213  0.00  0.00    +0.000 A 
ATOM      7  C   UNL     1       6.772   4.189  12.744  0.00  0.00    +0.000 C 
ATOM      8  N   UNL     1       7.532   5.199  14.825  0.00  0.00    +0.000 NA
ATOM      9  S   UNL     1       7.085   5.210  16.434  0.00  0.00    +0.000 S 
ATOM     10  H   UNL     1       4.246   3.021  16.883  0.00  0.00    +0.000 HD
ENDROOT
BRANCH   1  16
ATOM     11  C   UNL     1       0.968   2.556  22.339  0.00  0.00    +0.000 C 
ATOM     12  C   UNL     1       1.930   2.968  21.265  0.00  0.00    +0.000 A 
ATOM     13  C   UNL     1       1.682   4.080  20.476  0.00  0.00    +0.000 A 
ATOM     14  C   UNL     1       2.622   4.462  19.512  0.00  0.00    +0.000 A 
ATOM     15  C   UNL     1       2.312   5.682  18.676  0.00  0.00    +0.000 C 
ATOM     16  C   UNL     1       3.818   3.723  19.379  0.00  0.00    +0.000 A 
ATOM     17  C   UNL     1       3.994   2.611  20.219  0.00  0.00    +0.000 A 
ATOM     18  C   UNL     1       5.204   1.725  20.246  0.00  0.00    +0.000 C 
ATOM     19  N   UNL     1       3.049   2.226  21.124  0.00  0.00    +0.000 NA
ENDBRANCH   1  16
TORSDOF 1
ENDMDL
MODEL 2
REMARK VINA RESULT:      -6.2      3.312      6.718
REMARK  Name = 
REMARK  5 active torsions:
REMARK  status: ('A' for Active; 'I' for Inactive)
REMARK    1  A    between atoms: C_1  and  C_2
REMARK    2  A    between atoms: C_4  and  C_5
REMARK    3  A    between atoms: C_6  and  C_7
REMARK    4  A    between atoms: C_12  and  C_13
REMARK    5  A    between atoms: C_16  and  C_17
REMARK                            x       y       z     vdW  Elec       q    Type
REMARK                         _______ _______ _______ _____ _____    ______ ____
ROOT
ATOM      1  C   UNL     1       5.622   4.856  18.134  0.00  0.00    +0.000 C 
ATOM      2  O   UNL     1       5.685   3.986  17.272  0.00  0.00    +0.000 OA
ATOM      3  N   UNL     1       4.794   4.839  19.235  0.00  0.00    +0.000 N 
ATOM      4  C   UNL     1       3.879   3.842  19.517  0.00  0.00    +0.000 A 
ATOM      5  N   UNL     1       2.999   3.923  20.489  0.00  0.00    +0.000 NA
ATOM      6  C   UNL     1       2.190   2.788  20.434  0.00  0.00    +0.000 A 
ATOM      7  C   UNL     1       1.025   2.646  21.338  0.00  0.00    +0.000 C 
ATOM      8  N   UNL     1       2.442   1.836  19.531  0.00  0.00    +0.000 NA
ATOM      9  S   UNL     1       3.748   2.376  18.643  0.00  0.00    +0.000 S 
ATOM     10  H   UNL     1       4.746   5.624  19.870  0.00  0.00    +0.000 HD
ENDROOT
BRANCH   1  16
ATOM     11  C   UNL     1       8.653   9.737  17.742  0.00  0.00    +0.000 C 
ATOM     12  C   UNL     1       7.936   8.422  17.810  0.00  0.00    +0.000 A 
ATOM     13  C   UNL     1       8.331   7.441  18.705  0.00  0.00    +0.000 A 
ATOM     14  C   UNL     1       7.612   6.242  18.773  0.00  0.00    +0.000 A 
ATOM     15  C   UNL     1       8.077   5.202  19.766  0.00  0.00    +0.000 C 
ATOM     16  C   UNL     1       6.481   6.065  17.946  0.00  0.00    +0.000 A 
ATOM     17  C   UNL     1       6.145   7.108  17.067  0.00  0.00    +0.000 A 
ATOM     18  C   UNL     1       4.970   7.116  16.137  0.00  0.00    +0.000 C 
ATOM     19  N   UNL     1       6.882   8.253  16.982  0.00  0.00    +0.000 NA
ENDBRANCH   1  16
TORSDOF 1
ENDMDL
MODEL 3
REMARK VINA RESULT:      -5.8      3.987      6.742
REMARK  Name = 
REMARK  5 active torsions:
REMARK  status: ('A' for Active; 'I' for Inactive)
REMARK    1  A    between atoms: C_1  and  C_2
REMARK    2  A    between atoms: C_4  and  C_5
REMARK    3  A    between atoms: C_6  and  C_7
REMARK    4  A    between atoms: C_12  and  C_13
REMARK    5  A    between atoms: C_16  and  C_17
REMARK                            x       y       z     vdW  Elec       q    Type
REMARK                         _______ _______ _______ _____ _____    ______ ____
ROOT
ATOM      1  C   UNL     1       3.474   6.449  18.487  0.00  0.00    +0.000 C 
ATOM      2  O   UNL     1       3.409   5.998  19.626  0.00  0.00    +0.000 OA
ATOM      3  N   UNL     1       2.820   7.572  18.030  0.00  0.00    +0.000 N 
ATOM      4  C   UNL     1       1.959   8.346  18.785  0.00  0.00    +0.000 A 
ATOM      5  N   UNL     1       1.235   9.320  18.284  0.00  0.00    +0.000 NA
ATOM      6  C   UNL     1       0.428   9.826  19.304  0.00  0.00    +0.000 A 
ATOM      7  C   UNL     1      -0.588  10.866  19.017  0.00  0.00    +0.000 C 
ATOM      8  N   UNL     1       0.545   9.344  20.544  0.00  0.00    +0.000 NA
ATOM      9  S   UNL     1       1.702   8.143  20.466  0.00  0.00    +0.000 S 
ATOM     10  H   UNL     1       2.866   7.849  17.058  0.00  0.00    +0.000 HD
ENDROOT
BRANCH   1  16
ATOM     11  C   UNL     1       6.371   3.729  14.320  0.00  0.00    +0.000 C 
ATOM     12  C   UNL     1       5.687   4.420  15.461  0.00  0.00    +0.000 A 
ATOM     13  C   UNL     1       6.168   5.622  15.956  0.00  0.00    +0.000 A 
ATOM     14  C   UNL     1       5.479   6.263  16.993  0.00  0.00    +0.000 A 
ATOM     15  C   UNL     1       6.038   7.572  17.500  0.00  0.00    +0.000 C 
ATOM     16  C   UNL     1       4.293   5.686  17.497  0.00  0.00    +0.000 A 
ATOM     17  C   UNL     1       3.871   4.467  16.939  0.00  0.00    +0.000 A 
ATOM     18  C   UNL     1       2.629   3.720  17.321  0.00  0.00    +0.000 C 
ATOM     19  N   UNL     1       4.577   3.834  15.959  0.00  0.00    +0.000 NA
ENDBRANCH   1  16
TORSDOF 1
ENDMDL
MODEL 4
REMARK VINA RESULT:      -5.8      4.012      6.084
REMARK  Name = 
REMARK  5 active torsions:
REMARK  status: ('A' for Active; 'I' for Inactive)
REMARK    1  A    between atoms: C_1  and  C_2
REMARK    2  A    between atoms: C_4  and  C_5
REMARK    3  A    between atoms: C_6  and  C_7
REMARK    4  A    between atoms: C_12  and  C_13
REMARK    5  A    between atoms: C_16  and  C_17
REMARK                            x       y       z     vdW  Elec       q    Type
REMARK                         _______ _______ _______ _____ _____    ______ ____
ROOT
ATOM      1  C   UNL     1       2.711   6.219  19.026  0.00  0.00    +0.000 C 
ATOM      2  O   UNL     1       2.827   6.618  17.872  0.00  0.00    +0.000 OA
ATOM      3  N   UNL     1       2.135   6.919  20.063  0.00  0.00    +0.000 N 
ATOM      4  C   UNL     1       1.625   8.199  19.963  0.00  0.00    +0.000 A 
ATOM      5  N   UNL     1       1.219   8.898  20.998  0.00  0.00    +0.000 NA
ATOM      6  C   UNL     1       0.847  10.164  20.545  0.00  0.00    +0.000 A 
ATOM      7  C   UNL     1       0.450  11.223  21.503  0.00  0.00    +0.000 C 
ATOM      8  N   UNL     1       0.886  10.440  19.239  0.00  0.00    +0.000 NA
ATOM      9  S   UNL     1       1.461   9.061  18.493  0.00  0.00    +0.000 S 
ATOM     10  H   UNL     1       2.135   6.555  21.007  0.00  0.00    +0.000 HD
ENDROOT
BRANCH   1  16
ATOM     11  C   UNL     1       5.039   1.228  20.709  0.00  0.00    +0.000 C 
ATOM     12  C   UNL     1       4.390   2.482  20.204  0.00  0.00    +0.000 A 
ATOM     13  C   UNL     1       3.024   2.676  20.327  0.00  0.00    +0.000 A 
ATOM     14  C   UNL     1       2.457   3.878  19.885  0.00  0.00    +0.000 A 
ATOM     15  C   UNL     1       0.964   4.046  20.041  0.00  0.00    +0.000 C 
ATOM     16  C   UNL     1       3.293   4.880  19.345  0.00  0.00    +0.000 A 
ATOM     17  C   UNL     1       4.668   4.607  19.257  0.00  0.00    +0.000 A 
ATOM     18  C   UNL     1       5.711   5.553  18.743  0.00  0.00    +0.000 C 
ATOM     19  N   UNL     1       5.199   3.414  19.653  0.00  0.00    +0.000 NA
ENDBRANCH   1  16
TORSDOF 1
ENDMDL
MODEL 5
REMARK VINA RESULT:      -5.7      0.761      2.058
REMARK  Name = 
REMARK  5 active torsions:
REMARK  status: ('A' for Active; 'I' for Inactive)
REMARK    1  A    between atoms: C_1  and  C_2
REMARK    2  A    between atoms: C_4  and  C_5
REMARK    3  A    between atoms: C_6  and  C_7
REMARK    4  A    between atoms: C_12  and  C_13
REMARK    5  A    between atoms: C_16  and  C_17
REMARK                            x       y       z     vdW  Elec       q    Type
REMARK                         _______ _______ _______ _____ _____    ______ ____
ROOT
ATOM      1  C   UNL     1       5.023   4.429  18.657  0.00  0.00    +0.000 C 
ATOM      2  O   UNL     1       5.796   5.328  18.971  0.00  0.00    +0.000 OA
ATOM      3  N   UNL     1       4.970   3.808  17.428  0.00  0.00    +0.000 N 
ATOM      4  C   UNL     1       5.767   4.132  16.347  0.00  0.00    +0.000 A 
ATOM      5  N   UNL     1       5.594   3.630  15.146  0.00  0.00    +0.000 NA
ATOM      6  C   UNL     1       6.515   4.234  14.289  0.00  0.00    +0.000 A 
ATOM      7  C   UNL     1       6.489   3.953  12.834  0.00  0.00    +0.000 C 
ATOM      8  N   UNL     1       7.404   5.103  14.776  0.00  0.00    +0.000 NA
ATOM      9  S   UNL     1       7.075   5.235  16.407  0.00  0.00    +0.000 S 
ATOM     10  H   UNL     1       4.260   3.120  17.216  0.00  0.00    +0.000 HD
ENDROOT
BRANCH   1  16
ATOM     11  C   UNL     1       0.870   2.641  22.224  0.00  0.00    +0.000 C 
ATOM     12  C   UNL     1       2.009   3.102  21.365  0.00  0.00    +0.000 A 
ATOM     13  C   UNL     1       3.048   2.245  21.041  0.00  0.00    +0.000 A 
ATOM     14  C   UNL     1       4.074   2.695  20.200  0.00  0.00    +0.000 A 
ATOM     15  C   UNL     1       5.186   1.726  19.871  0.00  0.00    +0.000 C 
ATOM     16  C   UNL     1       4.017   4.006  19.679  0.00  0.00    +0.000 A 
ATOM     17  C   UNL     1       2.929   4.812  20.054  0.00  0.00    +0.000 A 
ATOM     18  C   UNL     1       2.681   6.213  19.583  0.00  0.00    +0.000 C 
ATOM     19  N   UNL     1       1.960   4.372  20.908  0.00  0.00    +0.000 NA
ENDBRANCH   1  16
TORSDOF 1
ENDMDL
MODEL 6
REMARK VINA RESULT:      -5.6      4.303      6.931
REMARK  Name = 
REMARK  5 active torsions:
REMARK  status: ('A' for Active; 'I' for Inactive)
REMARK    1  A    between atoms: C_1  and  C_2
REMARK    2  A    between atoms: C_4  and  C_5
REMARK    3  A    between atoms: C_6  and  C_7
REMARK    4  A    between atoms: C_12  and  C_13
REMARK    5  A    between atoms: C_16  and  C_17
REMARK                            x       y       z     vdW  Elec       q    Type
REMARK                         _______ _______ _______ _____ _____    ______ ____
ROOT
ATOM      1  C   UNL     1       2.994   6.721  18.767  0.00  0.00    +0.000 C 
ATOM      2  O   UNL     1       2.979   6.279  19.911  0.00  0.00    +0.000 OA
ATOM      3  N   UNL     1       2.332   7.848  18.333  0.00  0.00    +0.000 N 
ATOM      4  C   UNL     1       1.519   8.638  19.124  0.00  0.00    +0.000 A 
ATOM      5  N   UNL     1       0.782   9.617  18.651  0.00  0.00    +0.000 NA
ATOM      6  C   UNL     1       0.033  10.141  19.704  0.00  0.00    +0.000 A 
ATOM      7  C   UNL     1      -0.984  11.191  19.459  0.00  0.00    +0.000 C 
ATOM      8  N   UNL     1       0.204   9.666  20.941  0.00  0.00    +0.000 NA
ATOM      9  S   UNL     1       1.341   8.451  20.816  0.00  0.00    +0.000 S 
ATOM     10  H   UNL     1       2.334   8.117  17.359  0.00  0.00    +0.000 HD
ENDROOT
BRANCH   1  16
ATOM     11  C   UNL     1       6.166   3.503  15.197  0.00  0.00    +0.000 C 
ATOM     12  C   UNL     1       5.279   4.349  16.060  0.00  0.00    +0.000 A 
ATOM     13  C   UNL     1       4.058   3.872  16.509  0.00  0.00    +0.000 A 
ATOM     14  C   UNL     1       3.274   4.672  17.349  0.00  0.00    +0.000 A 
ATOM     15  C   UNL     1       1.951   4.111  17.816  0.00  0.00    +0.000 C 
ATOM     16  C   UNL     1       3.755   5.940  17.745  0.00  0.00    +0.000 A 
ATOM     17  C   UNL     1       5.003   6.349  17.248  0.00  0.00    +0.000 A 
ATOM     18  C   UNL     1       5.688   7.641  17.577  0.00  0.00    +0.000 C 
ATOM     19  N   UNL     1       5.735   5.575  16.395  0.00  0.00    +0.000 NA
ENDBRANCH   1  16
TORSDOF 1
ENDMDL
MODEL 7
REMARK VINA RESULT:      -5.5      9.261     11.941
REMARK  Name = 
REMARK  5 active torsions:
REMARK  status: ('A' for Active; 'I' for Inactive)
REMARK    1  A    between atoms: C_1  and  C_2
REMARK    2  A    between atoms: C_4  and  C_5
REMARK    3  A    between atoms: C_6  and  C_7
REMARK    4  A    between atoms: C_12  and  C_13
REMARK    5  A    between atoms: C_16  and  C_17
REMARK                            x       y       z     vdW  Elec       q    Type
REMARK                         _______ _______ _______ _____ _____    ______ ____
ROOT
ATOM      1  C   UNL     1      -0.897  11.965  21.559  0.00  0.00    +0.000 C 
ATOM      2  O   UNL     1      -0.192  12.641  22.301  0.00  0.00    +0.000 OA
ATOM      3  N   UNL     1      -2.274  11.933  21.571  0.00  0.00    +0.000 N 
ATOM      4  C   UNL     1      -3.072  12.640  22.450  0.00  0.00    +0.000 A 
ATOM      5  N   UNL     1      -4.372  12.476  22.538  0.00  0.00    +0.000 NA
ATOM      6  C   UNL     1      -4.840  13.283  23.576  0.00  0.00    +0.000 A 
ATOM      7  C   UNL     1      -6.261  13.228  23.994  0.00  0.00    +0.000 C 
ATOM      8  N   UNL     1      -3.992  14.085  24.226  0.00  0.00    +0.000 NA
ATOM      9  S   UNL     1      -2.489  13.812  23.554  0.00  0.00    +0.000 S 
ATOM     10  H   UNL     1      -2.791  11.299  20.975  0.00  0.00    +0.000 HD
ENDROOT
BRANCH   1  16
ATOM     11  C   UNL     1       2.206   8.665  18.004  0.00  0.00    +0.000 C 
ATOM     12  C   UNL     1       1.330   9.464  18.922  0.00  0.00    +0.000 A 
ATOM     13  C   UNL     1       0.994   8.988  20.178  0.00  0.00    +0.000 A 
ATOM     14  C   UNL     1       0.211   9.780  21.027  0.00  0.00    +0.000 A 
ATOM     15  C   UNL     1      -0.130   9.221  22.389  0.00  0.00    +0.000 C 
ATOM     16  C   UNL     1      -0.201  11.060  20.595  0.00  0.00    +0.000 A 
ATOM     17  C   UNL     1       0.184  11.470  19.308  0.00  0.00    +0.000 A 
ATOM     18  C   UNL     1      -0.131  12.798  18.688  0.00  0.00    +0.000 C 
ATOM     19  N   UNL     1       0.911  10.669  18.477  0.00  0.00    +0.000 NA
ENDBRANCH   1  16
TORSDOF 1
ENDMDL
MODEL 8
REMARK VINA RESULT:      -5.5      2.211      2.976
REMARK  Name = 
REMARK  5 active torsions:
REMARK  status: ('A' for Active; 'I' for Inactive)
REMARK    1  A    between atoms: C_1  and  C_2
REMARK    2  A    between atoms: C_4  and  C_5
REMARK    3  A    between atoms: C_6  and  C_7
REMARK    4  A    between atoms: C_12  and  C_13
REMARK    5  A    between atoms: C_16  and  C_17
REMARK                            x       y       z     vdW  Elec       q    Type
REMARK                         _______ _______ _______ _____ _____    ______ ____
ROOT
ATOM      1  C   UNL     1       4.219   5.795  18.480  0.00  0.00    +0.000 C 
ATOM      2  O   UNL     1       5.302   5.878  19.051  0.00  0.00    +0.000 OA
ATOM      3  N   UNL     1       4.013   5.268  17.224  0.00  0.00    +0.000 N 
ATOM      4  C   UNL     1       5.009   4.779  16.401  0.00  0.00    +0.000 A 
ATOM      5  N   UNL     1       4.806   4.422  15.153  0.00  0.00    +0.000 NA
ATOM      6  C   UNL     1       6.035   4.059  14.602  0.00  0.00    +0.000 A 
ATOM      7  C   UNL     1       6.146   3.715  13.165  0.00  0.00    +0.000 C 
ATOM      8  N   UNL     1       7.130   4.059  15.366  0.00  0.00    +0.000 NA
ATOM      9  S   UNL     1       6.643   4.581  16.874  0.00  0.00    +0.000 S 
ATOM     10  H   UNL     1       3.102   5.293  16.786  0.00  0.00    +0.000 HD
ENDROOT
BRANCH   1  16
ATOM     11  C   UNL     1      -0.051   8.175  21.523  0.00  0.00    +0.000 C 
ATOM     12  C   UNL     1       1.004   7.551  20.660  0.00  0.00    +0.000 A 
ATOM     13  C   UNL     1       1.560   8.248  19.599  0.00  0.00    +0.000 A 
ATOM     14  C   UNL     1       2.575   7.652  18.841  0.00  0.00    +0.000 A 
ATOM     15  C   UNL     1       3.153   8.450  17.695  0.00  0.00    +0.000 C 
ATOM     16  C   UNL     1       3.030   6.361  19.187  0.00  0.00    +0.000 A 
ATOM     17  C   UNL     1       2.417   5.722  20.277  0.00  0.00    +0.000 A 
ATOM     18  C   UNL     1       2.782   4.370  20.809  0.00  0.00    +0.000 C 
ATOM     19  N   UNL     1       1.400   6.300  20.980  0.00  0.00    +0.000 NA
ENDBRANCH   1  16
TORSDOF 1
ENDMDL
MODEL 9
REMARK VINA RESULT:      -5.4      9.179     11.717
REMARK  Name = 
REMARK  5 active torsions:
REMARK  status: ('A' for Active; 'I' for Inactive)
REMARK    1  A    between atoms: C_1  and  C_2
REMARK    2  A    between atoms: C_4  and  C_5
REMARK    3  A    between atoms: C_6  and  C_7
REMARK    4  A    between atoms: C_12  and  C_13
REMARK    5  A    between atoms: C_16  and  C_17
REMARK                            x       y       z     vdW  Elec       q    Type
REMARK                         _______ _______ _______ _____ _____    ______ ____
ROOT
ATOM      1  C   UNL     1      -0.619  12.081  21.628  0.00  0.00    +0.000 C 
ATOM      2  O   UNL     1       0.025  12.848  22.335  0.00  0.00    +0.000 OA
ATOM      3  N   UNL     1      -1.989  11.937  21.639  0.00  0.00    +0.000 N 
ATOM      4  C   UNL     1      -2.846  12.621  22.481  0.00  0.00    +0.000 A 
ATOM      5  N   UNL     1      -4.129  12.356  22.575  0.00  0.00    +0.000 NA
ATOM      6  C   UNL     1      -4.667  13.174  23.569  0.00  0.00    +0.000 A 
ATOM      7  C   UNL     1      -6.081  13.026  23.987  0.00  0.00    +0.000 C 
ATOM      8  N   UNL     1      -3.891  14.074  24.179  0.00  0.00    +0.000 NA
ATOM      9  S   UNL     1      -2.367  13.891  23.524  0.00  0.00    +0.000 S 
ATOM     10  H   UNL     1      -2.449  11.234  21.076  0.00  0.00    +0.000 HD
ENDROOT
BRANCH   1  16
ATOM     11  C   UNL     1       1.929   8.446  17.960  0.00  0.00    +0.000 C 
ATOM     12  C   UNL     1       1.341   9.445  18.911  0.00  0.00    +0.000 A 
ATOM     13  C   UNL     1       0.984  10.712  18.481  0.00  0.00    +0.000 A 
ATOM     14  C   UNL     1       0.396  11.605  19.385  0.00  0.00    +0.000 A 
ATOM     15  C   UNL     1       0.021  12.976  18.872  0.00  0.00    +0.000 C 
ATOM     16  C   UNL     1       0.154  11.187  20.712  0.00  0.00    +0.000 A 
ATOM     17  C   UNL     1       0.543   9.885  21.068  0.00  0.00    +0.000 A 
ATOM     18  C   UNL     1       0.342   9.256  22.414  0.00  0.00    +0.000 C 
ATOM     19  N   UNL     1       1.153   9.042  20.187  0.00  0.00    +0.000 NA
ENDBRANCH   1  16
TORSDOF 1
ENDMDL
