MODEL 1
REMARK VINA RESULT:      -7.8      0.000      0.000
REMARK  Name = 
REMARK  13 active torsions:
REMARK  status: ('A' for Active; 'I' for Inactive)
REMARK    1  A    between atoms: C_1  and  C_2
REMARK    2  A    between atoms: C_2  and  O_4
REMARK    3  A    between atoms: O_4  and  C_5
REMARK    4  A    between atoms: C_5  and  C_6
REMARK    5  A    between atoms: C_5  and  C_21
REMARK    6  A    between atoms: C_6  and  C_7
REMARK    7  A    between atoms: C_8  and  C_9
REMARK    8  A    between atoms: C_13  and  C_14
REMARK    9  A    between atoms: C_13  and  C_15
REMARK   10  A    between atoms: C_19  and  C_20
REMARK   11  A    between atoms: C_21  and  C_22
REMARK   12  A    between atoms: C_23  and  C_24
REMARK   13  A    between atoms: C_24  and  O_25
REMARK                            x       y       z     vdW  Elec       q    Type
REMARK                         _______ _______ _______ _____ _____    ______ ____
ROOT
ATOM      1  C   UNL     1       3.678   5.546  17.006  0.00  0.00    +0.000 C 
ATOM      2  C   UNL     1       4.031   6.343  18.233  0.00  0.00    +0.000 C 
ATOM      3  C   UNL     1       3.088   7.592  18.140  0.00  0.00    +0.000 C 
ATOM      4  C   UNL     1       4.881   5.814  19.172  0.00  0.00    +0.000 C 
ATOM      5  C   UNL     1       4.767   4.285  19.570  0.00  0.00    +0.000 C 
ATOM      6  C   UNL     1       3.626   3.523  18.833  0.00  0.00    +0.000 C 
ATOM      7  C   UNL     1       2.930   2.261  19.565  0.00  0.00    +0.000 C 
ATOM      8  C   UNL     1       2.825   2.373  21.110  0.00  0.00    +0.000 C 
ATOM      9  C   UNL     1       3.708   0.931  19.301  0.00  0.00    +0.000 C 
ATOM     10  C   UNL     1       1.526   1.959  18.953  0.00  0.00    +0.000 C 
ATOM     11  C   UNL     1       0.671   3.181  18.710  0.00  0.00    +0.000 C 
ATOM     12  C   UNL     1       1.390   4.090  17.691  0.00  0.00    +0.000 C 
ATOM     13  C   UNL     1       2.691   4.677  18.285  0.00  0.00    +0.000 C 
ATOM     14  C   UNL     1       2.086   5.473  19.623  0.00  0.00    +0.000 C 
ENDROOT
BRANCH   1  15
ATOM     15  C   UNL     1       4.991   6.589  16.444  0.00  0.00    +0.000 C 
BRANCH  15  16
ATOM     16  C   UNL     1       6.175   6.253  15.499  0.00  0.00    +0.000 C 
BRANCH  16  17
ATOM     17  C   UNL     1       6.158   4.875  14.856  0.00  0.00    +0.000 C 
ATOM     18  C   UNL     1       6.111   3.644  15.721  0.00  0.00    +0.000 C 
ATOM     19  C   UNL     1       6.334   4.766  13.519  0.00  0.00    +0.000 C 
BRANCH  19  20
ATOM     20  C   UNL     1       6.398   3.503  12.727  0.00  0.00    +0.000 C 
BRANCH  20  21
ATOM     21  O   UNL     1       5.138   3.337  12.098  0.00  0.00    +0.000 OA
ATOM     22  H   UNL     1       4.628   2.728  12.660  0.00  0.00    +0.000 HD
ENDBRANCH  20  21
ENDBRANCH  19  20
ENDBRANCH  16  17
BRANCH  16  23
ATOM     23  O   UNL     1       7.354   6.184  16.410  0.00  0.00    +0.000 OA
BRANCH  23  25
ATOM     24  C   UNL     1       7.968   6.485  18.673  0.00  0.00    +0.000 C 
ATOM     25  C   UNL     1       7.605   7.098  17.344  0.00  0.00    +0.000 C 
ATOM     26  O   UNL     1       7.572   8.305  17.162  0.00  0.00    +0.000 OA
ENDBRANCH  23  25
ENDBRANCH  16  23
ENDBRANCH  15  16
ENDBRANCH   1  15
TORSDOF 7
ENDMDL
MODEL 2
REMARK VINA RESULT:      -7.2      1.900      3.841
REMARK  Name = 
REMARK  13 active torsions:
REMARK  status: ('A' for Active; 'I' for Inactive)
REMARK    1  A    between atoms: C_1  and  C_2
REMARK    2  A    between atoms: C_2  and  O_4
REMARK    3  A    between atoms: O_4  and  C_5
REMARK    4  A    between atoms: C_5  and  C_6
REMARK    5  A    between atoms: C_5  and  C_21
REMARK    6  A    between atoms: C_6  and  C_7
REMARK    7  A    between atoms: C_8  and  C_9
REMARK    8  A    between atoms: C_13  and  C_14
REMARK    9  A    between atoms: C_13  and  C_15
REMARK   10  A    between atoms: C_19  and  C_20
REMARK   11  A    between atoms: C_21  and  C_22
REMARK   12  A    between atoms: C_23  and  C_24
REMARK   13  A    between atoms: C_24  and  O_25
REMARK                            x       y       z     vdW  Elec       q    Type
REMARK                         _______ _______ _______ _____ _____    ______ ____
ROOT
ATOM      1  C   UNL     1       4.958   5.001  15.562  0.00  0.00    +0.000 C 
ATOM      2  C   UNL     1       5.974   4.230  16.359  0.00  0.00    +0.000 C 
ATOM      3  C   UNL     1       7.207   5.197  16.410  0.00  0.00    +0.000 C 
ATOM      4  C   UNL     1       5.619   3.047  16.960  0.00  0.00    +0.000 C 
ATOM      5  C   UNL     1       4.206   2.910  17.662  0.00  0.00    +0.000 C 
ATOM      6  C   UNL     1       3.346   4.208  17.613  0.00  0.00    +0.000 C 
ATOM      7  C   UNL     1       2.281   4.483  18.796  0.00  0.00    +0.000 C 
ATOM      8  C   UNL     1       2.704   3.967  20.197  0.00  0.00    +0.000 C 
ATOM      9  C   UNL     1       0.901   3.806  18.508  0.00  0.00    +0.000 C 
ATOM     10  C   UNL     1       1.904   5.997  18.874  0.00  0.00    +0.000 C 
ATOM     11  C   UNL     1       3.078   6.942  18.762  0.00  0.00    +0.000 C 
ATOM     12  C   UNL     1       3.741   6.742  17.383  0.00  0.00    +0.000 C 
ATOM     13  C   UNL     1       4.395   5.345  17.273  0.00  0.00    +0.000 C 
ATOM     14  C   UNL     1       5.462   5.405  18.557  0.00  0.00    +0.000 C 
ENDROOT
BRANCH   1  15
ATOM     15  C   UNL     1       5.825   4.083  14.325  0.00  0.00    +0.000 C 
BRANCH  15  16
ATOM     16  C   UNL     1       5.919   4.338  12.798  0.00  0.00    +0.000 C 
BRANCH  16  17
ATOM     17  C   UNL     1       5.444   3.213  11.892  0.00  0.00    +0.000 C 
ATOM     18  C   UNL     1       4.068   3.269  11.283  0.00  0.00    +0.000 C 
ATOM     19  C   UNL     1       6.206   2.103  11.760  0.00  0.00    +0.000 C 
BRANCH  19  20
ATOM     20  C   UNL     1       5.880   0.885  10.962  0.00  0.00    +0.000 C 
BRANCH  20  21
ATOM     21  O   UNL     1       6.615  -0.192  11.519  0.00  0.00    +0.000 OA
ATOM     22  H   UNL     1       6.919   0.104  12.395  0.00  0.00    +0.000 HD
ENDBRANCH  20  21
ENDBRANCH  19  20
ENDBRANCH  16  17
BRANCH  16  23
ATOM     23  O   UNL     1       7.386   4.388  12.530  0.00  0.00    +0.000 OA
BRANCH  23  25
ATOM     24  C   UNL     1       7.888   6.316  11.258  0.00  0.00    +0.000 C 
ATOM     25  C   UNL     1       8.085   5.519  12.523  0.00  0.00    +0.000 C 
ATOM     26  O   UNL     1       8.798   5.902  13.438  0.00  0.00    +0.000 OA
ENDBRANCH  23  25
ENDBRANCH  16  23
ENDBRANCH  15  16
ENDBRANCH   1  15
TORSDOF 7
ENDMDL
MODEL 3
REMARK VINA RESULT:      -6.9      1.181      3.363
REMARK  Name = 
REMARK  13 active torsions:
REMARK  status: ('A' for Active; 'I' for Inactive)
REMARK    1  A    between atoms: C_1  and  C_2
REMARK    2  A    between atoms: C_2  and  O_4
REMARK    3  A    between atoms: O_4  and  C_5
REMARK    4  A    between atoms: C_5  and  C_6
REMARK    5  A    between atoms: C_5  and  C_21
REMARK    6  A    between atoms: C_6  and  C_7
REMARK    7  A    between atoms: C_8  and  C_9
REMARK    8  A    between atoms: C_13  and  C_14
REMARK    9  A    between atoms: C_13  and  C_15
REMARK   10  A    between atoms: C_19  and  C_20
REMARK   11  A    between atoms: C_21  and  C_22
REMARK   12  A    between atoms: C_23  and  C_24
REMARK   13  A    between atoms: C_24  and  O_25
REMARK                            x       y       z     vdW  Elec       q    Type
REMARK                         _______ _______ _______ _____ _____    ______ ____
ROOT
ATOM      1  C   UNL     1       3.770   5.349  17.153  0.00  0.00    +0.000 C 
ATOM      2  C   UNL     1       3.974   6.224  18.360  0.00  0.00    +0.000 C 
ATOM      3  C   UNL     1       3.137   7.507  18.024  0.00  0.00    +0.000 C 
ATOM      4  C   UNL     1       4.630   5.731  19.461  0.00  0.00    +0.000 C 
ATOM      5  C   UNL     1       4.359   4.247  19.944  0.00  0.00    +0.000 C 
ATOM      6  C   UNL     1       3.304   3.486  19.089  0.00  0.00    +0.000 C 
ATOM      7  C   UNL     1       2.424   2.324  19.787  0.00  0.00    +0.000 C 
ATOM      8  C   UNL     1       2.082   2.567  21.281  0.00  0.00    +0.000 C 
ATOM      9  C   UNL     1       3.149   0.940  19.750  0.00  0.00    +0.000 C 
ATOM     10  C   UNL     1       1.118   2.044  18.978  0.00  0.00    +0.000 C 
ATOM     11  C   UNL     1       0.390   3.283  18.512  0.00  0.00    +0.000 C 
ATOM     12  C   UNL     1       1.316   4.069  17.560  0.00  0.00    +0.000 C 
ATOM     13  C   UNL     1       2.541   4.637  18.313  0.00  0.00    +0.000 C 
ATOM     14  C   UNL     1       1.783   5.568  19.474  0.00  0.00    +0.000 C 
ENDROOT
BRANCH   1  15
ATOM     15  C   UNL     1       5.218   6.275  16.737  0.00  0.00    +0.000 C 
BRANCH  15  16
ATOM     16  C   UNL     1       6.710   5.863  16.838  0.00  0.00    +0.000 C 
BRANCH  16  17
ATOM     17  C   UNL     1       7.579   6.687  17.774  0.00  0.00    +0.000 C 
ATOM     18  C   UNL     1       8.135   6.063  19.026  0.00  0.00    +0.000 C 
ATOM     19  C   UNL     1       7.723   8.013  17.549  0.00  0.00    +0.000 C 
BRANCH  19  20
ATOM     20  C   UNL     1       8.489   8.984  18.383  0.00  0.00    +0.000 C 
BRANCH  20  21
ATOM     21  O   UNL     1       8.340  10.261  17.786  0.00  0.00    +0.000 OA
ATOM     22  H   UNL     1       7.617  10.182  17.139  0.00  0.00    +0.000 HD
ENDBRANCH  20  21
ENDBRANCH  19  20
ENDBRANCH  16  17
BRANCH  16  23
ATOM     23  O   UNL     1       7.265   6.188  15.491  0.00  0.00    +0.000 OA
BRANCH  23  25
ATOM     24  C   UNL     1       6.523   4.067  14.758  0.00  0.00    +0.000 C 
ATOM     25  C   UNL     1       7.363   5.295  14.511  0.00  0.00    +0.000 C 
ATOM     26  O   UNL     1       8.036   5.440  13.502  0.00  0.00    +0.000 OA
ENDBRANCH  23  25
ENDBRANCH  16  23
ENDBRANCH  15  16
ENDBRANCH   1  15
TORSDOF 7
ENDMDL
MODEL 4
REMARK VINA RESULT:      -6.9      1.931      3.739
REMARK  Name = 
REMARK  13 active torsions:
REMARK  status: ('A' for Active; 'I' for Inactive)
REMARK    1  A    between atoms: C_1  and  C_2
REMARK    2  A    between atoms: C_2  and  O_4
REMARK    3  A    between atoms: O_4  and  C_5
REMARK    4  A    between atoms: C_5  and  C_6
REMARK    5  A    between atoms: C_5  and  C_21
REMARK    6  A    between atoms: C_6  and  C_7
REMARK    7  A    between atoms: C_8  and  C_9
REMARK    8  A    between atoms: C_13  and  C_14
REMARK    9  A    between atoms: C_13  and  C_15
REMARK   10  A    between atoms: C_19  and  C_20
REMARK   11  A    between atoms: C_21  and  C_22
REMARK   12  A    between atoms: C_23  and  C_24
REMARK   13  A    between atoms: C_24  and  O_25
REMARK                            x       y       z     vdW  Elec       q    Type
REMARK                         _______ _______ _______ _____ _____    ______ ____
ROOT
ATOM      1  C   UNL     1       4.787   4.895  15.785  0.00  0.00    +0.000 C 
ATOM      2  C   UNL     1       5.812   4.064  16.509  0.00  0.00    +0.000 C 
ATOM      3  C   UNL     1       7.056   5.013  16.595  0.00  0.00    +0.000 C 
ATOM      4  C   UNL     1       5.456   2.849  17.041  0.00  0.00    +0.000 C 
ATOM      5  C   UNL     1       4.056   2.681  17.763  0.00  0.00    +0.000 C 
ATOM      6  C   UNL     1       3.211   3.988  17.816  0.00  0.00    +0.000 C 
ATOM      7  C   UNL     1       2.173   4.198  19.037  0.00  0.00    +0.000 C 
ATOM      8  C   UNL     1       2.620   3.589  20.393  0.00  0.00    +0.000 C 
ATOM      9  C   UNL     1       0.780   3.554  18.737  0.00  0.00    +0.000 C 
ATOM     10  C   UNL     1       1.816   5.707  19.220  0.00  0.00    +0.000 C 
ATOM     11  C   UNL     1       2.998   6.645  19.142  0.00  0.00    +0.000 C 
ATOM     12  C   UNL     1       3.629   6.527  17.739  0.00  0.00    +0.000 C 
ATOM     13  C   UNL     1       4.264   5.134  17.527  0.00  0.00    +0.000 C 
ATOM     14  C   UNL     1       5.359   5.101  18.788  0.00  0.00    +0.000 C 
ENDROOT
BRANCH   1  15
ATOM     15  C   UNL     1       5.618   4.048  14.473  0.00  0.00    +0.000 C 
BRANCH  15  16
ATOM     16  C   UNL     1       5.698   4.411  12.967  0.00  0.00    +0.000 C 
BRANCH  16  17
ATOM     17  C   UNL     1       5.100   3.405  11.996  0.00  0.00    +0.000 C 
ATOM     18  C   UNL     1       5.877   2.172  11.618  0.00  0.00    +0.000 C 
ATOM     19  C   UNL     1       3.938   3.700  11.369  0.00  0.00    +0.000 C 
BRANCH  19  20
ATOM     20  C   UNL     1       3.233   2.864  10.353  0.00  0.00    +0.000 C 
BRANCH  20  21
ATOM     21  O   UNL     1       2.955   3.699   9.242  0.00  0.00    +0.000 OA
ATOM     22  H   UNL     1       3.615   4.414   9.261  0.00  0.00    +0.000 HD
ENDBRANCH  20  21
ENDBRANCH  19  20
ENDBRANCH  16  17
BRANCH  16  23
ATOM     23  O   UNL     1       7.157   4.347  12.659  0.00  0.00    +0.000 OA
BRANCH  23  25
ATOM     24  C   UNL     1       7.835   6.193  11.347  0.00  0.00    +0.000 C 
ATOM     25  C   UNL     1       7.941   5.421  12.638  0.00  0.00    +0.000 C 
ATOM     26  O   UNL     1       8.660   5.775  13.559  0.00  0.00    +0.000 OA
ENDBRANCH  23  25
ENDBRANCH  16  23
ENDBRANCH  15  16
ENDBRANCH   1  15
TORSDOF 7
ENDMDL
MODEL 5
REMARK VINA RESULT:      -6.7      3.866      7.348
REMARK  Name = 
REMARK  13 active torsions:
REMARK  status: ('A' for Active; 'I' for Inactive)
REMARK    1  A    between atoms: C_1  and  C_2
REMARK    2  A    between atoms: C_2  and  O_4
REMARK    3  A    between atoms: O_4  and  C_5
REMARK    4  A    between atoms: C_5  and  C_6
REMARK    5  A    between atoms: C_5  and  C_21
REMARK    6  A    between atoms: C_6  and  C_7
REMARK    7  A    between atoms: C_8  and  C_9
REMARK    8  A    between atoms: C_13  and  C_14
REMARK    9  A    between atoms: C_13  and  C_15
REMARK   10  A    between atoms: C_19  and  C_20
REMARK   11  A    between atoms: C_21  and  C_22
REMARK   12  A    between atoms: C_23  and  C_24
REMARK   13  A    between atoms: C_24  and  O_25
REMARK                            x       y       z     vdW  Elec       q    Type
REMARK                         _______ _______ _______ _____ _____    ______ ____
ROOT
ATOM      1  C   UNL     1       3.109   6.970  17.983  0.00  0.00    +0.000 C 
ATOM      2  C   UNL     1       2.855   5.645  18.650  0.00  0.00    +0.000 C 
ATOM      3  C   UNL     1       1.724   5.006  17.772  0.00  0.00    +0.000 C 
ATOM      4  C   UNL     1       3.671   5.224  19.671  0.00  0.00    +0.000 C 
ATOM      5  C   UNL     1       5.235   5.460  19.581  0.00  0.00    +0.000 C 
ATOM      6  C   UNL     1       5.696   6.153  18.265  0.00  0.00    +0.000 C 
ATOM      7  C   UNL     1       7.179   5.850  17.700  0.00  0.00    +0.000 C 
ATOM      8  C   UNL     1       7.702   4.412  17.964  0.00  0.00    +0.000 C 
ATOM      9  C   UNL     1       8.249   6.799  18.331  0.00  0.00    +0.000 C 
ATOM     10  C   UNL     1       7.283   6.186  16.179  0.00  0.00    +0.000 C 
ATOM     11  C   UNL     1       6.113   5.711  15.350  0.00  0.00    +0.000 C 
ATOM     12  C   UNL     1       4.835   6.415  15.852  0.00  0.00    +0.000 C 
ATOM     13  C   UNL     1       4.469   5.957  17.282  0.00  0.00    +0.000 C 
ATOM     14  C   UNL     1       4.310   4.311  17.046  0.00  0.00    +0.000 C 
ENDROOT
BRANCH   1  15
ATOM     15  C   UNL     1       1.862   7.354  19.175  0.00  0.00    +0.000 C 
BRANCH  15  16
ATOM     16  C   UNL     1       1.545   8.709  19.862  0.00  0.00    +0.000 C 
BRANCH  16  17
ATOM     17  C   UNL     1       0.660   8.651  21.098  0.00  0.00    +0.000 C 
ATOM     18  C   UNL     1      -0.614   7.849  21.071  0.00  0.00    +0.000 C 
ATOM     19  C   UNL     1       0.952   9.438  22.159  0.00  0.00    +0.000 C 
BRANCH  19  20
ATOM     20  C   UNL     1       0.175   9.552  23.427  0.00  0.00    +0.000 C 
BRANCH  20  21
ATOM     21  O   UNL     1      -0.479  10.810  23.409  0.00  0.00    +0.000 OA
ATOM     22  H   UNL     1      -1.015  10.855  24.219  0.00  0.00    +0.000 HD
ENDBRANCH  20  21
ENDBRANCH  19  20
ENDBRANCH  16  17
BRANCH  16  23
ATOM     23  O   UNL     1       0.689   9.424  18.871  0.00  0.00    +0.000 OA
BRANCH  23  25
ATOM     24  C   UNL     1      -0.875  11.191  18.742  0.00  0.00    +0.000 C 
ATOM     25  C   UNL     1       0.562  10.748  18.843  0.00  0.00    +0.000 C 
ATOM     26  O   UNL     1       1.491  11.537  18.912  0.00  0.00    +0.000 OA
ENDBRANCH  23  25
ENDBRANCH  16  23
ENDBRANCH  15  16
ENDBRANCH   1  15
TORSDOF 7
ENDMDL
MODEL 6
REMARK VINA RESULT:      -6.7      1.052      1.342
REMARK  Name = 
REMARK  13 active torsions:
REMARK  status: ('A' for Active; 'I' for Inactive)
REMARK    1  A    between atoms: C_1  and  C_2
REMARK    2  A    between atoms: C_2  and  O_4
REMARK    3  A    between atoms: O_4  and  C_5
REMARK    4  A    between atoms: C_5  and  C_6
REMARK    5  A    between atoms: C_5  and  C_21
REMARK    6  A    between atoms: C_6  and  C_7
REMARK    7  A    between atoms: C_8  and  C_9
REMARK    8  A    between atoms: C_13  and  C_14
REMARK    9  A    between atoms: C_13  and  C_15
REMARK   10  A    between atoms: C_19  and  C_20
REMARK   11  A    between atoms: C_21  and  C_22
REMARK   12  A    between atoms: C_23  and  C_24
REMARK   13  A    between atoms: C_24  and  O_25
REMARK                            x       y       z     vdW  Elec       q    Type
REMARK                         _______ _______ _______ _____ _____    ______ ____
ROOT
ATOM      1  C   UNL     1       4.068   5.188  16.767  0.00  0.00    +0.000 C 
ATOM      2  C   UNL     1       4.030   6.350  17.722  0.00  0.00    +0.000 C 
ATOM      3  C   UNL     1       2.989   7.325  17.069  0.00  0.00    +0.000 C 
ATOM      4  C   UNL     1       4.699   6.276  18.919  0.00  0.00    +0.000 C 
ATOM      5  C   UNL     1       4.682   4.928  19.751  0.00  0.00    +0.000 C 
ATOM      6  C   UNL     1       3.843   3.791  19.098  0.00  0.00    +0.000 C 
ATOM      7  C   UNL     1       3.155   2.681  20.050  0.00  0.00    +0.000 C 
ATOM      8  C   UNL     1       2.684   3.204  21.434  0.00  0.00    +0.000 C 
ATOM      9  C   UNL     1       4.129   1.500  20.367  0.00  0.00    +0.000 C 
ATOM     10  C   UNL     1       1.977   1.963  19.319  0.00  0.00    +0.000 C 
ATOM     11  C   UNL     1       1.059   2.886  18.552  0.00  0.00    +0.000 C 
ATOM     12  C   UNL     1       1.877   3.587  17.447  0.00  0.00    +0.000 C 
ATOM     13  C   UNL     1       2.926   4.549  18.052  0.00  0.00    +0.000 C 
ATOM     14  C   UNL     1       1.938   5.564  18.937  0.00  0.00    +0.000 C 
ENDROOT
BRANCH   1  15
ATOM     15  C   UNL     1       5.339   6.254  16.154  0.00  0.00    +0.000 C 
BRANCH  15  16
ATOM     16  C   UNL     1       6.781   5.904  15.702  0.00  0.00    +0.000 C 
BRANCH  16  17
ATOM     17  C   UNL     1       6.911   5.097  14.419  0.00  0.00    +0.000 C 
ATOM     18  C   UNL     1       7.955   5.471  13.401  0.00  0.00    +0.000 C 
ATOM     19  C   UNL     1       5.994   4.143  14.141  0.00  0.00    +0.000 C 
BRANCH  19  20
ATOM     20  C   UNL     1       5.932   3.293  12.916  0.00  0.00    +0.000 C 
BRANCH  20  21
ATOM     21  O   UNL     1       4.734   3.625  12.234  0.00  0.00    +0.000 OA
ATOM     22  H   UNL     1       4.946   4.376  11.653  0.00  0.00    +0.000 HD
ENDBRANCH  20  21
ENDBRANCH  19  20
ENDBRANCH  16  17
BRANCH  16  23
ATOM     23  O   UNL     1       7.264   4.954  16.746  0.00  0.00    +0.000 OA
BRANCH  23  25
ATOM     24  C   UNL     1       7.914   6.850  18.000  0.00  0.00    +0.000 C 
ATOM     25  C   UNL     1       7.773   5.351  17.909  0.00  0.00    +0.000 C 
ATOM     26  O   UNL     1       8.080   4.605  18.826  0.00  0.00    +0.000 OA
ENDBRANCH  23  25
ENDBRANCH  16  23
ENDBRANCH  15  16
ENDBRANCH   1  15
TORSDOF 7
ENDMDL
MODEL 7
REMARK VINA RESULT:      -6.5      4.555      7.612
REMARK  Name = 
REMARK  13 active torsions:
REMARK  status: ('A' for Active; 'I' for Inactive)
REMARK    1  A    between atoms: C_1  and  C_2
REMARK    2  A    between atoms: C_2  and  O_4
REMARK    3  A    between atoms: O_4  and  C_5
REMARK    4  A    between atoms: C_5  and  C_6
REMARK    5  A    between atoms: C_5  and  C_21
REMARK    6  A    between atoms: C_6  and  C_7
REMARK    7  A    between atoms: C_8  and  C_9
REMARK    8  A    between atoms: C_13  and  C_14
REMARK    9  A    between atoms: C_13  and  C_15
REMARK   10  A    between atoms: C_19  and  C_20
REMARK   11  A    between atoms: C_21  and  C_22
REMARK   12  A    between atoms: C_23  and  C_24
REMARK   13  A    between atoms: C_24  and  O_25
REMARK                            x       y       z     vdW  Elec       q    Type
REMARK                         _______ _______ _______ _____ _____    ______ ____
ROOT
ATOM      1  C   UNL     1       1.644   9.009  19.764  0.00  0.00    +0.000 C 
ATOM      2  C   UNL     1       0.898   8.789  21.053  0.00  0.00    +0.000 C 
ATOM      3  C   UNL     1       1.964   9.127  22.152  0.00  0.00    +0.000 C 
ATOM      4  C   UNL     1      -0.450   8.531  21.028  0.00  0.00    +0.000 C 
ATOM      5  C   UNL     1      -1.387   9.317  20.022  0.00  0.00    +0.000 C 
ATOM      6  C   UNL     1      -0.639  10.367  19.149  0.00  0.00    +0.000 C 
ATOM      7  C   UNL     1      -1.445  11.668  18.631  0.00  0.00    +0.000 C 
ATOM      8  C   UNL     1      -2.530  12.201  19.605  0.00  0.00    +0.000 C 
ATOM      9  C   UNL     1      -2.197  11.393  17.288  0.00  0.00    +0.000 C 
ATOM     10  C   UNL     1      -0.464  12.820  18.240  0.00  0.00    +0.000 C 
ATOM     11  C   UNL     1       0.663  13.044  19.221  0.00  0.00    +0.000 C 
ATOM     12  C   UNL     1       1.520  11.763  19.287  0.00  0.00    +0.000 C 
ATOM     13  C   UNL     1       0.729  10.592  19.914  0.00  0.00    +0.000 C 
ATOM     14  C   UNL     1       0.338  11.246  21.401  0.00  0.00    +0.000 C 
ENDROOT
BRANCH   1  15
ATOM     15  C   UNL     1       1.938   7.300  20.111  0.00  0.00    +0.000 C 
BRANCH  15  16
ATOM     16  C   UNL     1       2.518   6.197  19.188  0.00  0.00    +0.000 C 
BRANCH  16  17
ATOM     17  C   UNL     1       1.941   4.799  19.358  0.00  0.00    +0.000 C 
ATOM     18  C   UNL     1       1.471   4.030  18.153  0.00  0.00    +0.000 C 
ATOM     19  C   UNL     1       1.721   4.321  20.604  0.00  0.00    +0.000 C 
BRANCH  19  20
ATOM     20  C   UNL     1       1.120   3.003  20.962  0.00  0.00    +0.000 C 
BRANCH  20  21
ATOM     21  O   UNL     1       1.722   2.582  22.175  0.00  0.00    +0.000 OA
ATOM     22  H   UNL     1       2.086   1.695  22.009  0.00  0.00    +0.000 HD
ENDBRANCH  20  21
ENDBRANCH  19  20
ENDBRANCH  16  17
BRANCH  16  23
ATOM     23  O   UNL     1       3.925   6.038  19.657  0.00  0.00    +0.000 OA
BRANCH  23  25
ATOM     24  C   UNL     1       5.070   5.992  17.589  0.00  0.00    +0.000 C 
ATOM     25  C   UNL     1       4.855   5.394  18.957  0.00  0.00    +0.000 C 
ATOM     26  O   UNL     1       5.493   4.436  19.364  0.00  0.00    +0.000 OA
ENDBRANCH  23  25
ENDBRANCH  16  23
ENDBRANCH  15  16
ENDBRANCH   1  15
TORSDOF 7
ENDMDL
MODEL 8
REMARK VINA RESULT:      -6.4      3.456      6.751
REMARK  Name = 
REMARK  13 active torsions:
REMARK  status: ('A' for Active; 'I' for Inactive)
REMARK    1  A    between atoms: C_1  and  C_2
REMARK    2  A    between atoms: C_2  and  O_4
REMARK    3  A    between atoms: O_4  and  C_5
REMARK    4  A    between atoms: C_5  and  C_6
REMARK    5  A    between atoms: C_5  and  C_21
REMARK    6  A    between atoms: C_6  and  C_7
REMARK    7  A    between atoms: C_8  and  C_9
REMARK    8  A    between atoms: C_13  and  C_14
REMARK    9  A    between atoms: C_13  and  C_15
REMARK   10  A    between atoms: C_19  and  C_20
REMARK   11  A    between atoms: C_21  and  C_22
REMARK   12  A    between atoms: C_23  and  C_24
REMARK   13  A    between atoms: C_24  and  O_25
REMARK                            x       y       z     vdW  Elec       q    Type
REMARK                         _______ _______ _______ _____ _____    ______ ____
ROOT
ATOM      1  C   UNL     1       3.036   7.015  18.400  0.00  0.00    +0.000 C 
ATOM      2  C   UNL     1       2.774   5.600  18.839  0.00  0.00    +0.000 C 
ATOM      3  C   UNL     1       1.593   5.144  17.914  0.00  0.00    +0.000 C 
ATOM      4  C   UNL     1       3.621   4.992  19.734  0.00  0.00    +0.000 C 
ATOM      5  C   UNL     1       5.185   5.212  19.616  0.00  0.00    +0.000 C 
ATOM      6  C   UNL     1       5.610   6.115  18.420  0.00  0.00    +0.000 C 
ATOM      7  C   UNL     1       7.060   5.887  17.746  0.00  0.00    +0.000 C 
ATOM      8  C   UNL     1       7.557   4.416  17.733  0.00  0.00    +0.000 C 
ATOM      9  C   UNL     1       8.179   6.692  18.484  0.00  0.00    +0.000 C 
ATOM     10  C   UNL     1       7.111   6.482  16.303  0.00  0.00    +0.000 C 
ATOM     11  C   UNL     1       5.896   6.179  15.457  0.00  0.00    +0.000 C 
ATOM     12  C   UNL     1       4.658   6.809  16.131  0.00  0.00    +0.000 C 
ATOM     13  C   UNL     1       4.339   6.115  17.475  0.00  0.00    +0.000 C 
ATOM     14  C   UNL     1       4.128   4.539  16.964  0.00  0.00    +0.000 C 
ENDROOT
BRANCH   1  15
ATOM     15  C   UNL     1       1.848   7.209  19.696  0.00  0.00    +0.000 C 
BRANCH  15  16
ATOM     16  C   UNL     1       0.943   8.426  20.023  0.00  0.00    +0.000 C 
BRANCH  16  17
ATOM     17  C   UNL     1       0.934   9.556  19.006  0.00  0.00    +0.000 C 
ATOM     18  C   UNL     1       0.504   9.287  17.588  0.00  0.00    +0.000 C 
ATOM     19  C   UNL     1       1.451  10.759  19.347  0.00  0.00    +0.000 C 
BRANCH  19  20
ATOM     20  C   UNL     1       1.573  11.960  18.471  0.00  0.00    +0.000 C 
BRANCH  20  21
ATOM     21  O   UNL     1       2.654  11.726  17.584  0.00  0.00    +0.000 OA
ATOM     22  H   UNL     1       3.438  12.136  17.990  0.00  0.00    +0.000 HD
ENDBRANCH  20  21
ENDBRANCH  19  20
ENDBRANCH  16  17
BRANCH  16  23
ATOM     23  O   UNL     1       1.594   9.050  21.212  0.00  0.00    +0.000 OA
BRANCH  23  25
ATOM     24  C   UNL     1      -0.500   8.921  22.301  0.00  0.00    +0.000 C 
ATOM     25  C   UNL     1       0.981   9.195  22.383  0.00  0.00    +0.000 C 
ATOM     26  O   UNL     1       1.538   9.495  23.428  0.00  0.00    +0.000 OA
ENDBRANCH  23  25
ENDBRANCH  16  23
ENDBRANCH  15  16
ENDBRANCH   1  15
TORSDOF 7
ENDMDL
MODEL 9
REMARK VINA RESULT:      -6.4      4.452      7.411
REMARK  Name = 
REMARK  13 active torsions:
REMARK  status: ('A' for Active; 'I' for Inactive)
REMARK    1  A    between atoms: C_1  and  C_2
REMARK    2  A    between atoms: C_2  and  O_4
REMARK    3  A    between atoms: O_4  and  C_5
REMARK    4  A    between atoms: C_5  and  C_6
REMARK    5  A    between atoms: C_5  and  C_21
REMARK    6  A    between atoms: C_6  and  C_7
REMARK    7  A    between atoms: C_8  and  C_9
REMARK    8  A    between atoms: C_13  and  C_14
REMARK    9  A    between atoms: C_13  and  C_15
REMARK   10  A    between atoms: C_19  and  C_20
REMARK   11  A    between atoms: C_21  and  C_22
REMARK   12  A    between atoms: C_23  and  C_24
REMARK   13  A    between atoms: C_24  and  O_25
REMARK                            x       y       z     vdW  Elec       q    Type
REMARK                         _______ _______ _______ _____ _____    ______ ____
ROOT
ATOM      1  C   UNL     1       1.583   8.962  19.875  0.00  0.00    +0.000 C 
ATOM      2  C   UNL     1       0.835   8.798  21.171  0.00  0.00    +0.000 C 
ATOM      3  C   UNL     1       1.909   9.148  22.258  0.00  0.00    +0.000 C 
ATOM      4  C   UNL     1      -0.518   8.567  21.156  0.00  0.00    +0.000 C 
ATOM      5  C   UNL     1      -1.440   9.341  20.126  0.00  0.00    +0.000 C 
ATOM      6  C   UNL     1      -0.672  10.348  19.220  0.00  0.00    +0.000 C 
ATOM      7  C   UNL     1      -1.451  11.649  18.663  0.00  0.00    +0.000 C 
ATOM      8  C   UNL     1      -2.523  12.234  19.621  0.00  0.00    +0.000 C 
ATOM      9  C   UNL     1      -2.211  11.348  17.330  0.00  0.00    +0.000 C 
ATOM     10  C   UNL     1      -0.447  12.767  18.235  0.00  0.00    +0.000 C 
ATOM     11  C   UNL     1       0.686  12.998  19.208  0.00  0.00    +0.000 C 
ATOM     12  C   UNL     1       1.516  11.702  19.313  0.00  0.00    +0.000 C 
ATOM     13  C   UNL     1       0.702  10.568  19.977  0.00  0.00    +0.000 C 
ATOM     14  C   UNL     1       0.327  11.276  21.443  0.00  0.00    +0.000 C 
ENDROOT
BRANCH   1  15
ATOM     15  C   UNL     1       1.842   7.259  20.275  0.00  0.00    +0.000 C 
BRANCH  15  16
ATOM     16  C   UNL     1       2.344   6.104  19.370  0.00  0.00    +0.000 C 
BRANCH  16  17
ATOM     17  C   UNL     1       1.816   4.714  19.691  0.00  0.00    +0.000 C 
ATOM     18  C   UNL     1       1.913   4.180  21.095  0.00  0.00    +0.000 C 
ATOM     19  C   UNL     1       1.398   3.915  18.682  0.00  0.00    +0.000 C 
BRANCH  19  20
ATOM     20  C   UNL     1       0.900   2.514  18.799  0.00  0.00    +0.000 C 
BRANCH  20  21
ATOM     21  O   UNL     1       1.966   1.656  18.428  0.00  0.00    +0.000 OA
ATOM     22  H   UNL     1       1.653   0.747  18.576  0.00  0.00    +0.000 HD
ENDBRANCH  20  21
ENDBRANCH  19  20
ENDBRANCH  16  17
BRANCH  16  23
ATOM     23  O   UNL     1       3.796   5.994  19.698  0.00  0.00    +0.000 OA
BRANCH  23  25
ATOM     24  C   UNL     1       4.673   6.035  17.503  0.00  0.00    +0.000 C 
ATOM     25  C   UNL     1       4.683   5.429  18.884  0.00  0.00    +0.000 C 
ATOM     26  O   UNL     1       5.448   4.532  19.204  0.00  0.00    +0.000 OA
ENDBRANCH  23  25
ENDBRANCH  16  23
ENDBRANCH  15  16
ENDBRANCH   1  15
TORSDOF 7
ENDMDL
