MODEL 1
REMARK VINA RESULT:      -6.8      0.000      0.000
REMARK  Name = 
REMARK  4 active torsions:
REMARK  status: ('A' for Active; 'I' for Inactive)
REMARK    1  A    between atoms: C_1  and  N_2
REMARK    2  A    between atoms: C_14  and  N_15
REMARK    3  A    between atoms: C_16  and  C_17
REMARK    4  A    between atoms: C_19  and  C_20
REMARK                            x       y       z     vdW  Elec       q    Type
REMARK                         _______ _______ _______ _____ _____    ______ ____
ROOT
ATOM      1  C   UNL     1      -6.096  10.736  18.282  0.00  0.00    +0.000 C 
ATOM      2  N   UNL     1      -5.346  11.556  19.223  0.00  0.00    +0.000 N 
ATOM      3  C   UNL     1      -4.034  11.865  18.903  0.00  0.00    +0.000 A 
ATOM      4  O   UNL     1      -3.480  11.511  17.863  0.00  0.00    +0.000 OA
ATOM      5  C   UNL     1      -3.280  12.688  19.872  0.00  0.00    +0.000 A 
ATOM      6  C   UNL     1      -3.861  13.215  20.958  0.00  0.00    +0.000 A 
ATOM      7  C   UNL     1      -5.235  12.843  21.308  0.00  0.00    +0.000 A 
ATOM      8  C   UNL     1      -5.826  13.267  22.509  0.00  0.00    +0.000 A 
ATOM      9  C   UNL     1      -7.125  12.879  22.836  0.00  0.00    +0.000 A 
ATOM     10  C   UNL     1      -7.849  12.075  21.963  0.00  0.00    +0.000 A 
ATOM     11  C   UNL     1      -7.273  11.646  20.765  0.00  0.00    +0.000 A 
ATOM     12  C   UNL     1      -5.961  12.014  20.428  0.00  0.00    +0.000 A 
ATOM     13  O   UNL     1      -3.189  14.097  21.803  0.00  0.00    +0.000 OA
ATOM     14  C   UNL     1      -1.995  14.686  21.360  0.00  0.00    +0.000 C 
ATOM     15  C   UNL     1      -1.339  14.165  20.306  0.00  0.00    +0.000 C 
ATOM     16  C   UNL     1      -1.838  12.950  19.564  0.00  0.00    +0.000 C 
ENDROOT
BRANCH  16  17
ATOM     17  C   UNL     1      -0.975  11.733  19.891  0.00  0.00    +0.000 A 
ATOM     18  C   UNL     1      -0.194  11.108  18.897  0.00  0.00    +0.000 A 
ATOM     19  C   UNL     1       0.599  10.006  19.210  0.00  0.00    +0.000 A 
ATOM     20 BR   UNL     1       1.633   9.194  17.852  0.00  0.00    +0.000 Br
ATOM     21  C   UNL     1       0.637   9.507  20.507  0.00  0.00    +0.000 A 
ATOM     22  C   UNL     1      -0.130  10.121  21.495  0.00  0.00    +0.000 A 
ATOM     23 BR   UNL     1      -0.079   9.455  23.264  0.00  0.00    +0.000 Br
ATOM     24  C   UNL     1      -0.932  11.224  21.197  0.00  0.00    +0.000 A 
ENDBRANCH  16  17
BRANCH  14  25
ATOM     25  N   UNL     1      -1.605  15.787  22.082  0.00  0.00    +0.000 N 
ATOM     26  H   UNL     1      -2.198  16.595  21.915  0.00  0.00    +0.000 HD
ATOM     27  H   UNL     1      -1.423  15.629  23.072  0.00  0.00    +0.000 HD
ENDBRANCH  14  25
BRANCH  15  28
ATOM     28  C   UNL     1      -0.114  14.827  19.698  0.00  0.00    +0.000 C 
ATOM     29  N   UNL     1       0.903  15.377  19.194  0.00  0.00    +0.000 NA
ENDBRANCH  15  28
TORSDOF 3
ENDMDL
MODEL 2
REMARK VINA RESULT:      -6.8      3.470      6.178
REMARK  Name = 
REMARK  4 active torsions:
REMARK  status: ('A' for Active; 'I' for Inactive)
REMARK    1  A    between atoms: C_1  and  N_2
REMARK    2  A    between atoms: C_14  and  N_15
REMARK    3  A    between atoms: C_16  and  C_17
REMARK    4  A    between atoms: C_19  and  C_20
REMARK                            x       y       z     vdW  Elec       q    Type
REMARK                         _______ _______ _______ _____ _____    ______ ____
ROOT
ATOM      1  C   UNL     1       3.671  15.583  17.811  0.00  0.00    +0.000 C 
ATOM      2  N   UNL     1       2.321  15.482  18.344  0.00  0.00    +0.000 N 
ATOM      3  C   UNL     1       2.009  14.363  19.100  0.00  0.00    +0.000 A 
ATOM      4  O   UNL     1       2.812  13.471  19.366  0.00  0.00    +0.000 OA
ATOM      5  C   UNL     1       0.630  14.268  19.625  0.00  0.00    +0.000 A 
ATOM      6  C   UNL     1      -0.254  15.264  19.482  0.00  0.00    +0.000 A 
ATOM      7  C   UNL     1       0.074  16.420  18.642  0.00  0.00    +0.000 A 
ATOM      8  C   UNL     1      -0.877  17.413  18.360  0.00  0.00    +0.000 A 
ATOM      9  C   UNL     1      -0.554  18.492  17.537  0.00  0.00    +0.000 A 
ATOM     10  C   UNL     1       0.723  18.593  16.996  0.00  0.00    +0.000 A 
ATOM     11  C   UNL     1       1.679  17.611  17.269  0.00  0.00    +0.000 A 
ATOM     12  C   UNL     1       1.365  16.512  18.083  0.00  0.00    +0.000 A 
ATOM     13  O   UNL     1      -1.509  15.231  20.087  0.00  0.00    +0.000 OA
ATOM     14  C   UNL     1      -1.750  14.297  21.105  0.00  0.00    +0.000 C 
ATOM     15  C   UNL     1      -0.924  13.245  21.260  0.00  0.00    +0.000 C 
ATOM     16  C   UNL     1       0.272  13.018  20.370  0.00  0.00    +0.000 C 
ENDROOT
BRANCH  16  17
ATOM     17  C   UNL     1       0.012  11.859  19.409  0.00  0.00    +0.000 A 
ATOM     18  C   UNL     1       1.007  10.895  19.150  0.00  0.00    +0.000 A 
ATOM     19  C   UNL     1       0.754   9.834  18.282  0.00  0.00    +0.000 A 
ATOM     20 BR   UNL     1       2.110   8.558  17.957  0.00  0.00    +0.000 Br
ATOM     21  C   UNL     1      -0.484   9.709  17.660  0.00  0.00    +0.000 A 
ATOM     22  C   UNL     1      -1.472  10.657  17.914  0.00  0.00    +0.000 A 
ATOM     23 BR   UNL     1      -3.162  10.490  17.081  0.00  0.00    +0.000 Br
ATOM     24  C   UNL     1      -1.233  11.727  18.779  0.00  0.00    +0.000 A 
ENDBRANCH  16  17
BRANCH  14  25
ATOM     25  N   UNL     1      -2.853  14.569  21.875  0.00  0.00    +0.000 N 
ATOM     26  H   UNL     1      -3.649  13.980  21.641  0.00  0.00    +0.000 HD
ATOM     27  H   UNL     1      -2.693  14.632  22.879  0.00  0.00    +0.000 HD
ENDBRANCH  14  25
BRANCH  15  28
ATOM     28  C   UNL     1      -1.053  12.269  22.418  0.00  0.00    +0.000 C 
ATOM     29  N   UNL     1      -1.160  11.458  23.378  0.00  0.00    +0.000 NA
ENDBRANCH  15  28
TORSDOF 3
ENDMDL
MODEL 3
REMARK VINA RESULT:      -6.7      0.095      1.806
REMARK  Name = 
REMARK  4 active torsions:
REMARK  status: ('A' for Active; 'I' for Inactive)
REMARK    1  A    between atoms: C_1  and  N_2
REMARK    2  A    between atoms: C_14  and  N_15
REMARK    3  A    between atoms: C_16  and  C_17
REMARK    4  A    between atoms: C_19  and  C_20
REMARK                            x       y       z     vdW  Elec       q    Type
REMARK                         _______ _______ _______ _____ _____    ______ ____
ROOT
ATOM      1  C   UNL     1      -6.019  10.662  18.169  0.00  0.00    +0.000 C 
ATOM      2  N   UNL     1      -5.305  11.492  19.128  0.00  0.00    +0.000 N 
ATOM      3  C   UNL     1      -3.992  11.824  18.837  0.00  0.00    +0.000 A 
ATOM      4  O   UNL     1      -3.409  11.482  17.810  0.00  0.00    +0.000 OA
ATOM      5  C   UNL     1      -3.274  12.658  19.826  0.00  0.00    +0.000 A 
ATOM      6  C   UNL     1      -3.888  13.171  20.900  0.00  0.00    +0.000 A 
ATOM      7  C   UNL     1      -5.262  12.775  21.218  0.00  0.00    +0.000 A 
ATOM      8  C   UNL     1      -5.886  13.185  22.406  0.00  0.00    +0.000 A 
ATOM      9  C   UNL     1      -7.185  12.774  22.704  0.00  0.00    +0.000 A 
ATOM     10  C   UNL     1      -7.876  11.960  21.814  0.00  0.00    +0.000 A 
ATOM     11  C   UNL     1      -7.267  11.545  20.628  0.00  0.00    +0.000 A 
ATOM     12  C   UNL     1      -5.954  11.936  20.321  0.00  0.00    +0.000 A 
ATOM     13  O   UNL     1      -3.249  14.062  21.761  0.00  0.00    +0.000 OA
ATOM     14  C   UNL     1      -2.056  14.674  21.346  0.00  0.00    +0.000 C 
ATOM     15  C   UNL     1      -1.369  14.167  20.305  0.00  0.00    +0.000 C 
ATOM     16  C   UNL     1      -1.830  12.945  19.550  0.00  0.00    +0.000 C 
ENDROOT
BRANCH  16  17
ATOM     17  C   UNL     1      -0.953  11.742  19.893  0.00  0.00    +0.000 A 
ATOM     18  C   UNL     1      -0.912  11.223  21.203  0.00  0.00    +0.000 A 
ATOM     19  C   UNL     1      -0.119  10.117  21.501  0.00  0.00    +0.000 A 
ATOM     20 BR   UNL     1      -0.088   9.448  23.268  0.00  0.00    +0.000 Br
ATOM     21  C   UNL     1       0.643   9.506  20.511  0.00  0.00    +0.000 A 
ATOM     22  C   UNL     1       0.605  10.012  19.214  0.00  0.00    +0.000 A 
ATOM     23 BR   UNL     1       1.630   9.181  17.858  0.00  0.00    +0.000 Br
ATOM     24  C   UNL     1      -0.182  11.120  18.900  0.00  0.00    +0.000 A 
ENDBRANCH  16  17
BRANCH  14  25
ATOM     25  N   UNL     1      -1.701  15.778  22.079  0.00  0.00    +0.000 N 
ATOM     26  H   UNL     1      -1.681  15.596  23.078  0.00  0.00    +0.000 HD
ATOM     27  H   UNL     1      -0.877  16.282  21.754  0.00  0.00    +0.000 HD
ENDBRANCH  14  25
BRANCH  15  28
ATOM     28  C   UNL     1      -0.142  14.851  19.726  0.00  0.00    +0.000 C 
ATOM     29  N   UNL     1       0.877  15.419  19.245  0.00  0.00    +0.000 NA
ENDBRANCH  15  28
TORSDOF 3
ENDMDL
MODEL 4
REMARK VINA RESULT:      -6.7      3.456      6.207
REMARK  Name = 
REMARK  4 active torsions:
REMARK  status: ('A' for Active; 'I' for Inactive)
REMARK    1  A    between atoms: C_1  and  N_2
REMARK    2  A    between atoms: C_14  and  N_15
REMARK    3  A    between atoms: C_16  and  C_17
REMARK    4  A    between atoms: C_19  and  C_20
REMARK                            x       y       z     vdW  Elec       q    Type
REMARK                         _______ _______ _______ _____ _____    ______ ____
ROOT
ATOM      1  C   UNL     1       3.658  15.555  17.836  0.00  0.00    +0.000 C 
ATOM      2  N   UNL     1       2.305  15.461  18.365  0.00  0.00    +0.000 N 
ATOM      3  C   UNL     1       1.986  14.344  19.120  0.00  0.00    +0.000 A 
ATOM      4  O   UNL     1       2.784  13.447  19.389  0.00  0.00    +0.000 OA
ATOM      5  C   UNL     1       0.605  14.255  19.640  0.00  0.00    +0.000 A 
ATOM      6  C   UNL     1      -0.274  15.255  19.494  0.00  0.00    +0.000 A 
ATOM      7  C   UNL     1       0.062  16.409  18.656  0.00  0.00    +0.000 A 
ATOM      8  C   UNL     1      -0.883  17.407  18.370  0.00  0.00    +0.000 A 
ATOM      9  C   UNL     1      -0.552  18.484  17.547  0.00  0.00    +0.000 A 
ATOM     10  C   UNL     1       0.727  18.579  17.011  0.00  0.00    +0.000 A 
ATOM     11  C   UNL     1       1.677  17.593  17.287  0.00  0.00    +0.000 A 
ATOM     12  C   UNL     1       1.355  16.495  18.101  0.00  0.00    +0.000 A 
ATOM     13  O   UNL     1      -1.531  15.229  20.096  0.00  0.00    +0.000 OA
ATOM     14  C   UNL     1      -1.780  14.296  21.114  0.00  0.00    +0.000 C 
ATOM     15  C   UNL     1      -0.959  13.240  21.272  0.00  0.00    +0.000 C 
ATOM     16  C   UNL     1       0.239  13.008  20.385  0.00  0.00    +0.000 C 
ENDROOT
BRANCH  16  17
ATOM     17  C   UNL     1      -0.024  11.849  19.424  0.00  0.00    +0.000 A 
ATOM     18  C   UNL     1      -1.261  11.723  18.761  0.00  0.00    +0.000 A 
ATOM     19  C   UNL     1      -1.485  10.669  17.877  0.00  0.00    +0.000 A 
ATOM     20 BR   UNL     1      -3.156  10.531  17.004  0.00  0.00    +0.000 Br
ATOM     21  C   UNL     1      -0.491   9.728  17.632  0.00  0.00    +0.000 A 
ATOM     22  C   UNL     1       0.735   9.849  18.282  0.00  0.00    +0.000 A 
ATOM     23 BR   UNL     1       2.097   8.579  17.949  0.00  0.00    +0.000 Br
ATOM     24  C   UNL     1       0.974  10.896  19.172  0.00  0.00    +0.000 A 
ENDBRANCH  16  17
BRANCH  14  25
ATOM     25  N   UNL     1      -2.884  14.573  21.879  0.00  0.00    +0.000 N 
ATOM     26  H   UNL     1      -2.661  15.123  22.705  0.00  0.00    +0.000 HD
ATOM     27  H   UNL     1      -3.696  14.929  21.378  0.00  0.00    +0.000 HD
ENDBRANCH  14  25
BRANCH  15  28
ATOM     28  C   UNL     1      -1.096  12.265  22.429  0.00  0.00    +0.000 C 
ATOM     29  N   UNL     1      -1.211  11.457  23.390  0.00  0.00    +0.000 NA
ENDBRANCH  15  28
TORSDOF 3
ENDMDL
MODEL 5
REMARK VINA RESULT:      -6.5      2.864      6.332
REMARK  Name = 
REMARK  4 active torsions:
REMARK  status: ('A' for Active; 'I' for Inactive)
REMARK    1  A    between atoms: C_1  and  N_2
REMARK    2  A    between atoms: C_14  and  N_15
REMARK    3  A    between atoms: C_16  and  C_17
REMARK    4  A    between atoms: C_19  and  C_20
REMARK                            x       y       z     vdW  Elec       q    Type
REMARK                         _______ _______ _______ _____ _____    ______ ____
ROOT
ATOM      1  C   UNL     1       0.056   9.173  23.081  0.00  0.00    +0.000 C 
ATOM      2  N   UNL     1      -0.078  10.163  22.023  0.00  0.00    +0.000 N 
ATOM      3  C   UNL     1      -0.809  11.306  22.302  0.00  0.00    +0.000 A 
ATOM      4  O   UNL     1      -1.323  11.543  23.394  0.00  0.00    +0.000 OA
ATOM      5  C   UNL     1      -0.948  12.299  21.215  0.00  0.00    +0.000 A 
ATOM      6  C   UNL     1      -0.307  12.165  20.047  0.00  0.00    +0.000 A 
ATOM      7  C   UNL     1       0.424  10.931  19.748  0.00  0.00    +0.000 A 
ATOM      8  C   UNL     1       0.991  10.702  18.485  0.00  0.00    +0.000 A 
ATOM      9  C   UNL     1       1.660   9.509  18.212  0.00  0.00    +0.000 A 
ATOM     10  C   UNL     1       1.777   8.538  19.201  0.00  0.00    +0.000 A 
ATOM     11  C   UNL     1       1.218   8.753  20.462  0.00  0.00    +0.000 A 
ATOM     12  C   UNL     1       0.528   9.942  20.748  0.00  0.00    +0.000 A 
ATOM     13  O   UNL     1      -0.331  13.161  19.072  0.00  0.00    +0.000 OA
ATOM     14  C   UNL     1      -0.773  14.446  19.421  0.00  0.00    +0.000 C 
ATOM     15  C   UNL     1      -1.471  14.630  20.558  0.00  0.00    +0.000 C 
ATOM     16  C   UNL     1      -1.808  13.494  21.492  0.00  0.00    +0.000 C 
ENDROOT
BRANCH  16  17
ATOM     17  C   UNL     1      -3.291  13.141  21.392  0.00  0.00    +0.000 A 
ATOM     18  C   UNL     1      -4.140  13.249  22.512  0.00  0.00    +0.000 A 
ATOM     19  C   UNL     1      -5.494  12.937  22.405  0.00  0.00    +0.000 A 
ATOM     20 BR   UNL     1      -6.603  13.094  23.927  0.00  0.00    +0.000 Br
ATOM     21  C   UNL     1      -6.030  12.517  21.193  0.00  0.00    +0.000 A 
ATOM     22  C   UNL     1      -5.197  12.411  20.081  0.00  0.00    +0.000 A 
ATOM     23 BR   UNL     1      -5.918  11.850  18.425  0.00  0.00    +0.000 Br
ATOM     24  C   UNL     1      -3.838  12.717  20.172  0.00  0.00    +0.000 A 
ENDBRANCH  16  17
BRANCH  14  25
ATOM     25  N   UNL     1      -0.429  15.427  18.526  0.00  0.00    +0.000 N 
ATOM     26  H   UNL     1      -0.117  16.281  18.980  0.00  0.00    +0.000 HD
ATOM     27  H   UNL     1       0.184  15.141  17.764  0.00  0.00    +0.000 HD
ENDBRANCH  14  25
BRANCH  15  28
ATOM     28  C   UNL     1      -1.868  16.008  21.059  0.00  0.00    +0.000 C 
ATOM     29  N   UNL     1      -2.197  17.152  21.476  0.00  0.00    +0.000 NA
ENDBRANCH  15  28
TORSDOF 3
ENDMDL
MODEL 6
REMARK VINA RESULT:      -6.5      2.842      6.064
REMARK  Name = 
REMARK  4 active torsions:
REMARK  status: ('A' for Active; 'I' for Inactive)
REMARK    1  A    between atoms: C_1  and  N_2
REMARK    2  A    between atoms: C_14  and  N_15
REMARK    3  A    between atoms: C_16  and  C_17
REMARK    4  A    between atoms: C_19  and  C_20
REMARK                            x       y       z     vdW  Elec       q    Type
REMARK                         _______ _______ _______ _____ _____    ______ ____
ROOT
ATOM      1  C   UNL     1      -0.029   9.108  23.076  0.00  0.00    +0.000 C 
ATOM      2  N   UNL     1      -0.140  10.109  22.025  0.00  0.00    +0.000 N 
ATOM      3  C   UNL     1      -0.879  11.249  22.298  0.00  0.00    +0.000 A 
ATOM      4  O   UNL     1      -1.420  11.473  23.379  0.00  0.00    +0.000 OA
ATOM      5  C   UNL     1      -0.994  12.251  21.217  0.00  0.00    +0.000 A 
ATOM      6  C   UNL     1      -0.325  12.130  20.064  0.00  0.00    +0.000 A 
ATOM      7  C   UNL     1       0.415  10.900  19.771  0.00  0.00    +0.000 A 
ATOM      8  C   UNL     1       1.013  10.684  18.519  0.00  0.00    +0.000 A 
ATOM      9  C   UNL     1       1.689   9.495  18.251  0.00  0.00    +0.000 A 
ATOM     10  C   UNL     1       1.784   8.515  19.233  0.00  0.00    +0.000 A 
ATOM     11  C   UNL     1       1.195   8.717  20.482  0.00  0.00    +0.000 A 
ATOM     12  C   UNL     1       0.497   9.902  20.763  0.00  0.00    +0.000 A 
ATOM     13  O   UNL     1      -0.328  13.136  19.098  0.00  0.00    +0.000 OA
ATOM     14  C   UNL     1      -0.780  14.416  19.449  0.00  0.00    +0.000 C 
ATOM     15  C   UNL     1      -1.505  14.588  20.571  0.00  0.00    +0.000 C 
ATOM     16  C   UNL     1      -1.863  13.442  21.485  0.00  0.00    +0.000 C 
ENDROOT
BRANCH  16  17
ATOM     17  C   UNL     1      -3.342  13.089  21.347  0.00  0.00    +0.000 A 
ATOM     18  C   UNL     1      -3.867  12.631  20.121  0.00  0.00    +0.000 A 
ATOM     19  C   UNL     1      -5.215  12.299  20.009  0.00  0.00    +0.000 A 
ATOM     20 BR   UNL     1      -5.885  11.688  18.351  0.00  0.00    +0.000 Br
ATOM     21  C   UNL     1      -6.064  12.410  21.105  0.00  0.00    +0.000 A 
ATOM     22  C   UNL     1      -5.552  12.860  22.320  0.00  0.00    +0.000 A 
ATOM     23 BR   UNL     1      -6.696  13.006  23.819  0.00  0.00    +0.000 Br
ATOM     24  C   UNL     1      -4.204  13.199  22.447  0.00  0.00    +0.000 A 
ENDBRANCH  16  17
BRANCH  14  25
ATOM     25  N   UNL     1      -0.417  15.407  18.572  0.00  0.00    +0.000 N 
ATOM     26  H   UNL     1       0.107  16.154  19.020  0.00  0.00    +0.000 HD
ATOM     27  H   UNL     1       0.009  15.096  17.700  0.00  0.00    +0.000 HD
ENDBRANCH  14  25
BRANCH  15  28
ATOM     28  C   UNL     1      -1.917  15.961  21.076  0.00  0.00    +0.000 C 
ATOM     29  N   UNL     1      -2.258  17.100  21.496  0.00  0.00    +0.000 NA
ENDBRANCH  15  28
TORSDOF 3
ENDMDL
MODEL 7
REMARK VINA RESULT:      -6.5      3.162      5.111
REMARK  Name = 
REMARK  4 active torsions:
REMARK  status: ('A' for Active; 'I' for Inactive)
REMARK    1  A    between atoms: C_1  and  N_2
REMARK    2  A    between atoms: C_14  and  N_15
REMARK    3  A    between atoms: C_16  and  C_17
REMARK    4  A    between atoms: C_19  and  C_20
REMARK                            x       y       z     vdW  Elec       q    Type
REMARK                         _______ _______ _______ _____ _____    ______ ____
ROOT
ATOM      1  C   UNL     1       1.437  16.272  18.866  0.00  0.00    +0.000 C 
ATOM      2  N   UNL     1       0.373  15.560  19.558  0.00  0.00    +0.000 N 
ATOM      3  C   UNL     1       0.641  14.274  19.998  0.00  0.00    +0.000 A 
ATOM      4  O   UNL     1       1.728  13.715  19.862  0.00  0.00    +0.000 OA
ATOM      5  C   UNL     1      -0.452  13.557  20.688  0.00  0.00    +0.000 A 
ATOM      6  C   UNL     1      -1.615  14.152  20.983  0.00  0.00    +0.000 A 
ATOM      7  C   UNL     1      -1.902  15.495  20.472  0.00  0.00    +0.000 A 
ATOM      8  C   UNL     1      -3.160  16.093  20.646  0.00  0.00    +0.000 A 
ATOM      9  C   UNL     1      -3.422  17.361  20.128  0.00  0.00    +0.000 A 
ATOM     10  C   UNL     1      -2.427  18.048  19.441  0.00  0.00    +0.000 A 
ATOM     11  C   UNL     1      -1.171  17.465  19.261  0.00  0.00    +0.000 A 
ATOM     12  C   UNL     1      -0.896  16.183  19.763  0.00  0.00    +0.000 A 
ATOM     13  O   UNL     1      -2.595  13.522  21.748  0.00  0.00    +0.000 OA
ATOM     14  C   UNL     1      -2.256  12.373  22.478  0.00  0.00    +0.000 C 
ATOM     15  C   UNL     1      -1.124  11.703  22.187  0.00  0.00    +0.000 C 
ATOM     16  C   UNL     1      -0.187  12.138  21.088  0.00  0.00    +0.000 C 
ENDROOT
BRANCH  16  17
ATOM     17  C   UNL     1      -0.296  11.197  19.890  0.00  0.00    +0.000 A 
ATOM     18  C   UNL     1      -1.494  11.095  19.154  0.00  0.00    +0.000 A 
ATOM     19  C   UNL     1      -1.578  10.243  18.054  0.00  0.00    +0.000 A 
ATOM     20 BR   UNL     1      -3.199  10.130  17.090  0.00  0.00    +0.000 Br
ATOM     21  C   UNL     1      -0.480   9.484  17.663  0.00  0.00    +0.000 A 
ATOM     22  C   UNL     1       0.707   9.582  18.384  0.00  0.00    +0.000 A 
ATOM     23 BR   UNL     1       2.208   8.561  17.854  0.00  0.00    +0.000 Br
ATOM     24  C   UNL     1       0.806  10.428  19.489  0.00  0.00    +0.000 A 
ENDBRANCH  16  17
BRANCH  14  25
ATOM     25  N   UNL     1      -3.154  12.039  23.461  0.00  0.00    +0.000 N 
ATOM     26  H   UNL     1      -3.094  12.651  24.271  0.00  0.00    +0.000 HD
ATOM     27  H   UNL     1      -4.113  11.885  23.154  0.00  0.00    +0.000 HD
ENDBRANCH  14  25
BRANCH  15  28
ATOM     28  C   UNL     1      -0.634  10.529  23.019  0.00  0.00    +0.000 C 
ATOM     29  N   UNL     1      -0.227   9.555  23.710  0.00  0.00    +0.000 NA
ENDBRANCH  15  28
TORSDOF 3
ENDMDL
MODEL 8
REMARK VINA RESULT:      -6.5      3.211      5.076
REMARK  Name = 
REMARK  4 active torsions:
REMARK  status: ('A' for Active; 'I' for Inactive)
REMARK    1  A    between atoms: C_1  and  N_2
REMARK    2  A    between atoms: C_14  and  N_15
REMARK    3  A    between atoms: C_16  and  C_17
REMARK    4  A    between atoms: C_19  and  C_20
REMARK                            x       y       z     vdW  Elec       q    Type
REMARK                         _______ _______ _______ _____ _____    ______ ____
ROOT
ATOM      1  C   UNL     1       1.456  16.401  18.766  0.00  0.00    +0.000 C 
ATOM      2  N   UNL     1       0.409  15.684  19.478  0.00  0.00    +0.000 N 
ATOM      3  C   UNL     1       0.696  14.405  19.925  0.00  0.00    +0.000 A 
ATOM      4  O   UNL     1       1.787  13.855  19.779  0.00  0.00    +0.000 OA
ATOM      5  C   UNL     1      -0.380  13.683  20.637  0.00  0.00    +0.000 A 
ATOM      6  C   UNL     1      -1.545  14.269  20.943  0.00  0.00    +0.000 A 
ATOM      7  C   UNL     1      -1.853  15.604  20.425  0.00  0.00    +0.000 A 
ATOM      8  C   UNL     1      -3.114  16.190  20.612  0.00  0.00    +0.000 A 
ATOM      9  C   UNL     1      -3.396  17.452  20.087  0.00  0.00    +0.000 A 
ATOM     10  C   UNL     1      -2.418  18.143  19.380  0.00  0.00    +0.000 A 
ATOM     11  C   UNL     1      -1.158  17.571  19.188  0.00  0.00    +0.000 A 
ATOM     12  C   UNL     1      -0.864  16.296  19.696  0.00  0.00    +0.000 A 
ATOM     13  O   UNL     1      -2.508  13.635  21.727  0.00  0.00    +0.000 OA
ATOM     14  C   UNL     1      -2.147  12.496  22.462  0.00  0.00    +0.000 C 
ATOM     15  C   UNL     1      -1.013  11.835  22.161  0.00  0.00    +0.000 C 
ATOM     16  C   UNL     1      -0.096  12.270  21.045  0.00  0.00    +0.000 C 
ENDROOT
BRANCH  16  17
ATOM     17  C   UNL     1      -0.211  11.318  19.856  0.00  0.00    +0.000 A 
ATOM     18  C   UNL     1       0.888  10.541  19.439  0.00  0.00    +0.000 A 
ATOM     19  C   UNL     1       0.767   9.667  18.360  0.00  0.00    +0.000 A 
ATOM     20 BR   UNL     1       2.261   8.639  17.828  0.00  0.00    +0.000 Br
ATOM     21  C   UNL     1      -0.440   9.544  17.680  0.00  0.00    +0.000 A 
ATOM     22  C   UNL     1      -1.531  10.308  18.090  0.00  0.00    +0.000 A 
ATOM     23 BR   UNL     1      -3.180  10.142  17.178  0.00  0.00    +0.000 Br
ATOM     24  C   UNL     1      -1.425  11.190  19.166  0.00  0.00    +0.000 A 
ENDBRANCH  16  17
BRANCH  14  25
ATOM     25  N   UNL     1      -3.028  12.162  23.460  0.00  0.00    +0.000 N 
ATOM     26  H   UNL     1      -2.744  12.517  24.369  0.00  0.00    +0.000 HD
ATOM     27  H   UNL     1      -4.012  12.333  23.261  0.00  0.00    +0.000 HD
ENDBRANCH  14  25
BRANCH  15  28
ATOM     28  C   UNL     1      -0.499  10.673  22.995  0.00  0.00    +0.000 C 
ATOM     29  N   UNL     1      -0.071   9.709  23.687  0.00  0.00    +0.000 NA
ENDBRANCH  15  28
TORSDOF 3
ENDMDL
MODEL 9
REMARK VINA RESULT:      -6.4      2.902      4.629
REMARK  Name = 
REMARK  4 active torsions:
REMARK  status: ('A' for Active; 'I' for Inactive)
REMARK    1  A    between atoms: C_1  and  N_2
REMARK    2  A    between atoms: C_14  and  N_15
REMARK    3  A    between atoms: C_16  and  C_17
REMARK    4  A    between atoms: C_19  and  C_20
REMARK                            x       y       z     vdW  Elec       q    Type
REMARK                         _______ _______ _______ _____ _____    ______ ____
ROOT
ATOM      1  C   UNL     1      -0.497  17.142  18.961  0.00  0.00    +0.000 C 
ATOM      2  N   UNL     1      -1.309  16.212  19.732  0.00  0.00    +0.000 N 
ATOM      3  C   UNL     1      -0.745  14.992  20.067  0.00  0.00    +0.000 A 
ATOM      4  O   UNL     1       0.404  14.664  19.775  0.00  0.00    +0.000 OA
ATOM      5  C   UNL     1      -1.584  14.051  20.840  0.00  0.00    +0.000 A 
ATOM      6  C   UNL     1      -2.794  14.395  21.300  0.00  0.00    +0.000 A 
ATOM      7  C   UNL     1      -3.396  15.669  20.901  0.00  0.00    +0.000 A 
ATOM      8  C   UNL     1      -4.714  16.000  21.252  0.00  0.00    +0.000 A 
ATOM      9  C   UNL     1      -5.278  17.206  20.839  0.00  0.00    +0.000 A 
ATOM     10  C   UNL     1      -4.528  18.098  20.079  0.00  0.00    +0.000 A 
ATOM     11  C   UNL     1      -3.216  17.782  19.723  0.00  0.00    +0.000 A 
ATOM     12  C   UNL     1      -2.638  16.565  20.118  0.00  0.00    +0.000 A 
ATOM     13  O   UNL     1      -3.531  13.559  22.138  0.00  0.00    +0.000 OA
ATOM     14  C   UNL     1      -2.887  12.479  22.760  0.00  0.00    +0.000 C 
ATOM     15  C   UNL     1      -1.693  12.056  22.303  0.00  0.00    +0.000 C 
ATOM     16  C   UNL     1      -1.002  12.701  21.128  0.00  0.00    +0.000 C 
ENDROOT
BRANCH  16  17
ATOM     17  C   UNL     1      -1.076  11.795  19.900  0.00  0.00    +0.000 A 
ATOM     18  C   UNL     1      -2.246  11.731  19.115  0.00  0.00    +0.000 A 
ATOM     19  C   UNL     1      -2.297  10.911  17.990  0.00  0.00    +0.000 A 
ATOM     20 BR   UNL     1      -3.881  10.850  16.959  0.00  0.00    +0.000 Br
ATOM     21  C   UNL     1      -1.196  10.146  17.621  0.00  0.00    +0.000 A 
ATOM     22  C   UNL     1      -0.037  10.206  18.391  0.00  0.00    +0.000 A 
ATOM     23 BR   UNL     1       1.469   9.176  17.893  0.00  0.00    +0.000 Br
ATOM     24  C   UNL     1       0.030  11.020  19.523  0.00  0.00    +0.000 A 
ENDBRANCH  16  17
BRANCH  14  25
ATOM     25  N   UNL     1      -3.574  11.944  23.821  0.00  0.00    +0.000 N 
ATOM     26  H   UNL     1      -3.086  11.162  24.250  0.00  0.00    +0.000 HD
ATOM     27  H   UNL     1      -3.927  12.610  24.505  0.00  0.00    +0.000 HD
ENDBRANCH  14  25
BRANCH  15  28
ATOM     28  C   UNL     1      -0.885  10.977  23.006  0.00  0.00    +0.000 C 
ATOM     29  N   UNL     1      -0.214  10.083  23.589  0.00  0.00    +0.000 NA
ENDBRANCH  15  28
TORSDOF 3
ENDMDL
