MODEL 1
REMARK VINA RESULT:      -7.5      0.000      0.000
REMARK  Name = 
REMARK  5 active torsions:
REMARK  status: ('A' for Active; 'I' for Inactive)
REMARK    1  A    between atoms: C_1  and  C_2
REMARK    2  A    between atoms: C_6  and  C_7
REMARK    3  A    between atoms: C_6  and  C_8
REMARK    4  A    between atoms: C_10  and  C_11
REMARK    5  A    between atoms: C_10  and  C_12
REMARK                            x       y       z     vdW  Elec       q    Type
REMARK                         _______ _______ _______ _____ _____    ______ ____
ROOT
ATOM      1  C   UNL     1       1.937   3.087  21.992  0.00  0.00    +0.000 C 
ATOM      2  C   UNL     1       2.434   3.407  20.609  0.00  0.00    +0.000 C 
ATOM      3  C   UNL     1       2.975   2.432  19.867  0.00  0.00    +0.000 C 
ATOM      4  C   UNL     1       3.492   2.657  18.505  0.00  0.00    +0.000 C 
ATOM      5  O   UNL     1       3.993   1.691  17.923  0.00  0.00    +0.000 OA
ATOM      6  C   UNL     1       3.383   4.037  17.870  0.00  0.00    +0.000 C 
ATOM      7  C   UNL     1       2.445   3.865  16.655  0.00  0.00    +0.000 C 
ATOM      8  C   UNL     1       2.785   5.106  18.795  0.00  0.00    +0.000 A 
ATOM      9  C   UNL     1       2.681   6.437  18.328  0.00  0.00    +0.000 A 
ATOM     10  C   UNL     1       2.123   7.437  19.120  0.00  0.00    +0.000 A 
ATOM     11  C   UNL     1       1.667   7.127  20.391  0.00  0.00    +0.000 A 
ATOM     12  C   UNL     1       1.772   5.819  20.871  0.00  0.00    +0.000 A 
ATOM     13  C   UNL     1       2.328   4.790  20.090  0.00  0.00    +0.000 A 
ENDROOT
BRANCH   6  14
ATOM     14  C   UNL     1       4.775   4.450  17.430  0.00  0.00    +0.000 C 
ATOM     15  N   UNL     1       5.677   5.005  18.180  0.00  0.00    +0.000 NA
ATOM     16  C   UNL     1       6.838   5.185  17.291  0.00  0.00    +0.000 C 
ATOM     17  C   UNL     1       7.185   6.671  17.229  0.00  0.00    +0.000 C 
ATOM     18  C   UNL     1       8.003   4.382  17.868  0.00  0.00    +0.000 C 
ATOM     19  C   UNL     1       6.393   4.654  15.932  0.00  0.00    +0.000 C 
ATOM     20  O   UNL     1       5.076   4.161  16.141  0.00  0.00    +0.000 OA
ENDBRANCH   6  14
TORSDOF 1
ENDMDL
MODEL 2
REMARK VINA RESULT:      -7.5      0.800      1.224
REMARK  Name = 
REMARK  5 active torsions:
REMARK  status: ('A' for Active; 'I' for Inactive)
REMARK    1  A    between atoms: C_1  and  C_2
REMARK    2  A    between atoms: C_6  and  C_7
REMARK    3  A    between atoms: C_6  and  C_8
REMARK    4  A    between atoms: C_10  and  C_11
REMARK    5  A    between atoms: C_10  and  C_12
REMARK                            x       y       z     vdW  Elec       q    Type
REMARK                         _______ _______ _______ _____ _____    ______ ____
ROOT
ATOM      1  C   UNL     1       1.713   2.715  21.933  0.00  0.00    +0.000 C 
ATOM      2  C   UNL     1       2.301   3.151  20.619  0.00  0.00    +0.000 C 
ATOM      3  C   UNL     1       2.881   2.239  19.827  0.00  0.00    +0.000 C 
ATOM      4  C   UNL     1       3.486   2.578  18.527  0.00  0.00    +0.000 C 
ATOM      5  O   UNL     1       4.016   1.662  17.892  0.00  0.00    +0.000 OA
ATOM      6  C   UNL     1       3.430   4.011  18.015  0.00  0.00    +0.000 C 
ATOM      7  C   UNL     1       2.571   3.963  16.731  0.00  0.00    +0.000 C 
ATOM      8  C   UNL     1       2.783   5.002  18.993  0.00  0.00    +0.000 A 
ATOM      9  C   UNL     1       2.720   6.370  18.643  0.00  0.00    +0.000 A 
ATOM     10  C   UNL     1       2.121   7.303  19.485  0.00  0.00    +0.000 A 
ATOM     11  C   UNL     1       1.581   6.886  20.692  0.00  0.00    +0.000 A 
ATOM     12  C   UNL     1       1.644   5.538  21.057  0.00  0.00    +0.000 A 
ATOM     13  C   UNL     1       2.241   4.576  20.222  0.00  0.00    +0.000 A 
ENDROOT
BRANCH   6  14
ATOM     14  C   UNL     1       4.851   4.442  17.703  0.00  0.00    +0.000 C 
ATOM     15  N   UNL     1       5.226   5.137  16.673  0.00  0.00    +0.000 NA
ATOM     16  C   UNL     1       6.681   5.298  16.845  0.00  0.00    +0.000 C 
ATOM     17  C   UNL     1       7.390   4.692  15.636  0.00  0.00    +0.000 C 
ATOM     18  C   UNL     1       6.980   6.792  16.955  0.00  0.00    +0.000 C 
ATOM     19  C   UNL     1       7.020   4.549  18.130  0.00  0.00    +0.000 C 
ATOM     20  O   UNL     1       5.774   4.082  18.627  0.00  0.00    +0.000 OA
ENDBRANCH   6  14
TORSDOF 1
ENDMDL
MODEL 3
REMARK VINA RESULT:      -7.1      5.983      8.762
REMARK  Name = 
REMARK  5 active torsions:
REMARK  status: ('A' for Active; 'I' for Inactive)
REMARK    1  A    between atoms: C_1  and  C_2
REMARK    2  A    between atoms: C_6  and  C_7
REMARK    3  A    between atoms: C_6  and  C_8
REMARK    4  A    between atoms: C_10  and  C_11
REMARK    5  A    between atoms: C_10  and  C_12
REMARK                            x       y       z     vdW  Elec       q    Type
REMARK                         _______ _______ _______ _____ _____    ______ ____
ROOT
ATOM      1  C   UNL     1       0.674   9.174  22.853  0.00  0.00    +0.000 C 
ATOM      2  C   UNL     1       0.256   9.851  21.575  0.00  0.00    +0.000 C 
ATOM      3  C   UNL     1      -0.623  10.860  21.628  0.00  0.00    +0.000 C 
ATOM      4  C   UNL     1      -1.091  11.575  20.427  0.00  0.00    +0.000 C 
ATOM      5  O   UNL     1      -1.922  12.473  20.589  0.00  0.00    +0.000 OA
ATOM      6  C   UNL     1      -0.539  11.200  19.058  0.00  0.00    +0.000 C 
ATOM      7  C   UNL     1       0.224  12.448  18.559  0.00  0.00    +0.000 C 
ATOM      8  C   UNL     1       0.433  10.013  19.077  0.00  0.00    +0.000 A 
ATOM      9  C   UNL     1       0.971   9.546  17.856  0.00  0.00    +0.000 A 
ATOM     10  C   UNL     1       1.877   8.489  17.824  0.00  0.00    +0.000 A 
ATOM     11  C   UNL     1       2.255   7.878  19.009  0.00  0.00    +0.000 A 
ATOM     12  C   UNL     1       1.724   8.321  20.224  0.00  0.00    +0.000 A 
ATOM     13  C   UNL     1       0.811   9.389  20.283  0.00  0.00    +0.000 A 
ENDROOT
BRANCH   6  14
ATOM     14  C   UNL     1      -1.720  10.889  18.157  0.00  0.00    +0.000 C 
ATOM     15  N   UNL     1      -2.181  11.654  17.216  0.00  0.00    +0.000 NA
ATOM     16  C   UNL     1      -3.306  10.896  16.640  0.00  0.00    +0.000 C 
ATOM     17  C   UNL     1      -4.582  11.724  16.779  0.00  0.00    +0.000 C 
ATOM     18  C   UNL     1      -2.991  10.631  15.168  0.00  0.00    +0.000 C 
ATOM     19  C   UNL     1      -3.381   9.607  17.451  0.00  0.00    +0.000 C 
ATOM     20  O   UNL     1      -2.292   9.678  18.362  0.00  0.00    +0.000 OA
ENDBRANCH   6  14
TORSDOF 1
ENDMDL
MODEL 4
REMARK VINA RESULT:      -6.2      7.103     10.261
REMARK  Name = 
REMARK  5 active torsions:
REMARK  status: ('A' for Active; 'I' for Inactive)
REMARK    1  A    between atoms: C_1  and  C_2
REMARK    2  A    between atoms: C_6  and  C_7
REMARK    3  A    between atoms: C_6  and  C_8
REMARK    4  A    between atoms: C_10  and  C_11
REMARK    5  A    between atoms: C_10  and  C_12
REMARK                            x       y       z     vdW  Elec       q    Type
REMARK                         _______ _______ _______ _____ _____    ______ ____
ROOT
ATOM      1  C   UNL     1       1.319   9.086  17.870  0.00  0.00    +0.000 C 
ATOM      2  C   UNL     1       0.636  10.234  18.561  0.00  0.00    +0.000 C 
ATOM      3  C   UNL     1       1.324  10.967  19.446  0.00  0.00    +0.000 C 
ATOM      4  C   UNL     1       0.733  12.105  20.173  0.00  0.00    +0.000 C 
ATOM      5  O   UNL     1       1.452  12.694  20.984  0.00  0.00    +0.000 OA
ATOM      6  C   UNL     1      -0.707  12.517  19.896  0.00  0.00    +0.000 C 
ATOM      7  C   UNL     1      -0.627  13.938  19.293  0.00  0.00    +0.000 C 
ATOM      8  C   UNL     1      -1.438  11.608  18.898  0.00  0.00    +0.000 A 
ATOM      9  C   UNL     1      -2.796  11.867  18.602  0.00  0.00    +0.000 A 
ATOM     10  C   UNL     1      -3.495  11.086  17.685  0.00  0.00    +0.000 A 
ATOM     11  C   UNL     1      -2.851  10.033  17.054  0.00  0.00    +0.000 A 
ATOM     12  C   UNL     1      -1.512   9.758  17.343  0.00  0.00    +0.000 A 
ATOM     13  C   UNL     1      -0.783  10.534  18.263  0.00  0.00    +0.000 A 
ENDROOT
BRANCH   6  14
ATOM     14  C   UNL     1      -1.443  12.529  21.223  0.00  0.00    +0.000 C 
ATOM     15  N   UNL     1      -2.218  13.476  21.654  0.00  0.00    +0.000 NA
ATOM     16  C   UNL     1      -2.690  13.000  22.966  0.00  0.00    +0.000 C 
ATOM     17  C   UNL     1      -2.272  14.007  24.036  0.00  0.00    +0.000 C 
ATOM     18  C   UNL     1      -4.212  12.878  22.904  0.00  0.00    +0.000 C 
ATOM     19  C   UNL     1      -2.014  11.648  23.172  0.00  0.00    +0.000 C 
ATOM     20  O   UNL     1      -1.279  11.417  21.978  0.00  0.00    +0.000 OA
ENDBRANCH   6  14
TORSDOF 1
ENDMDL
MODEL 5
REMARK VINA RESULT:      -6.1      0.850      1.171
REMARK  Name = 
REMARK  5 active torsions:
REMARK  status: ('A' for Active; 'I' for Inactive)
REMARK    1  A    between atoms: C_1  and  C_2
REMARK    2  A    between atoms: C_6  and  C_7
REMARK    3  A    between atoms: C_6  and  C_8
REMARK    4  A    between atoms: C_10  and  C_11
REMARK    5  A    between atoms: C_10  and  C_12
REMARK                            x       y       z     vdW  Elec       q    Type
REMARK                         _______ _______ _______ _____ _____    ______ ____
ROOT
ATOM      1  C   UNL     1       1.937   3.002  22.058  0.00  0.00    +0.000 C 
ATOM      2  C   UNL     1       2.272   3.390  20.643  0.00  0.00    +0.000 C 
ATOM      3  C   UNL     1       2.669   2.443  19.782  0.00  0.00    +0.000 C 
ATOM      4  C   UNL     1       3.022   2.735  18.381  0.00  0.00    +0.000 C 
ATOM      5  O   UNL     1       3.400   1.790  17.684  0.00  0.00    +0.000 OA
ATOM      6  C   UNL     1       2.900   4.156  17.848  0.00  0.00    +0.000 C 
ATOM      7  C   UNL     1       1.811   4.100  16.754  0.00  0.00    +0.000 C 
ATOM      8  C   UNL     1       2.475   5.187  18.903  0.00  0.00    +0.000 A 
ATOM      9  C   UNL     1       2.376   6.548  18.532  0.00  0.00    +0.000 A 
ATOM     10  C   UNL     1       1.970   7.517  19.445  0.00  0.00    +0.000 A 
ATOM     11  C   UNL     1       1.661   7.143  20.744  0.00  0.00    +0.000 A 
ATOM     12  C   UNL     1       1.763   5.804  21.129  0.00  0.00    +0.000 A 
ATOM     13  C   UNL     1       2.168   4.806  20.225  0.00  0.00    +0.000 A 
ENDROOT
BRANCH   6  14
ATOM     14  C   UNL     1       4.245   4.541  17.259  0.00  0.00    +0.000 C 
ATOM     15  N   UNL     1       5.252   3.743  17.076  0.00  0.00    +0.000 NA
ATOM     16  C   UNL     1       6.292   4.592  16.470  0.00  0.00    +0.000 C 
ATOM     17  C   UNL     1       7.526   4.577  17.369  0.00  0.00    +0.000 C 
ATOM     18  C   UNL     1       6.621   4.022  15.090  0.00  0.00    +0.000 C 
ATOM     19  C   UNL     1       5.676   5.985  16.383  0.00  0.00    +0.000 C 
ATOM     20  O   UNL     1       4.348   5.833  16.866  0.00  0.00    +0.000 OA
ENDBRANCH   6  14
TORSDOF 1
ENDMDL
MODEL 6
REMARK VINA RESULT:      -6.1      5.876      8.692
REMARK  Name = 
REMARK  5 active torsions:
REMARK  status: ('A' for Active; 'I' for Inactive)
REMARK    1  A    between atoms: C_1  and  C_2
REMARK    2  A    between atoms: C_6  and  C_7
REMARK    3  A    between atoms: C_6  and  C_8
REMARK    4  A    between atoms: C_10  and  C_11
REMARK    5  A    between atoms: C_10  and  C_12
REMARK                            x       y       z     vdW  Elec       q    Type
REMARK                         _______ _______ _______ _____ _____    ______ ____
ROOT
ATOM      1  C   UNL     1       0.345   9.263  23.249  0.00  0.00    +0.000 C 
ATOM      2  C   UNL     1       0.141   9.950  21.927  0.00  0.00    +0.000 C 
ATOM      3  C   UNL     1      -0.619  11.052  21.874  0.00  0.00    +0.000 C 
ATOM      4  C   UNL     1      -0.877  11.786  20.622  0.00  0.00    +0.000 C 
ATOM      5  O   UNL     1      -1.613  12.774  20.685  0.00  0.00    +0.000 OA
ATOM      6  C   UNL     1      -0.231  11.320  19.323  0.00  0.00    +0.000 C 
ATOM      7  C   UNL     1       0.715  12.462  18.893  0.00  0.00    +0.000 C 
ATOM      8  C   UNL     1       0.593  10.033  19.459  0.00  0.00    +0.000 A 
ATOM      9  C   UNL     1       1.199   9.480  18.307  0.00  0.00    +0.000 A 
ATOM     10  C   UNL     1       1.977   8.328  18.384  0.00  0.00    +0.000 A 
ATOM     11  C   UNL     1       2.159   7.707  19.610  0.00  0.00    +0.000 A 
ATOM     12  C   UNL     1       1.559   8.235  20.756  0.00  0.00    +0.000 A 
ATOM     13  C   UNL     1       0.771   9.399  20.706  0.00  0.00    +0.000 A 
ENDROOT
BRANCH   6  14
ATOM     14  C   UNL     1      -1.341  11.121  18.307  0.00  0.00    +0.000 C 
ATOM     15  N   UNL     1      -2.130  10.094  18.234  0.00  0.00    +0.000 NA
ATOM     16  C   UNL     1      -3.026  10.394  17.103  0.00  0.00    +0.000 C 
ATOM     17  C   UNL     1      -2.880   9.294  16.053  0.00  0.00    +0.000 C 
ATOM     18  C   UNL     1      -4.457  10.447  17.636  0.00  0.00    +0.000 C 
ATOM     19  C   UNL     1      -2.563  11.746  16.569  0.00  0.00    +0.000 C 
ATOM     20  O   UNL     1      -1.513  12.148  17.440  0.00  0.00    +0.000 OA
ENDBRANCH   6  14
TORSDOF 1
ENDMDL
MODEL 7
REMARK VINA RESULT:      -6.1      1.851      2.965
REMARK  Name = 
REMARK  5 active torsions:
REMARK  status: ('A' for Active; 'I' for Inactive)
REMARK    1  A    between atoms: C_1  and  C_2
REMARK    2  A    between atoms: C_6  and  C_7
REMARK    3  A    between atoms: C_6  and  C_8
REMARK    4  A    between atoms: C_10  and  C_11
REMARK    5  A    between atoms: C_10  and  C_12
REMARK                            x       y       z     vdW  Elec       q    Type
REMARK                         _______ _______ _______ _____ _____    ______ ____
ROOT
ATOM      1  C   UNL     1       0.594   7.786  21.894  0.00  0.00    +0.000 C 
ATOM      2  C   UNL     1       1.416   7.118  20.826  0.00  0.00    +0.000 C 
ATOM      3  C   UNL     1       1.815   5.852  21.005  0.00  0.00    +0.000 C 
ATOM      4  C   UNL     1       2.626   5.122  20.014  0.00  0.00    +0.000 C 
ATOM      5  O   UNL     1       2.959   3.967  20.295  0.00  0.00    +0.000 OA
ATOM      6  C   UNL     1       3.008   5.795  18.702  0.00  0.00    +0.000 C 
ATOM      7  C   UNL     1       2.312   4.974  17.594  0.00  0.00    +0.000 C 
ATOM      8  C   UNL     1       2.544   7.254  18.588  0.00  0.00    +0.000 A 
ATOM      9  C   UNL     1       2.885   7.993  17.432  0.00  0.00    +0.000 A 
ATOM     10  C   UNL     1       2.467   9.312  17.271  0.00  0.00    +0.000 A 
ATOM     11  C   UNL     1       1.708   9.913  18.262  0.00  0.00    +0.000 A 
ATOM     12  C   UNL     1       1.371   9.199  19.415  0.00  0.00    +0.000 A 
ATOM     13  C   UNL     1       1.779   7.865  19.601  0.00  0.00    +0.000 A 
ENDROOT
BRANCH   6  14
ATOM     14  C   UNL     1       4.518   5.717  18.570  0.00  0.00    +0.000 C 
ATOM     15  N   UNL     1       5.192   5.836  17.467  0.00  0.00    +0.000 NA
ATOM     16  C   UNL     1       6.600   5.703  17.878  0.00  0.00    +0.000 C 
ATOM     17  C   UNL     1       7.219   4.517  17.140  0.00  0.00    +0.000 C 
ATOM     18  C   UNL     1       7.321   7.001  17.518  0.00  0.00    +0.000 C 
ATOM     19  C   UNL     1       6.561   5.468  19.385  0.00  0.00    +0.000 C 
ATOM     20  O   UNL     1       5.186   5.546  19.736  0.00  0.00    +0.000 OA
ENDBRANCH   6  14
TORSDOF 1
ENDMDL
MODEL 8
REMARK VINA RESULT:      -6.1      2.122      4.133
REMARK  Name = 
REMARK  5 active torsions:
REMARK  status: ('A' for Active; 'I' for Inactive)
REMARK    1  A    between atoms: C_1  and  C_2
REMARK    2  A    between atoms: C_6  and  C_7
REMARK    3  A    between atoms: C_6  and  C_8
REMARK    4  A    between atoms: C_10  and  C_11
REMARK    5  A    between atoms: C_10  and  C_12
REMARK                            x       y       z     vdW  Elec       q    Type
REMARK                         _______ _______ _______ _____ _____    ______ ____
ROOT
ATOM      1  C   UNL     1       1.952   7.979  18.178  0.00  0.00    +0.000 C 
ATOM      2  C   UNL     1       3.074   7.041  17.822  0.00  0.00    +0.000 C 
ATOM      3  C   UNL     1       4.269   7.548  17.494  0.00  0.00    +0.000 C 
ATOM      4  C   UNL     1       5.421   6.704  17.126  0.00  0.00    +0.000 C 
ATOM      5  O   UNL     1       6.468   7.279  16.817  0.00  0.00    +0.000 OA
ATOM      6  C   UNL     1       5.289   5.187  17.152  0.00  0.00    +0.000 C 
ATOM      7  C   UNL     1       6.265   4.701  18.246  0.00  0.00    +0.000 C 
ATOM      8  C   UNL     1       3.881   4.686  17.502  0.00  0.00    +0.000 A 
ATOM      9  C   UNL     1       3.629   3.295  17.509  0.00  0.00    +0.000 A 
ATOM     10  C   UNL     1       2.376   2.790  17.844  0.00  0.00    +0.000 A 
ATOM     11  C   UNL     1       1.353   3.667  18.173  0.00  0.00    +0.000 A 
ATOM     12  C   UNL     1       1.583   5.045  18.162  0.00  0.00    +0.000 A 
ATOM     13  C   UNL     1       2.841   5.579  17.830  0.00  0.00    +0.000 A 
ENDROOT
BRANCH   6  14
ATOM     14  C   UNL     1       5.700   4.669  15.787  0.00  0.00    +0.000 C 
ATOM     15  N   UNL     1       5.512   5.275  14.655  0.00  0.00    +0.000 NA
ATOM     16  C   UNL     1       6.100   4.373  13.649  0.00  0.00    +0.000 C 
ATOM     17  C   UNL     1       5.015   3.972  12.652  0.00  0.00    +0.000 C 
ATOM     18  C   UNL     1       7.231   5.123  12.946  0.00  0.00    +0.000 C 
ATOM     19  C   UNL     1       6.613   3.170  14.436  0.00  0.00    +0.000 C 
ATOM     20  O   UNL     1       6.354   3.482  15.798  0.00  0.00    +0.000 OA
ENDBRANCH   6  14
TORSDOF 1
ENDMDL
MODEL 9
REMARK VINA RESULT:      -6.0      5.773      8.152
REMARK  Name = 
REMARK  5 active torsions:
REMARK  status: ('A' for Active; 'I' for Inactive)
REMARK    1  A    between atoms: C_1  and  C_2
REMARK    2  A    between atoms: C_6  and  C_7
REMARK    3  A    between atoms: C_6  and  C_8
REMARK    4  A    between atoms: C_10  and  C_11
REMARK    5  A    between atoms: C_10  and  C_12
REMARK                            x       y       z     vdW  Elec       q    Type
REMARK                         _______ _______ _______ _____ _____    ______ ____
ROOT
ATOM      1  C   UNL     1       1.479   7.271  21.065  0.00  0.00    +0.000 C 
ATOM      2  C   UNL     1       1.154   8.610  20.459  0.00  0.00    +0.000 C 
ATOM      3  C   UNL     1       1.617   8.904  19.237  0.00  0.00    +0.000 C 
ATOM      4  C   UNL     1       1.353  10.192  18.571  0.00  0.00    +0.000 C 
ATOM      5  O   UNL     1       1.850  10.365  17.455  0.00  0.00    +0.000 OA
ATOM      6  C   UNL     1       0.485  11.238  19.259  0.00  0.00    +0.000 C 
ATOM      7  C   UNL     1      -0.765  11.398  18.364  0.00  0.00    +0.000 C 
ATOM      8  C   UNL     1       0.024  10.841  20.668  0.00  0.00    +0.000 A 
ATOM      9  C   UNL     1      -0.747  11.757  21.421  0.00  0.00    +0.000 A 
ATOM     10  C   UNL     1      -1.210  11.434  22.694  0.00  0.00    +0.000 A 
ATOM     11  C   UNL     1      -0.906  10.195  23.237  0.00  0.00    +0.000 A 
ATOM     12  C   UNL     1      -0.136   9.284  22.510  0.00  0.00    +0.000 A 
ATOM     13  C   UNL     1       0.341   9.584  21.221  0.00  0.00    +0.000 A 
ENDROOT
BRANCH   6  14
ATOM     14  C   UNL     1       1.282  12.528  19.316  0.00  0.00    +0.000 C 
ATOM     15  N   UNL     1       1.147  13.542  18.518  0.00  0.00    +0.000 NA
ATOM     16  C   UNL     1       2.128  14.528  19.003  0.00  0.00    +0.000 C 
ATOM     17  C   UNL     1       3.107  14.846  17.874  0.00  0.00    +0.000 C 
ATOM     18  C   UNL     1       1.366  15.783  19.427  0.00  0.00    +0.000 C 
ATOM     19  C   UNL     1       2.827  13.857  20.181  0.00  0.00    +0.000 C 
ATOM     20  O   UNL     1       2.178  12.602  20.330  0.00  0.00    +0.000 OA
ENDBRANCH   6  14
TORSDOF 1
ENDMDL
