MODEL 1
REMARK VINA RESULT:      -8.0      0.000      0.000
REMARK  Name = 
REMARK  3 active torsions:
REMARK  status: ('A' for Active; 'I' for Inactive)
REMARK    1  A    between atoms: C_1  and  O_2
REMARK    2  A    between atoms: O_2  and  C_3
REMARK    3  A    between atoms: N_15  and  C_16
REMARK                            x       y       z     vdW  Elec       q    Type
REMARK                         _______ _______ _______ _____ _____    ______ ____
ROOT
ATOM      1  C   UNL     1      -2.918  10.792  16.373  0.00  0.00    +0.000 A 
ATOM      2  C   UNL     1      -1.922   9.831  16.459  0.00  0.00    +0.000 A 
ATOM      3  C   UNL     1      -1.196   9.684  17.651  0.00  0.00    +0.000 A 
ATOM      4  C   UNL     1      -1.441  10.483  18.793  0.00  0.00    +0.000 A 
ATOM      5  C   UNL     1      -2.464  11.438  18.691  0.00  0.00    +0.000 A 
ATOM      6  C   UNL     1      -3.182  11.586  17.489  0.00  0.00    +0.000 A 
ATOM      7  S   UNL     1      -2.996  12.490  20.029  0.00  0.00    +0.000 S 
ATOM      8  C   UNL     1      -1.731  12.241  21.284  0.00  0.00    +0.000 C 
ATOM      9  C   UNL     1      -0.794  11.097  21.144  0.00  0.00    +0.000 A 
ATOM     10  C   UNL     1       0.069  10.810  22.189  0.00  0.00    +0.000 A 
ATOM     11  N   UNL     1       0.998   9.839  22.172  0.00  0.00    +0.000 NA
ATOM     12  C   UNL     1       1.050   9.096  21.068  0.00  0.00    +0.000 A 
ATOM     13  N   UNL     1       2.011   8.089  21.036  0.00  0.00    +0.000 N 
ATOM     14  N   UNL     1       0.259   9.304  20.000  0.00  0.00    +0.000 NA
ATOM     15  C   UNL     1      -0.651  10.304  20.027  0.00  0.00    +0.000 A 
ATOM     16  H   UNL     1       2.585   8.112  21.866  0.00  0.00    +0.000 HD
ENDROOT
BRANCH  13  17
ATOM     17  C   UNL     1       2.006   6.900  20.297  0.00  0.00    +0.000 A 
ATOM     18  C   UNL     1       2.501   6.901  18.985  0.00  0.00    +0.000 A 
ATOM     19  C   UNL     1       2.418   5.755  18.185  0.00  0.00    +0.000 A 
ATOM     20  C   UNL     1       1.850   4.590  18.696  0.00  0.00    +0.000 A 
ATOM     21  C   UNL     1       1.381   4.579  20.001  0.00  0.00    +0.000 A 
ATOM     22  F   UNL     1       0.846   3.458  20.502  0.00  0.00    +0.000 F 
ATOM     23  C   UNL     1       1.451   5.716  20.795  0.00  0.00    +0.000 A 
ENDBRANCH  13  17
BRANCH   1  25
ATOM     24  C   UNL     1      -3.576  10.188  14.169  0.00  0.00    +0.000 C 
ATOM     25  O   UNL     1      -3.707  11.054  15.289  0.00  0.00    +0.000 OA
ENDBRANCH   1  25
TORSDOF 2
ENDMDL
MODEL 2
REMARK VINA RESULT:      -7.8      0.954      1.367
REMARK  Name = 
REMARK  3 active torsions:
REMARK  status: ('A' for Active; 'I' for Inactive)
REMARK    1  A    between atoms: C_1  and  O_2
REMARK    2  A    between atoms: O_2  and  C_3
REMARK    3  A    between atoms: N_15  and  C_16
REMARK                            x       y       z     vdW  Elec       q    Type
REMARK                         _______ _______ _______ _____ _____    ______ ____
ROOT
ATOM      1  C   UNL     1      -2.976  10.791  16.334  0.00  0.00    +0.000 A 
ATOM      2  C   UNL     1      -1.969   9.843  16.431  0.00  0.00    +0.000 A 
ATOM      3  C   UNL     1      -1.246   9.713  17.627  0.00  0.00    +0.000 A 
ATOM      4  C   UNL     1      -1.506  10.517  18.763  0.00  0.00    +0.000 A 
ATOM      5  C   UNL     1      -2.540  11.459  18.649  0.00  0.00    +0.000 A 
ATOM      6  C   UNL     1      -3.254  11.589  17.443  0.00  0.00    +0.000 A 
ATOM      7  S   UNL     1      -3.091  12.514  19.977  0.00  0.00    +0.000 S 
ATOM      8  C   UNL     1      -1.829  12.289  21.240  0.00  0.00    +0.000 C 
ATOM      9  C   UNL     1      -0.878  11.155  21.112  0.00  0.00    +0.000 A 
ATOM     10  C   UNL     1      -0.016  10.886  22.164  0.00  0.00    +0.000 A 
ATOM     11  N   UNL     1       0.925   9.927  22.158  0.00  0.00    +0.000 NA
ATOM     12  C   UNL     1       0.991   9.177  21.059  0.00  0.00    +0.000 A 
ATOM     13  N   UNL     1       1.964   8.181  21.039  0.00  0.00    +0.000 N 
ATOM     14  N   UNL     1       0.203   9.367  19.986  0.00  0.00    +0.000 NA
ATOM     15  C   UNL     1      -0.720  10.357  20.001  0.00  0.00    +0.000 A 
ATOM     16  H   UNL     1       2.534   8.217  21.871  0.00  0.00    +0.000 HD
ENDROOT
BRANCH  13  17
ATOM     17  C   UNL     1       1.977   6.987  20.308  0.00  0.00    +0.000 A 
ATOM     18  C   UNL     1       1.402   5.834  20.860  0.00  0.00    +0.000 A 
ATOM     19  C   UNL     1       1.487   4.602  20.200  0.00  0.00    +0.000 A 
ATOM     20  C   UNL     1       2.138   4.515  18.972  0.00  0.00    +0.000 A 
ATOM     21  C   UNL     1       2.687   5.658  18.411  0.00  0.00    +0.000 A 
ATOM     22  F   UNL     1       3.303   5.584  17.225  0.00  0.00    +0.000 F 
ATOM     23  C   UNL     1       2.616   6.881  19.067  0.00  0.00    +0.000 A 
ENDBRANCH  13  17
BRANCH   1  25
ATOM     24  C   UNL     1      -3.611  10.167  14.129  0.00  0.00    +0.000 C 
ATOM     25  O   UNL     1      -3.762  11.035  15.244  0.00  0.00    +0.000 OA
ENDBRANCH   1  25
TORSDOF 2
ENDMDL
MODEL 3
REMARK VINA RESULT:      -7.0      7.937      9.753
REMARK  Name = 
REMARK  3 active torsions:
REMARK  status: ('A' for Active; 'I' for Inactive)
REMARK    1  A    between atoms: C_1  and  O_2
REMARK    2  A    between atoms: O_2  and  C_3
REMARK    3  A    between atoms: N_15  and  C_16
REMARK                            x       y       z     vdW  Elec       q    Type
REMARK                         _______ _______ _______ _____ _____    ______ ____
ROOT
ATOM      1  C   UNL     1       2.100   3.015  18.580  0.00  0.00    +0.000 A 
ATOM      2  C   UNL     1       2.249   2.879  17.208  0.00  0.00    +0.000 A 
ATOM      3  C   UNL     1       3.388   3.400  16.575  0.00  0.00    +0.000 A 
ATOM      4  C   UNL     1       4.415   4.066  17.287  0.00  0.00    +0.000 A 
ATOM      5  C   UNL     1       4.252   4.178  18.677  0.00  0.00    +0.000 A 
ATOM      6  C   UNL     1       3.102   3.661  19.302  0.00  0.00    +0.000 A 
ATOM      7  S   UNL     1       5.456   4.902  19.775  0.00  0.00    +0.000 S 
ATOM      8  C   UNL     1       6.631   5.678  18.655  0.00  0.00    +0.000 C 
ATOM      9  C   UNL     1       6.589   5.326  17.212  0.00  0.00    +0.000 A 
ATOM     10  C   UNL     1       7.594   5.797  16.381  0.00  0.00    +0.000 A 
ATOM     11  N   UNL     1       7.648   5.596  15.054  0.00  0.00    +0.000 NA
ATOM     12  C   UNL     1       6.666   4.864  14.531  0.00  0.00    +0.000 A 
ATOM     13  N   UNL     1       6.709   4.651  13.156  0.00  0.00    +0.000 N 
ATOM     14  N   UNL     1       5.646   4.371  15.255  0.00  0.00    +0.000 NA
ATOM     15  C   UNL     1       5.594   4.608  16.586  0.00  0.00    +0.000 A 
ATOM     16  H   UNL     1       7.478   5.153  12.737  0.00  0.00    +0.000 HD
ENDROOT
BRANCH  13  17
ATOM     17  C   UNL     1       6.158   3.597  12.417  0.00  0.00    +0.000 A 
ATOM     18  C   UNL     1       6.982   2.541  12.002  0.00  0.00    +0.000 A 
ATOM     19  C   UNL     1       6.485   1.524  11.178  0.00  0.00    +0.000 A 
ATOM     20  C   UNL     1       5.153   1.547  10.771  0.00  0.00    +0.000 A 
ATOM     21  C   UNL     1       4.330   2.577  11.199  0.00  0.00    +0.000 A 
ATOM     22  F   UNL     1       3.045   2.598  10.822  0.00  0.00    +0.000 F 
ATOM     23  C   UNL     1       4.820   3.595  12.007  0.00  0.00    +0.000 A 
ENDBRANCH  13  17
BRANCH   1  25
ATOM     24  C   UNL     1       1.049   2.918  20.711  0.00  0.00    +0.000 C 
ATOM     25  O   UNL     1       1.054   2.563  19.334  0.00  0.00    +0.000 OA
ENDBRANCH   1  25
TORSDOF 2
ENDMDL
MODEL 4
REMARK VINA RESULT:      -6.8      7.989      9.795
REMARK  Name = 
REMARK  3 active torsions:
REMARK  status: ('A' for Active; 'I' for Inactive)
REMARK    1  A    between atoms: C_1  and  O_2
REMARK    2  A    between atoms: O_2  and  C_3
REMARK    3  A    between atoms: N_15  and  C_16
REMARK                            x       y       z     vdW  Elec       q    Type
REMARK                         _______ _______ _______ _____ _____    ______ ____
ROOT
ATOM      1  C   UNL     1       2.064   3.093  18.548  0.00  0.00    +0.000 A 
ATOM      2  C   UNL     1       2.180   3.006  17.169  0.00  0.00    +0.000 A 
ATOM      3  C   UNL     1       3.330   3.497  16.533  0.00  0.00    +0.000 A 
ATOM      4  C   UNL     1       4.402   4.084  17.248  0.00  0.00    +0.000 A 
ATOM      5  C   UNL     1       4.273   4.147  18.643  0.00  0.00    +0.000 A 
ATOM      6  C   UNL     1       3.111   3.660  19.273  0.00  0.00    +0.000 A 
ATOM      7  S   UNL     1       5.532   4.766  19.743  0.00  0.00    +0.000 S 
ATOM      8  C   UNL     1       6.721   5.530  18.629  0.00  0.00    +0.000 C 
ATOM      9  C   UNL     1       6.633   5.240  17.175  0.00  0.00    +0.000 A 
ATOM     10  C   UNL     1       7.643   5.695  16.341  0.00  0.00    +0.000 A 
ATOM     11  N   UNL     1       7.661   5.546  15.006  0.00  0.00    +0.000 NA
ATOM     12  C   UNL     1       6.634   4.884  14.476  0.00  0.00    +0.000 A 
ATOM     13  N   UNL     1       6.639   4.725  13.093  0.00  0.00    +0.000 N 
ATOM     14  N   UNL     1       5.605   4.412  15.202  0.00  0.00    +0.000 NA
ATOM     15  C   UNL     1       5.592   4.596  16.543  0.00  0.00    +0.000 A 
ATOM     16  H   UNL     1       7.423   5.206  12.678  0.00  0.00    +0.000 HD
ENDROOT
BRANCH  13  17
ATOM     17  C   UNL     1       6.022   3.729  12.325  0.00  0.00    +0.000 A 
ATOM     18  C   UNL     1       4.691   3.897  11.919  0.00  0.00    +0.000 A 
ATOM     19  C   UNL     1       4.014   2.878  11.237  0.00  0.00    +0.000 A 
ATOM     20  C   UNL     1       4.669   1.684  10.944  0.00  0.00    +0.000 A 
ATOM     21  C   UNL     1       5.993   1.525  11.323  0.00  0.00    +0.000 A 
ATOM     22  F   UNL     1       6.633   0.385  11.032  0.00  0.00    +0.000 F 
ATOM     23  C   UNL     1       6.666   2.528  12.009  0.00  0.00    +0.000 A 
ENDBRANCH  13  17
BRANCH   1  25
ATOM     24  C   UNL     1       1.059   2.949  20.698  0.00  0.00    +0.000 C 
ATOM     25  O   UNL     1       1.014   2.662  19.307  0.00  0.00    +0.000 OA
ENDBRANCH   1  25
TORSDOF 2
ENDMDL
MODEL 5
REMARK VINA RESULT:      -6.8      1.341      1.762
REMARK  Name = 
REMARK  3 active torsions:
REMARK  status: ('A' for Active; 'I' for Inactive)
REMARK    1  A    between atoms: C_1  and  O_2
REMARK    2  A    between atoms: O_2  and  C_3
REMARK    3  A    between atoms: N_15  and  C_16
REMARK                            x       y       z     vdW  Elec       q    Type
REMARK                         _______ _______ _______ _____ _____    ______ ____
ROOT
ATOM      1  C   UNL     1      -3.742  10.238  15.297  0.00  0.00    +0.000 A 
ATOM      2  C   UNL     1      -2.523   9.650  15.599  0.00  0.00    +0.000 A 
ATOM      3  C   UNL     1      -1.919   9.893  16.842  0.00  0.00    +0.000 A 
ATOM      4  C   UNL     1      -2.511  10.724  17.824  0.00  0.00    +0.000 A 
ATOM      5  C   UNL     1      -3.752  11.296  17.506  0.00  0.00    +0.000 A 
ATOM      6  C   UNL     1      -4.346  11.054  16.253  0.00  0.00    +0.000 A 
ATOM      7  S   UNL     1      -4.712  12.303  18.622  0.00  0.00    +0.000 S 
ATOM      8  C   UNL     1      -3.573  12.624  19.978  0.00  0.00    +0.000 C 
ATOM      9  C   UNL     1      -2.332  11.815  20.083  0.00  0.00    +0.000 A 
ATOM     10  C   UNL     1      -1.541  11.949  21.213  0.00  0.00    +0.000 A 
ATOM     11  N   UNL     1      -0.372  11.318  21.410  0.00  0.00    +0.000 NA
ATOM     12  C   UNL     1       0.016  10.486  20.444  0.00  0.00    +0.000 A 
ATOM     13  N   UNL     1       1.228   9.828  20.635  0.00  0.00    +0.000 N 
ATOM     14  N   UNL     1      -0.680  10.296  19.310  0.00  0.00    +0.000 NA
ATOM     15  C   UNL     1      -1.842  10.963  19.118  0.00  0.00    +0.000 A 
ATOM     16  H   UNL     1       1.676  10.137  21.485  0.00  0.00    +0.000 HD
ENDROOT
BRANCH  13  17
ATOM     17  C   UNL     1       1.653   8.607  20.097  0.00  0.00    +0.000 A 
ATOM     18  C   UNL     1       2.044   8.545  18.752  0.00  0.00    +0.000 A 
ATOM     19  C   UNL     1       2.377   7.322  18.157  0.00  0.00    +0.000 A 
ATOM     20  C   UNL     1       2.337   6.149  18.908  0.00  0.00    +0.000 A 
ATOM     21  C   UNL     1       1.974   6.211  20.244  0.00  0.00    +0.000 A 
ATOM     22  F   UNL     1       1.946   5.089  20.975  0.00  0.00    +0.000 F 
ATOM     23  C   UNL     1       1.631   7.419  20.837  0.00  0.00    +0.000 A 
ENDBRANCH  13  17
BRANCH   1  25
ATOM     24  C   UNL     1      -3.711   9.793  12.962  0.00  0.00    +0.000 C 
ATOM     25  O   UNL     1      -4.450  10.097  14.138  0.00  0.00    +0.000 OA
ENDBRANCH   1  25
TORSDOF 2
ENDMDL
MODEL 6
REMARK VINA RESULT:      -6.7      3.612      4.896
REMARK  Name = 
REMARK  3 active torsions:
REMARK  status: ('A' for Active; 'I' for Inactive)
REMARK    1  A    between atoms: C_1  and  O_2
REMARK    2  A    between atoms: O_2  and  C_3
REMARK    3  A    between atoms: N_15  and  C_16
REMARK                            x       y       z     vdW  Elec       q    Type
REMARK                         _______ _______ _______ _____ _____    ______ ____
ROOT
ATOM      1  C   UNL     1      -0.707  10.185  22.518  0.00  0.00    +0.000 A 
ATOM      2  C   UNL     1      -0.542   8.816  22.368  0.00  0.00    +0.000 A 
ATOM      3  C   UNL     1       0.237   8.318  21.312  0.00  0.00    +0.000 A 
ATOM      4  C   UNL     1       0.879   9.166  20.377  0.00  0.00    +0.000 A 
ATOM      5  C   UNL     1       0.714  10.547  20.556  0.00  0.00    +0.000 A 
ATOM      6  C   UNL     1      -0.077  11.038  21.613  0.00  0.00    +0.000 A 
ATOM      7  S   UNL     1       1.498  11.793  19.550  0.00  0.00    +0.000 S 
ATOM      8  C   UNL     1       2.185  10.852  18.180  0.00  0.00    +0.000 C 
ATOM      9  C   UNL     1       2.272   9.373  18.295  0.00  0.00    +0.000 A 
ATOM     10  C   UNL     1       2.949   8.666  17.313  0.00  0.00    +0.000 A 
ATOM     11  N   UNL     1       3.058   7.328  17.269  0.00  0.00    +0.000 NA
ATOM     12  C   UNL     1       2.488   6.660  18.271  0.00  0.00    +0.000 A 
ATOM     13  N   UNL     1       2.591   5.272  18.236  0.00  0.00    +0.000 N 
ATOM     14  N   UNL     1       1.806   7.257  19.263  0.00  0.00    +0.000 NA
ATOM     15  C   UNL     1       1.684   8.605  19.275  0.00  0.00    +0.000 A 
ATOM     16  H   UNL     1       3.051   4.966  17.391  0.00  0.00    +0.000 HD
ENDROOT
BRANCH  13  17
ATOM     17  C   UNL     1       2.546   4.365  19.302  0.00  0.00    +0.000 A 
ATOM     18  C   UNL     1       1.414   4.326  20.126  0.00  0.00    +0.000 A 
ATOM     19  C   UNL     1       1.378   3.503  21.259  0.00  0.00    +0.000 A 
ATOM     20  C   UNL     1       2.472   2.700  21.569  0.00  0.00    +0.000 A 
ATOM     21  C   UNL     1       3.585   2.718  20.742  0.00  0.00    +0.000 A 
ATOM     22  F   UNL     1       4.635   1.938  21.027  0.00  0.00    +0.000 F 
ATOM     23  C   UNL     1       3.630   3.541  19.624  0.00  0.00    +0.000 A 
ENDBRANCH  13  17
BRANCH   1  25
ATOM     24  C   UNL     1      -2.167  11.968  23.101  0.00  0.00    +0.000 C 
ATOM     25  O   UNL     1      -1.429  10.817  23.489  0.00  0.00    +0.000 OA
ENDBRANCH   1  25
TORSDOF 2
ENDMDL
MODEL 7
REMARK VINA RESULT:      -6.7      4.896      7.685
REMARK  Name = 
REMARK  3 active torsions:
REMARK  status: ('A' for Active; 'I' for Inactive)
REMARK    1  A    between atoms: C_1  and  O_2
REMARK    2  A    between atoms: O_2  and  C_3
REMARK    3  A    between atoms: N_15  and  C_16
REMARK                            x       y       z     vdW  Elec       q    Type
REMARK                         _______ _______ _______ _____ _____    ______ ____
ROOT
ATOM      1  C   UNL     1       5.675   5.719  15.798  0.00  0.00    +0.000 A 
ATOM      2  C   UNL     1       4.966   6.907  15.900  0.00  0.00    +0.000 A 
ATOM      3  C   UNL     1       4.079   7.100  16.970  0.00  0.00    +0.000 A 
ATOM      4  C   UNL     1       3.873   6.122  17.972  0.00  0.00    +0.000 A 
ATOM      5  C   UNL     1       4.612   4.935  17.860  0.00  0.00    +0.000 A 
ATOM      6  C   UNL     1       5.493   4.745  16.779  0.00  0.00    +0.000 A 
ATOM      7  S   UNL     1       4.571   3.608  19.051  0.00  0.00    +0.000 S 
ATOM      8  C   UNL     1       3.189   4.046  20.117  0.00  0.00    +0.000 C 
ATOM      9  C   UNL     1       2.629   5.419  20.041  0.00  0.00    +0.000 A 
ATOM     10  C   UNL     1       1.677   5.804  20.973  0.00  0.00    +0.000 A 
ATOM     11  N   UNL     1       1.056   6.995  20.986  0.00  0.00    +0.000 NA
ATOM     12  C   UNL     1       1.421   7.859  20.041  0.00  0.00    +0.000 A 
ATOM     13  N   UNL     1       0.782   9.095  20.042  0.00  0.00    +0.000 N 
ATOM     14  N   UNL     1       2.330   7.574  19.091  0.00  0.00    +0.000 NA
ATOM     15  C   UNL     1       2.925   6.358  19.078  0.00  0.00    +0.000 A 
ATOM     16  H   UNL     1       0.067   9.131  20.754  0.00  0.00    +0.000 HD
ENDROOT
BRANCH  13  17
ATOM     17  C   UNL     1       1.244  10.319  19.541  0.00  0.00    +0.000 A 
ATOM     18  C   UNL     1       1.856  10.361  18.281  0.00  0.00    +0.000 A 
ATOM     19  C   UNL     1       2.419  11.547  17.795  0.00  0.00    +0.000 A 
ATOM     20  C   UNL     1       2.361  12.709  18.562  0.00  0.00    +0.000 A 
ATOM     21  C   UNL     1       1.735  12.676  19.798  0.00  0.00    +0.000 A 
ATOM     22  F   UNL     1       1.665  13.793  20.534  0.00  0.00    +0.000 F 
ATOM     23  C   UNL     1       1.186  11.499  20.290  0.00  0.00    +0.000 A 
ENDBRANCH  13  17
BRANCH   1  25
ATOM     24  C   UNL     1       6.346   4.165  14.129  0.00  0.00    +0.000 C 
ATOM     25  O   UNL     1       6.570   5.386  14.822  0.00  0.00    +0.000 OA
ENDBRANCH   1  25
TORSDOF 2
ENDMDL
MODEL 8
REMARK VINA RESULT:      -6.5      3.530      4.873
REMARK  Name = 
REMARK  3 active torsions:
REMARK  status: ('A' for Active; 'I' for Inactive)
REMARK    1  A    between atoms: C_1  and  O_2
REMARK    2  A    between atoms: O_2  and  C_3
REMARK    3  A    between atoms: N_15  and  C_16
REMARK                            x       y       z     vdW  Elec       q    Type
REMARK                         _______ _______ _______ _____ _____    ______ ____
ROOT
ATOM      1  C   UNL     1      -0.568  10.057  22.560  0.00  0.00    +0.000 A 
ATOM      2  C   UNL     1      -0.337   8.696  22.435  0.00  0.00    +0.000 A 
ATOM      3  C   UNL     1       0.420   8.213  21.357  0.00  0.00    +0.000 A 
ATOM      4  C   UNL     1       0.974   9.068  20.373  0.00  0.00    +0.000 A 
ATOM      5  C   UNL     1       0.742  10.444  20.528  0.00  0.00    +0.000 A 
ATOM      6  C   UNL     1      -0.026  10.919  21.607  0.00  0.00    +0.000 A 
ATOM      7  S   UNL     1       1.413  11.703  19.458  0.00  0.00    +0.000 S 
ATOM      8  C   UNL     1       2.089  10.763  18.080  0.00  0.00    +0.000 C 
ATOM      9  C   UNL     1       2.260   9.295  18.226  0.00  0.00    +0.000 A 
ATOM     10  C   UNL     1       2.930   8.600  17.231  0.00  0.00    +0.000 A 
ATOM     11  N   UNL     1       3.109   7.269  17.213  0.00  0.00    +0.000 NA
ATOM     12  C   UNL     1       2.621   6.597  18.256  0.00  0.00    +0.000 A 
ATOM     13  N   UNL     1       2.797   5.216  18.248  0.00  0.00    +0.000 N 
ATOM     14  N   UNL     1       1.952   7.183  19.264  0.00  0.00    +0.000 NA
ATOM     15  C   UNL     1       1.758   8.523  19.249  0.00  0.00    +0.000 A 
ATOM     16  H   UNL     1       3.235   4.913  17.391  0.00  0.00    +0.000 HD
ENDROOT
BRANCH  13  17
ATOM     17  C   UNL     1       2.848   4.336  19.336  0.00  0.00    +0.000 A 
ATOM     18  C   UNL     1       4.027   3.622  19.590  0.00  0.00    +0.000 A 
ATOM     19  C   UNL     1       4.079   2.660  20.607  0.00  0.00    +0.000 A 
ATOM     20  C   UNL     1       2.953   2.414  21.390  0.00  0.00    +0.000 A 
ATOM     21  C   UNL     1       1.793   3.136  21.156  0.00  0.00    +0.000 A 
ATOM     22  F   UNL     1       0.711   2.914  21.913  0.00  0.00    +0.000 F 
ATOM     23  C   UNL     1       1.732   4.083  20.141  0.00  0.00    +0.000 A 
ENDBRANCH  13  17
BRANCH   1  25
ATOM     24  C   UNL     1      -2.049  11.811  23.178  0.00  0.00    +0.000 C 
ATOM     25  O   UNL     1      -1.280  10.675  23.548  0.00  0.00    +0.000 OA
ENDBRANCH   1  25
TORSDOF 2
ENDMDL
MODEL 9
REMARK VINA RESULT:      -6.4      4.705      7.961
REMARK  Name = 
REMARK  3 active torsions:
REMARK  status: ('A' for Active; 'I' for Inactive)
REMARK    1  A    between atoms: C_1  and  O_2
REMARK    2  A    between atoms: O_2  and  C_3
REMARK    3  A    between atoms: N_15  and  C_16
REMARK                            x       y       z     vdW  Elec       q    Type
REMARK                         _______ _______ _______ _____ _____    ______ ____
ROOT
ATOM      1  C   UNL     1       0.117  10.211  18.953  0.00  0.00    +0.000 A 
ATOM      2  C   UNL     1      -0.560  10.869  19.969  0.00  0.00    +0.000 A 
ATOM      3  C   UNL     1      -1.864  11.339  19.749  0.00  0.00    +0.000 A 
ATOM      4  C   UNL     1      -2.536  11.164  18.515  0.00  0.00    +0.000 A 
ATOM      5  C   UNL     1      -1.841  10.481  17.506  0.00  0.00    +0.000 A 
ATOM      6  C   UNL     1      -0.530  10.022  17.732  0.00  0.00    +0.000 A 
ATOM      7  S   UNL     1      -2.525  10.078  15.909  0.00  0.00    +0.000 S 
ATOM      8  C   UNL     1      -4.057  11.019  15.861  0.00  0.00    +0.000 C 
ATOM      9  C   UNL     1      -4.583  11.602  17.122  0.00  0.00    +0.000 A 
ATOM     10  C   UNL     1      -5.841  12.184  17.115  0.00  0.00    +0.000 A 
ATOM     11  N   UNL     1      -6.411  12.791  18.169  0.00  0.00    +0.000 NA
ATOM     12  C   UNL     1      -5.704  12.794  19.298  0.00  0.00    +0.000 A 
ATOM     13  N   UNL     1      -6.283  13.422  20.397  0.00  0.00    +0.000 N 
ATOM     14  N   UNL     1      -4.474  12.261  19.400  0.00  0.00    +0.000 NA
ATOM     15  C   UNL     1      -3.905  11.679  18.319  0.00  0.00    +0.000 A 
ATOM     16  H   UNL     1      -7.163  13.849  20.146  0.00  0.00    +0.000 HD
ENDROOT
BRANCH  13  17
ATOM     17  C   UNL     1      -6.052  13.190  21.758  0.00  0.00    +0.000 A 
ATOM     18  C   UNL     1      -7.066  12.622  22.542  0.00  0.00    +0.000 A 
ATOM     19  C   UNL     1      -6.904  12.470  23.925  0.00  0.00    +0.000 A 
ATOM     20  C   UNL     1      -5.718  12.872  24.535  0.00  0.00    +0.000 A 
ATOM     21  C   UNL     1      -4.704  13.412  23.758  0.00  0.00    +0.000 A 
ATOM     22  F   UNL     1      -3.557  13.788  24.336  0.00  0.00    +0.000 F 
ATOM     23  C   UNL     1      -4.864  13.576  22.388  0.00  0.00    +0.000 A 
ENDBRANCH  13  17
BRANCH   1  25
ATOM     24  C   UNL     1       1.824   8.935  17.901  0.00  0.00    +0.000 C 
ATOM     25  O   UNL     1       1.381   9.699  19.014  0.00  0.00    +0.000 OA
ENDBRANCH   1  25
TORSDOF 2
ENDMDL
