MODEL 1
REMARK VINA RESULT:      -7.7      0.000      0.000
REMARK  Name = 
REMARK  5 active torsions:
REMARK  status: ('A' for Active; 'I' for Inactive)
REMARK    1  A    between atoms: C_1  and  O_2
REMARK    2  A    between atoms: O_2  and  C_3
REMARK    3  A    between atoms: C_6  and  C_7
REMARK    4  A    between atoms: C_9  and  C_10
REMARK    5  A    between atoms: C_21  and  C_22
REMARK                            x       y       z     vdW  Elec       q    Type
REMARK                         _______ _______ _______ _____ _____    ______ ____
ROOT
ATOM      1  C   UNL     1       6.480   5.149  18.242  0.00  0.00    +0.000 C 
ATOM      2  C   UNL     1       6.994   6.537  18.613  0.00  0.00    +0.000 C 
ATOM      3  C   UNL     1       7.628   7.302  17.705  0.00  0.00    +0.000 C 
ATOM      4  N   UNL     1       7.824   6.871  16.414  0.00  0.00    +0.000 N 
ATOM      5  C   UNL     1       7.317   5.712  15.955  0.00  0.00    +0.000 A 
ATOM      6  N   UNL     1       7.296   5.206  14.754  0.00  0.00    +0.000 NA
ATOM      7  C   UNL     1       6.615   4.034  14.914  0.00  0.00    +0.000 A 
ATOM      8  N   UNL     1       6.301   3.205  13.879  0.00  0.00    +0.000 N 
ATOM      9  C   UNL     1       6.299   3.454  12.547  0.00  0.00    +0.000 C 
ATOM     10  C   UNL     1       6.604   4.812  11.962  0.00  0.00    +0.000 C 
ATOM     11  O   UNL     1       5.988   2.529  11.780  0.00  0.00    +0.000 OA
ATOM     12  N   UNL     1       6.287   3.735  16.177  0.00  0.00    +0.000 NA
ATOM     13  N   UNL     1       6.665   4.867  16.811  0.00  0.00    +0.000 N 
ATOM     14  H   UNL     1       8.311   7.494  15.779  0.00  0.00    +0.000 HD
ATOM     15  H   UNL     1       5.968   2.295  14.157  0.00  0.00    +0.000 HD
ENDROOT
BRANCH   1  19
ATOM     16  C   UNL     1       2.331   4.604  19.374  0.00  0.00    +0.000 A 
ATOM     17  C   UNL     1       3.281   3.642  19.719  0.00  0.00    +0.000 A 
ATOM     18  C   UNL     1       4.623   3.821  19.382  0.00  0.00    +0.000 A 
ATOM     19  C   UNL     1       5.034   4.958  18.665  0.00  0.00    +0.000 A 
ATOM     20  C   UNL     1       4.069   5.917  18.318  0.00  0.00    +0.000 A 
ATOM     21  C   UNL     1       2.728   5.740  18.670  0.00  0.00    +0.000 A 
BRANCH  16  23
ATOM     22  C   UNL     1       0.882   3.115  20.482  0.00  0.00    +0.000 C 
ATOM     23  O   UNL     1       1.044   4.319  19.740  0.00  0.00    +0.000 OA
ENDBRANCH  16  23
ENDBRANCH   1  19
BRANCH   3  24
ATOM     24  C   UNL     1       8.123   8.635  18.059  0.00  0.00    +0.000 A 
ATOM     25  C   UNL     1       7.748   9.752  17.302  0.00  0.00    +0.000 A 
ATOM     26  C   UNL     1       8.224  11.020  17.640  0.00  0.00    +0.000 A 
ATOM     27  C   UNL     1       9.065  11.181  18.738  0.00  0.00    +0.000 A 
ATOM     28  C   UNL     1       9.443  10.074  19.497  0.00  0.00    +0.000 A 
ATOM     29  C   UNL     1       8.974   8.803  19.159  0.00  0.00    +0.000 A 
ENDBRANCH   3  24
TORSDOF 3
ENDMDL
MODEL 2
REMARK VINA RESULT:      -7.4      8.274     10.655
REMARK  Name = 
REMARK  5 active torsions:
REMARK  status: ('A' for Active; 'I' for Inactive)
REMARK    1  A    between atoms: C_1  and  O_2
REMARK    2  A    between atoms: O_2  and  C_3
REMARK    3  A    between atoms: C_6  and  C_7
REMARK    4  A    between atoms: C_9  and  C_10
REMARK    5  A    between atoms: C_21  and  C_22
REMARK                            x       y       z     vdW  Elec       q    Type
REMARK                         _______ _______ _______ _____ _____    ______ ____
ROOT
ATOM      1  C   UNL     1      -1.039  11.816  19.306  0.00  0.00    +0.000 C 
ATOM      2  C   UNL     1      -0.337  10.461  19.279  0.00  0.00    +0.000 C 
ATOM      3  C   UNL     1       0.949  10.359  18.897  0.00  0.00    +0.000 C 
ATOM      4  N   UNL     1       1.680  11.465  18.533  0.00  0.00    +0.000 N 
ATOM      5  C   UNL     1       1.192  12.716  18.624  0.00  0.00    +0.000 A 
ATOM      6  N   UNL     1       1.765  13.872  18.443  0.00  0.00    +0.000 NA
ATOM      7  C   UNL     1       0.772  14.767  18.714  0.00  0.00    +0.000 A 
ATOM      8  N   UNL     1       0.960  16.116  18.711  0.00  0.00    +0.000 N 
ATOM      9  C   UNL     1       2.116  16.824  18.752  0.00  0.00    +0.000 C 
ATOM     10  C   UNL     1       3.474  16.178  18.884  0.00  0.00    +0.000 C 
ATOM     11  O   UNL     1       2.043  18.063  18.724  0.00  0.00    +0.000 OA
ATOM     12  N   UNL     1      -0.427  14.227  18.967  0.00  0.00    +0.000 NA
ATOM     13  N   UNL     1      -0.111  12.913  18.995  0.00  0.00    +0.000 N 
ATOM     14  H   UNL     1       2.644  11.321  18.253  0.00  0.00    +0.000 HD
ATOM     15  H   UNL     1       0.111  16.659  18.742  0.00  0.00    +0.000 HD
ENDROOT
BRANCH   1  19
ATOM     16  C   UNL     1      -3.139  12.433  23.047  0.00  0.00    +0.000 A 
ATOM     17  C   UNL     1      -1.879  11.836  23.045  0.00  0.00    +0.000 A 
ATOM     18  C   UNL     1      -1.183  11.657  21.848  0.00  0.00    +0.000 A 
ATOM     19  C   UNL     1      -1.754  12.048  20.625  0.00  0.00    +0.000 A 
ATOM     20  C   UNL     1      -3.026  12.643  20.638  0.00  0.00    +0.000 A 
ATOM     21  C   UNL     1      -3.712  12.834  21.841  0.00  0.00    +0.000 A 
BRANCH  16  23
ATOM     22  C   UNL     1      -5.144  12.754  24.239  0.00  0.00    +0.000 C 
ATOM     23  O   UNL     1      -3.736  12.544  24.273  0.00  0.00    +0.000 OA
ENDBRANCH  16  23
ENDBRANCH   1  19
BRANCH   3  24
ATOM     24  C   UNL     1       1.625   9.059  18.870  0.00  0.00    +0.000 A 
ATOM     25  C   UNL     1       1.567   8.209  19.981  0.00  0.00    +0.000 A 
ATOM     26  C   UNL     1       2.214   6.972  19.953  0.00  0.00    +0.000 A 
ATOM     27  C   UNL     1       2.911   6.574  18.815  0.00  0.00    +0.000 A 
ATOM     28  C   UNL     1       2.973   7.414  17.704  0.00  0.00    +0.000 A 
ATOM     29  C   UNL     1       2.333   8.655  17.730  0.00  0.00    +0.000 A 
ENDBRANCH   3  24
TORSDOF 3
ENDMDL
MODEL 3
REMARK VINA RESULT:      -7.3      2.606      7.192
REMARK  Name = 
REMARK  5 active torsions:
REMARK  status: ('A' for Active; 'I' for Inactive)
REMARK    1  A    between atoms: C_1  and  O_2
REMARK    2  A    between atoms: O_2  and  C_3
REMARK    3  A    between atoms: C_6  and  C_7
REMARK    4  A    between atoms: C_9  and  C_10
REMARK    5  A    between atoms: C_21  and  C_22
REMARK                            x       y       z     vdW  Elec       q    Type
REMARK                         _______ _______ _______ _____ _____    ______ ____
ROOT
ATOM      1  C   UNL     1       7.115   4.806  17.331  0.00  0.00    +0.000 C 
ATOM      2  C   UNL     1       7.083   4.621  15.817  0.00  0.00    +0.000 C 
ATOM      3  C   UNL     1       6.034   4.026  15.218  0.00  0.00    +0.000 C 
ATOM      4  N   UNL     1       4.954   3.577  15.941  0.00  0.00    +0.000 N 
ATOM      5  C   UNL     1       4.833   3.787  17.265  0.00  0.00    +0.000 A 
ATOM      6  N   UNL     1       3.846   3.548  18.081  0.00  0.00    +0.000 NA
ATOM      7  C   UNL     1       4.304   4.009  19.280  0.00  0.00    +0.000 A 
ATOM      8  N   UNL     1       3.551   4.015  20.416  0.00  0.00    +0.000 N 
ATOM      9  C   UNL     1       2.209   3.883  20.559  0.00  0.00    +0.000 C 
ATOM     10  C   UNL     1       1.262   3.765  19.389  0.00  0.00    +0.000 C 
ATOM     11  O   UNL     1       1.740   3.905  21.708  0.00  0.00    +0.000 OA
ATOM     12  N   UNL     1       5.570   4.442  19.276  0.00  0.00    +0.000 NA
ATOM     13  N   UNL     1       5.856   4.378  17.957  0.00  0.00    +0.000 N 
ATOM     14  H   UNL     1       4.197   3.136  15.431  0.00  0.00    +0.000 HD
ATOM     15  H   UNL     1       4.067   4.204  21.260  0.00  0.00    +0.000 HD
ENDROOT
BRANCH   1  19
ATOM     16  C   UNL     1       8.200   8.862  18.408  0.00  0.00    +0.000 A 
ATOM     17  C   UNL     1       7.412   8.626  17.282  0.00  0.00    +0.000 A 
ATOM     18  C   UNL     1       7.035   7.326  16.942  0.00  0.00    +0.000 A 
ATOM     19  C   UNL     1       7.468   6.233  17.712  0.00  0.00    +0.000 A 
ATOM     20  C   UNL     1       8.267   6.481  18.840  0.00  0.00    +0.000 A 
ATOM     21  C   UNL     1       8.629   7.786  19.184  0.00  0.00    +0.000 A 
BRANCH  16  23
ATOM     22  C   UNL     1       9.528  10.379  19.625  0.00  0.00    +0.000 C 
ATOM     23  O   UNL     1       8.523  10.171  18.638  0.00  0.00    +0.000 OA
ENDBRANCH  16  23
ENDBRANCH   1  19
BRANCH   3  24
ATOM     24  C   UNL     1       6.001   3.845  13.764  0.00  0.00    +0.000 A 
ATOM     25  C   UNL     1       7.134   4.130  12.991  0.00  0.00    +0.000 A 
ATOM     26  C   UNL     1       7.098   3.960  11.606  0.00  0.00    +0.000 A 
ATOM     27  C   UNL     1       5.939   3.497  10.988  0.00  0.00    +0.000 A 
ATOM     28  C   UNL     1       4.807   3.210  11.751  0.00  0.00    +0.000 A 
ATOM     29  C   UNL     1       4.837   3.385  13.136  0.00  0.00    +0.000 A 
ENDBRANCH   3  24
TORSDOF 3
ENDMDL
MODEL 4
REMARK VINA RESULT:      -7.3      8.502     10.924
REMARK  Name = 
REMARK  5 active torsions:
REMARK  status: ('A' for Active; 'I' for Inactive)
REMARK    1  A    between atoms: C_1  and  O_2
REMARK    2  A    between atoms: O_2  and  C_3
REMARK    3  A    between atoms: C_6  and  C_7
REMARK    4  A    between atoms: C_9  and  C_10
REMARK    5  A    between atoms: C_21  and  C_22
REMARK                            x       y       z     vdW  Elec       q    Type
REMARK                         _______ _______ _______ _____ _____    ______ ____
ROOT
ATOM      1  C   UNL     1      -1.228  12.118  18.960  0.00  0.00    +0.000 C 
ATOM      2  C   UNL     1      -0.566  10.744  19.022  0.00  0.00    +0.000 C 
ATOM      3  C   UNL     1       0.769  10.618  18.910  0.00  0.00    +0.000 C 
ATOM      4  N   UNL     1       1.583  11.715  18.751  0.00  0.00    +0.000 N 
ATOM      5  C   UNL     1       1.113  12.975  18.791  0.00  0.00    +0.000 A 
ATOM      6  N   UNL     1       1.736  14.119  18.781  0.00  0.00    +0.000 NA
ATOM      7  C   UNL     1       0.728  15.033  18.879  0.00  0.00    +0.000 A 
ATOM      8  N   UNL     1       0.941  16.375  18.971  0.00  0.00    +0.000 N 
ATOM      9  C   UNL     1       2.079  17.047  19.278  0.00  0.00    +0.000 C 
ATOM     10  C   UNL     1       3.366  16.357  19.661  0.00  0.00    +0.000 C 
ATOM     11  O   UNL     1       2.040  18.287  19.287  0.00  0.00    +0.000 OA
ATOM     12  N   UNL     1      -0.508  14.519  18.856  0.00  0.00    +0.000 NA
ATOM     13  N   UNL     1      -0.234  13.196  18.894  0.00  0.00    +0.000 N 
ATOM     14  H   UNL     1       2.581  11.552  18.670  0.00  0.00    +0.000 HD
ATOM     15  H   UNL     1       0.116  16.941  18.848  0.00  0.00    +0.000 HD
ENDROOT
BRANCH   1  19
ATOM     16  C   UNL     1      -4.033  12.640  22.224  0.00  0.00    +0.000 A 
ATOM     17  C   UNL     1      -2.685  12.403  22.493  0.00  0.00    +0.000 A 
ATOM     18  C   UNL     1      -1.770  12.259  21.449  0.00  0.00    +0.000 A 
ATOM     19  C   UNL     1      -2.197  12.322  20.112  0.00  0.00    +0.000 A 
ATOM     20  C   UNL     1      -3.557  12.555  19.852  0.00  0.00    +0.000 A 
ATOM     21  C   UNL     1      -4.467  12.713  20.901  0.00  0.00    +0.000 A 
BRANCH  16  23
ATOM     22  C   UNL     1      -4.207  12.485  24.567  0.00  0.00    +0.000 C 
ATOM     23  O   UNL     1      -4.843  12.748  23.321  0.00  0.00    +0.000 OA
ENDBRANCH  16  23
ENDBRANCH   1  19
BRANCH   3  24
ATOM     24  C   UNL     1       1.408   9.300  18.968  0.00  0.00    +0.000 A 
ATOM     25  C   UNL     1       2.057   8.779  17.842  0.00  0.00    +0.000 A 
ATOM     26  C   UNL     1       2.662   7.523  17.899  0.00  0.00    +0.000 A 
ATOM     27  C   UNL     1       2.632   6.786  19.081  0.00  0.00    +0.000 A 
ATOM     28  C   UNL     1       1.989   7.298  20.207  0.00  0.00    +0.000 A 
ATOM     29  C   UNL     1       1.377   8.552  20.152  0.00  0.00    +0.000 A 
ENDBRANCH   3  24
TORSDOF 3
ENDMDL
MODEL 5
REMARK VINA RESULT:      -7.3      8.475     10.861
REMARK  Name = 
REMARK  5 active torsions:
REMARK  status: ('A' for Active; 'I' for Inactive)
REMARK    1  A    between atoms: C_1  and  O_2
REMARK    2  A    between atoms: O_2  and  C_3
REMARK    3  A    between atoms: C_6  and  C_7
REMARK    4  A    between atoms: C_9  and  C_10
REMARK    5  A    between atoms: C_21  and  C_22
REMARK                            x       y       z     vdW  Elec       q    Type
REMARK                         _______ _______ _______ _____ _____    ______ ____
ROOT
ATOM      1  C   UNL     1      -1.189  11.975  19.292  0.00  0.00    +0.000 C 
ATOM      2  C   UNL     1      -0.481  10.623  19.262  0.00  0.00    +0.000 C 
ATOM      3  C   UNL     1       0.817  10.534  18.914  0.00  0.00    +0.000 C 
ATOM      4  N   UNL     1       1.552  11.649  18.589  0.00  0.00    +0.000 N 
ATOM      5  C   UNL     1       1.055  12.896  18.689  0.00  0.00    +0.000 A 
ATOM      6  N   UNL     1       1.628  14.057  18.543  0.00  0.00    +0.000 NA
ATOM      7  C   UNL     1       0.623  14.943  18.802  0.00  0.00    +0.000 A 
ATOM      8  N   UNL     1       0.805  16.293  18.828  0.00  0.00    +0.000 N 
ATOM      9  C   UNL     1       1.955  17.005  18.912  0.00  0.00    +0.000 C 
ATOM     10  C   UNL     1       3.313  16.363  19.071  0.00  0.00    +0.000 C 
ATOM     11  O   UNL     1       1.877  18.244  18.904  0.00  0.00    +0.000 OA
ATOM     12  N   UNL     1      -0.579  14.393  19.012  0.00  0.00    +0.000 NA
ATOM     13  N   UNL     1      -0.258  13.080  19.027  0.00  0.00    +0.000 N 
ATOM     14  H   UNL     1       2.524  11.514  18.334  0.00  0.00    +0.000 HD
ATOM     15  H   UNL     1      -0.047  16.831  18.844  0.00  0.00    +0.000 HD
ENDROOT
BRANCH   1  19
ATOM     16  C   UNL     1      -3.284  12.615  23.032  0.00  0.00    +0.000 A 
ATOM     17  C   UNL     1      -3.923  12.879  21.821  0.00  0.00    +0.000 A 
ATOM     18  C   UNL     1      -3.266  12.650  20.611  0.00  0.00    +0.000 A 
ATOM     19  C   UNL     1      -1.942  12.181  20.595  0.00  0.00    +0.000 A 
ATOM     20  C   UNL     1      -1.306  11.924  21.820  0.00  0.00    +0.000 A 
ATOM     21  C   UNL     1      -1.973  12.141  23.029  0.00  0.00    +0.000 A 
BRANCH  16  23
ATOM     22  C   UNL     1      -5.421  12.978  23.952  0.00  0.00    +0.000 C 
ATOM     23  O   UNL     1      -4.015  12.890  24.156  0.00  0.00    +0.000 OA
ENDBRANCH  16  23
ENDBRANCH   1  19
BRANCH   3  24
ATOM     24  C   UNL     1       1.500   9.237  18.883  0.00  0.00    +0.000 A 
ATOM     25  C   UNL     1       2.190   8.829  17.735  0.00  0.00    +0.000 A 
ATOM     26  C   UNL     1       2.837   7.593  17.707  0.00  0.00    +0.000 A 
ATOM     27  C   UNL     1       2.807   6.763  18.826  0.00  0.00    +0.000 A 
ATOM     28  C   UNL     1       2.123   7.162  19.974  0.00  0.00    +0.000 A 
ATOM     29  C   UNL     1       1.469   8.396  20.003  0.00  0.00    +0.000 A 
ENDBRANCH   3  24
TORSDOF 3
ENDMDL
MODEL 6
REMARK VINA RESULT:      -7.3      7.649     10.442
REMARK  Name = 
REMARK  5 active torsions:
REMARK  status: ('A' for Active; 'I' for Inactive)
REMARK    1  A    between atoms: C_1  and  O_2
REMARK    2  A    between atoms: O_2  and  C_3
REMARK    3  A    between atoms: C_6  and  C_7
REMARK    4  A    between atoms: C_9  and  C_10
REMARK    5  A    between atoms: C_21  and  C_22
REMARK                            x       y       z     vdW  Elec       q    Type
REMARK                         _______ _______ _______ _____ _____    ______ ____
ROOT
ATOM      1  C   UNL     1       0.186  10.826  20.039  0.00  0.00    +0.000 C 
ATOM      2  C   UNL     1      -1.251  10.793  19.528  0.00  0.00    +0.000 C 
ATOM      3  C   UNL     1      -1.798  11.874  18.941  0.00  0.00    +0.000 C 
ATOM      4  N   UNL     1      -1.084  13.036  18.770  0.00  0.00    +0.000 N 
ATOM      5  C   UNL     1       0.220  13.136  19.086  0.00  0.00    +0.000 A 
ATOM      6  N   UNL     1       1.076  14.098  18.887  0.00  0.00    +0.000 NA
ATOM      7  C   UNL     1       2.241  13.600  19.393  0.00  0.00    +0.000 A 
ATOM      8  N   UNL     1       3.428  14.264  19.330  0.00  0.00    +0.000 N 
ATOM      9  C   UNL     1       3.784  15.319  18.556  0.00  0.00    +0.000 C 
ATOM     10  C   UNL     1       2.871  15.924  17.517  0.00  0.00    +0.000 C 
ATOM     11  O   UNL     1       4.932  15.774  18.681  0.00  0.00    +0.000 OA
ATOM     12  N   UNL     1       2.136  12.404  19.987  0.00  0.00    +0.000 NA
ATOM     13  N   UNL     1       0.855  12.088  19.695  0.00  0.00    +0.000 N 
ATOM     14  H   UNL     1      -1.554  13.815  18.323  0.00  0.00    +0.000 HD
ATOM     15  H   UNL     1       4.160  13.872  19.902  0.00  0.00    +0.000 HD
ENDROOT
BRANCH   1  19
ATOM     16  C   UNL     1       2.508   7.445  18.636  0.00  0.00    +0.000 A 
ATOM     17  C   UNL     1       2.085   7.498  19.964  0.00  0.00    +0.000 A 
ATOM     18  C   UNL     1       1.315   8.569  20.418  0.00  0.00    +0.000 A 
ATOM     19  C   UNL     1       0.979   9.624  19.554  0.00  0.00    +0.000 A 
ATOM     20  C   UNL     1       1.414   9.564  18.220  0.00  0.00    +0.000 A 
ATOM     21  C   UNL     1       2.173   8.482  17.766  0.00  0.00    +0.000 A 
BRANCH  16  23
ATOM     22  C   UNL     1       3.696   5.562  19.403  0.00  0.00    +0.000 C 
ATOM     23  O   UNL     1       3.270   6.358  18.303  0.00  0.00    +0.000 OA
ENDBRANCH  16  23
ENDBRANCH   1  19
BRANCH   3  24
ATOM     24  C   UNL     1      -3.179  11.845  18.449  0.00  0.00    +0.000 A 
ATOM     25  C   UNL     1      -3.457  11.402  17.151  0.00  0.00    +0.000 A 
ATOM     26  C   UNL     1      -4.772  11.379  16.684  0.00  0.00    +0.000 A 
ATOM     27  C   UNL     1      -5.815  11.787  17.513  0.00  0.00    +0.000 A 
ATOM     28  C   UNL     1      -5.546  12.229  18.807  0.00  0.00    +0.000 A 
ATOM     29  C   UNL     1      -4.231  12.260  19.276  0.00  0.00    +0.000 A 
ENDBRANCH   3  24
TORSDOF 3
ENDMDL
MODEL 7
REMARK VINA RESULT:      -7.3      7.701     10.603
REMARK  Name = 
REMARK  5 active torsions:
REMARK  status: ('A' for Active; 'I' for Inactive)
REMARK    1  A    between atoms: C_1  and  O_2
REMARK    2  A    between atoms: O_2  and  C_3
REMARK    3  A    between atoms: C_6  and  C_7
REMARK    4  A    between atoms: C_9  and  C_10
REMARK    5  A    between atoms: C_21  and  C_22
REMARK                            x       y       z     vdW  Elec       q    Type
REMARK                         _______ _______ _______ _____ _____    ______ ____
ROOT
ATOM      1  C   UNL     1       0.203  10.831  20.062  0.00  0.00    +0.000 C 
ATOM      2  C   UNL     1      -1.230  10.779  19.543  0.00  0.00    +0.000 C 
ATOM      3  C   UNL     1      -1.805  11.869  19.000  0.00  0.00    +0.000 C 
ATOM      4  N   UNL     1      -1.123  13.057  18.881  0.00  0.00    +0.000 N 
ATOM      5  C   UNL     1       0.176  13.179  19.207  0.00  0.00    +0.000 A 
ATOM      6  N   UNL     1       1.006  14.173  19.053  0.00  0.00    +0.000 NA
ATOM      7  C   UNL     1       2.182  13.686  19.543  0.00  0.00    +0.000 A 
ATOM      8  N   UNL     1       3.351  14.385  19.514  0.00  0.00    +0.000 N 
ATOM      9  C   UNL     1       3.680  15.481  18.786  0.00  0.00    +0.000 C 
ATOM     10  C   UNL     1       2.754  16.104  17.770  0.00  0.00    +0.000 C 
ATOM     11  O   UNL     1       4.814  15.961  18.936  0.00  0.00    +0.000 OA
ATOM     12  N   UNL     1       2.109  12.464  20.086  0.00  0.00    +0.000 NA
ATOM     13  N   UNL     1       0.838  12.124  19.775  0.00  0.00    +0.000 N 
ATOM     14  H   UNL     1      -1.614  13.841  18.465  0.00  0.00    +0.000 HD
ATOM     15  H   UNL     1       4.091  13.989  20.072  0.00  0.00    +0.000 HD
ENDROOT
BRANCH   1  19
ATOM     16  C   UNL     1       2.506   7.479  18.560  0.00  0.00    +0.000 A 
ATOM     17  C   UNL     1       2.214   8.556  17.723  0.00  0.00    +0.000 A 
ATOM     18  C   UNL     1       1.496   9.652  18.205  0.00  0.00    +0.000 A 
ATOM     19  C   UNL     1       1.031   9.673  19.531  0.00  0.00    +0.000 A 
ATOM     20  C   UNL     1       1.325   8.581  20.363  0.00  0.00    +0.000 A 
ATOM     21  C   UNL     1       2.057   7.493  19.879  0.00  0.00    +0.000 A 
BRANCH  16  23
ATOM     22  C   UNL     1       4.387   6.842  17.295  0.00  0.00    +0.000 C 
ATOM     23  O   UNL     1       3.200   6.453  17.979  0.00  0.00    +0.000 OA
ENDBRANCH  16  23
ENDBRANCH   1  19
BRANCH   3  24
ATOM     24  C   UNL     1      -3.183  11.823  18.500  0.00  0.00    +0.000 A 
ATOM     25  C   UNL     1      -4.244  12.235  19.316  0.00  0.00    +0.000 A 
ATOM     26  C   UNL     1      -5.555  12.188  18.839  0.00  0.00    +0.000 A 
ATOM     27  C   UNL     1      -5.812  11.740  17.545  0.00  0.00    +0.000 A 
ATOM     28  C   UNL     1      -4.761  11.328  16.727  0.00  0.00    +0.000 A 
ATOM     29  C   UNL     1      -3.449  11.368  17.202  0.00  0.00    +0.000 A 
ENDBRANCH   3  24
TORSDOF 3
ENDMDL
MODEL 8
REMARK VINA RESULT:      -7.1      2.610      7.129
REMARK  Name = 
REMARK  5 active torsions:
REMARK  status: ('A' for Active; 'I' for Inactive)
REMARK    1  A    between atoms: C_1  and  O_2
REMARK    2  A    between atoms: O_2  and  C_3
REMARK    3  A    between atoms: C_6  and  C_7
REMARK    4  A    between atoms: C_9  and  C_10
REMARK    5  A    between atoms: C_21  and  C_22
REMARK                            x       y       z     vdW  Elec       q    Type
REMARK                         _______ _______ _______ _____ _____    ______ ____
ROOT
ATOM      1  C   UNL     1       7.145   4.669  17.347  0.00  0.00    +0.000 C 
ATOM      2  C   UNL     1       7.115   4.521  15.828  0.00  0.00    +0.000 C 
ATOM      3  C   UNL     1       6.040   3.999  15.209  0.00  0.00    +0.000 C 
ATOM      4  N   UNL     1       4.931   3.594  15.914  0.00  0.00    +0.000 N 
ATOM      5  C   UNL     1       4.811   3.780  17.241  0.00  0.00    +0.000 A 
ATOM      6  N   UNL     1       3.806   3.576  18.045  0.00  0.00    +0.000 NA
ATOM      7  C   UNL     1       4.279   3.983  19.258  0.00  0.00    +0.000 A 
ATOM      8  N   UNL     1       3.519   4.004  20.388  0.00  0.00    +0.000 N 
ATOM      9  C   UNL     1       2.171   3.942  20.520  0.00  0.00    +0.000 C 
ATOM     10  C   UNL     1       1.228   3.905  19.341  0.00  0.00    +0.000 C 
ATOM     11  O   UNL     1       1.695   3.964  21.666  0.00  0.00    +0.000 OA
ATOM     12  N   UNL     1       5.568   4.346  19.272  0.00  0.00    +0.000 NA
ATOM     13  N   UNL     1       5.860   4.296  17.953  0.00  0.00    +0.000 N 
ATOM     14  H   UNL     1       4.155   3.207  15.388  0.00  0.00    +0.000 HD
ATOM     15  H   UNL     1       4.038   4.144  21.240  0.00  0.00    +0.000 HD
ENDROOT
BRANCH   1  19
ATOM     16  C   UNL     1       8.294   8.676  18.536  0.00  0.00    +0.000 A 
ATOM     17  C   UNL     1       8.609   7.589  19.351  0.00  0.00    +0.000 A 
ATOM     18  C   UNL     1       8.267   6.292  18.964  0.00  0.00    +0.000 A 
ATOM     19  C   UNL     1       7.574   6.065  17.763  0.00  0.00    +0.000 A 
ATOM     20  C   UNL     1       7.256   7.167  16.953  0.00  0.00    +0.000 A 
ATOM     21  C   UNL     1       7.613   8.462  17.338  0.00  0.00    +0.000 A 
BRANCH  16  23
ATOM     22  C   UNL     1       9.433  10.695  18.123  0.00  0.00    +0.000 C 
ATOM     23  O   UNL     1       8.662   9.902  19.019  0.00  0.00    +0.000 OA
ENDBRANCH  16  23
ENDBRANCH   1  19
BRANCH   3  24
ATOM     24  C   UNL     1       6.008   3.855  13.750  0.00  0.00    +0.000 A 
ATOM     25  C   UNL     1       4.844   3.411  13.109  0.00  0.00    +0.000 A 
ATOM     26  C   UNL     1       4.818   3.272  11.721  0.00  0.00    +0.000 A 
ATOM     27  C   UNL     1       5.946   3.586  10.966  0.00  0.00    +0.000 A 
ATOM     28  C   UNL     1       7.107   4.030  11.596  0.00  0.00    +0.000 A 
ATOM     29  C   UNL     1       7.140   4.164  12.985  0.00  0.00    +0.000 A 
ENDBRANCH   3  24
TORSDOF 3
ENDMDL
MODEL 9
REMARK VINA RESULT:      -7.1      7.832     10.722
REMARK  Name = 
REMARK  5 active torsions:
REMARK  status: ('A' for Active; 'I' for Inactive)
REMARK    1  A    between atoms: C_1  and  O_2
REMARK    2  A    between atoms: O_2  and  C_3
REMARK    3  A    between atoms: C_6  and  C_7
REMARK    4  A    between atoms: C_9  and  C_10
REMARK    5  A    between atoms: C_21  and  C_22
REMARK                            x       y       z     vdW  Elec       q    Type
REMARK                         _______ _______ _______ _____ _____    ______ ____
ROOT
ATOM      1  C   UNL     1      -0.057  10.694  20.310  0.00  0.00    +0.000 C 
ATOM      2  C   UNL     1      -1.455  10.702  19.699  0.00  0.00    +0.000 C 
ATOM      3  C   UNL     1      -1.992  11.841  19.221  0.00  0.00    +0.000 C 
ATOM      4  N   UNL     1      -1.300  13.029  19.253  0.00  0.00    +0.000 N 
ATOM      5  C   UNL     1      -0.024  13.110  19.671  0.00  0.00    +0.000 A 
ATOM      6  N   UNL     1       0.817  14.107  19.659  0.00  0.00    +0.000 NA
ATOM      7  C   UNL     1       1.958  13.568  20.176  0.00  0.00    +0.000 A 
ATOM      8  N   UNL     1       3.128  14.257  20.284  0.00  0.00    +0.000 N 
ATOM      9  C   UNL     1       3.506  15.411  19.680  0.00  0.00    +0.000 C 
ATOM     10  C   UNL     1       2.648  16.130  18.667  0.00  0.00    +0.000 C 
ATOM     11  O   UNL     1       4.630  15.866  19.944  0.00  0.00    +0.000 OA
ATOM     12  N   UNL     1       1.847  12.303  20.601  0.00  0.00    +0.000 NA
ATOM     13  N   UNL     1       0.598  12.003  20.181  0.00  0.00    +0.000 N 
ATOM     14  H   UNL     1      -1.761  13.851  18.879  0.00  0.00    +0.000 HD
ATOM     15  H   UNL     1       3.830  13.806  20.850  0.00  0.00    +0.000 HD
ENDROOT
BRANCH   1  19
ATOM     16  C   UNL     1       2.442   7.574  18.636  0.00  0.00    +0.000 A 
ATOM     17  C   UNL     1       2.070   7.524  19.979  0.00  0.00    +0.000 A 
ATOM     18  C   UNL     1       1.243   8.510  20.521  0.00  0.00    +0.000 A 
ATOM     19  C   UNL     1       0.799   9.583  19.730  0.00  0.00    +0.000 A 
ATOM     20  C   UNL     1       1.185   9.626  18.381  0.00  0.00    +0.000 A 
ATOM     21  C   UNL     1       2.000   8.629  17.839  0.00  0.00    +0.000 A 
BRANCH  16  23
ATOM     22  C   UNL     1       2.634   5.300  18.054  0.00  0.00    +0.000 C 
ATOM     23  O   UNL     1       3.266   6.566  18.215  0.00  0.00    +0.000 OA
ENDBRANCH  16  23
ENDBRANCH   1  19
BRANCH   3  24
ATOM     24  C   UNL     1      -3.335  11.851  18.634  0.00  0.00    +0.000 A 
ATOM     25  C   UNL     1      -4.430  12.297  19.384  0.00  0.00    +0.000 A 
ATOM     26  C   UNL     1      -5.708  12.303  18.824  0.00  0.00    +0.000 A 
ATOM     27  C   UNL     1      -5.898  11.877  17.511  0.00  0.00    +0.000 A 
ATOM     28  C   UNL     1      -4.812  11.433  16.758  0.00  0.00    +0.000 A 
ATOM     29  C   UNL     1      -3.533  11.418  17.317  0.00  0.00    +0.000 A 
ENDBRANCH   3  24
TORSDOF 3
ENDMDL
