MODEL 1
REMARK VINA RESULT:      -7.8      0.000      0.000
REMARK  Name = 
REMARK  4 active torsions:
REMARK  status: ('A' for Active; 'I' for Inactive)
REMARK    1  A    between atoms: C_2  and  C_3
REMARK    2  A    between atoms: C_2  and  C_17
REMARK    3  A    between atoms: C_6  and  O_7
REMARK    4  A    between atoms: O_7  and  C_8
REMARK                            x       y       z     vdW  Elec       q    Type
REMARK                         _______ _______ _______ _____ _____    ______ ____
ROOT
ATOM      1  C   UNL     1       1.345   9.378  19.076  0.00  0.00    +0.000 A 
ATOM      2  C   UNL     1       1.143   8.882  20.369  0.00  0.00    +0.000 A 
ATOM      3  C   UNL     1       1.620   7.611  20.714  0.00  0.00    +0.000 A 
ATOM      4  C   UNL     1       2.302   6.831  19.776  0.00  0.00    +0.000 A 
ATOM      5  C   UNL     1       2.554   7.350  18.504  0.00  0.00    +0.000 A 
ATOM      6  C   UNL     1       2.069   8.610  18.152  0.00  0.00    +0.000 A 
ENDROOT
BRANCH   1   8
ATOM      7  O   UNL     1       1.654  11.605  18.420  0.00  0.00    +0.000 OA
ATOM      8  C   UNL     1       0.832  10.738  18.711  0.00  0.00    +0.000 C 
BRANCH   8   9
ATOM      9  C   UNL     1      -0.613  10.922  18.698  0.00  0.00    +0.000 A 
ATOM     10  N   UNL     1      -1.386  10.424  17.757  0.00  0.00    +0.000 NA
ATOM     11  C   UNL     1      -2.679  10.883  17.917  0.00  0.00    +0.000 A 
ATOM     12  C   UNL     1      -3.761  10.592  17.065  0.00  0.00    +0.000 A 
ATOM     13  C   UNL     1      -5.010  11.166  17.313  0.00  0.00    +0.000 A 
ATOM     14  C   UNL     1      -5.190  12.016  18.399  0.00  0.00    +0.000 A 
ATOM     15  C   UNL     1      -4.133  12.305  19.271  0.00  0.00    +0.000 A 
ATOM     16  C   UNL     1      -2.881  11.725  19.013  0.00  0.00    +0.000 A 
ATOM     17  S   UNL     1      -1.397  11.878  19.881  0.00  0.00    +0.000 S 
ENDBRANCH   8   9
ENDBRANCH   1   8
BRANCH   4  18
ATOM     18  O   UNL     1       2.759   5.606  20.210  0.00  0.00    +0.000 OA
BRANCH  18  19
ATOM     19  C   UNL     1       2.634   4.512  19.360  0.00  0.00    +0.000 A 
ATOM     20  N   UNL     1       1.414   3.932  19.220  0.00  0.00    +0.000 NA
ATOM     21  C   UNL     1       1.320   2.889  18.369  0.00  0.00    +0.000 A 
ATOM     22  C   UNL     1       2.394   2.378  17.662  0.00  0.00    +0.000 A 
ATOM     23  C   UNL     1       3.646   2.958  17.848  0.00  0.00    +0.000 A 
ATOM     24  C   UNL     1       3.776   4.039  18.720  0.00  0.00    +0.000 A 
ATOM     25 BR   UNL     1       5.484   4.813  18.971  0.00  0.00    +0.000 Br
ENDBRANCH  18  19
ENDBRANCH   4  18
TORSDOF 4
ENDMDL
MODEL 2
REMARK VINA RESULT:      -7.7      1.015      1.589
REMARK  Name = 
REMARK  4 active torsions:
REMARK  status: ('A' for Active; 'I' for Inactive)
REMARK    1  A    between atoms: C_2  and  C_3
REMARK    2  A    between atoms: C_2  and  C_17
REMARK    3  A    between atoms: C_6  and  O_7
REMARK    4  A    between atoms: O_7  and  C_8
REMARK                            x       y       z     vdW  Elec       q    Type
REMARK                         _______ _______ _______ _____ _____    ______ ____
ROOT
ATOM      1  C   UNL     1       1.289   9.282  19.554  0.00  0.00    +0.000 A 
ATOM      2  C   UNL     1       1.977   8.792  18.438  0.00  0.00    +0.000 A 
ATOM      3  C   UNL     1       2.620   7.549  18.502  0.00  0.00    +0.000 A 
ATOM      4  C   UNL     1       2.578   6.789  19.674  0.00  0.00    +0.000 A 
ATOM      5  C   UNL     1       1.843   7.251  20.767  0.00  0.00    +0.000 A 
ATOM      6  C   UNL     1       1.212   8.495  20.712  0.00  0.00    +0.000 A 
ENDROOT
BRANCH   1   8
ATOM      7  O   UNL     1       1.169  11.581  19.984  0.00  0.00    +0.000 OA
ATOM      8  C   UNL     1       0.603  10.612  19.480  0.00  0.00    +0.000 C 
BRANCH   8   9
ATOM      9  C   UNL     1      -0.676  10.663  18.785  0.00  0.00    +0.000 A 
ATOM     10  N   UNL     1      -0.897  10.032  17.652  0.00  0.00    +0.000 NA
ATOM     11  C   UNL     1      -2.135  10.382  17.150  0.00  0.00    +0.000 A 
ATOM     12  C   UNL     1      -2.679   9.934  15.932  0.00  0.00    +0.000 A 
ATOM     13  C   UNL     1      -3.925  10.410  15.516  0.00  0.00    +0.000 A 
ATOM     14  C   UNL     1      -4.630  11.315  16.300  0.00  0.00    +0.000 A 
ATOM     15  C   UNL     1      -4.117  11.760  17.525  0.00  0.00    +0.000 A 
ATOM     16  C   UNL     1      -2.863  11.278  17.935  0.00  0.00    +0.000 A 
ATOM     17  S   UNL     1      -1.965  11.627  19.366  0.00  0.00    +0.000 S 
ENDBRANCH   8   9
ENDBRANCH   1   8
BRANCH   4  18
ATOM     18  O   UNL     1       3.216   5.568  19.639  0.00  0.00    +0.000 OA
BRANCH  18  19
ATOM     19  C   UNL     1       2.470   4.437  19.326  0.00  0.00    +0.000 A 
ATOM     20  N   UNL     1       1.443   4.089  20.144  0.00  0.00    +0.000 NA
ATOM     21  C   UNL     1       0.722   3.001  19.800  0.00  0.00    +0.000 A 
ATOM     22  C   UNL     1       0.988   2.226  18.685  0.00  0.00    +0.000 A 
ATOM     23  C   UNL     1       2.070   2.574  17.880  0.00  0.00    +0.000 A 
ATOM     24  C   UNL     1       2.835   3.694  18.207  0.00  0.00    +0.000 A 
ATOM     25 BR   UNL     1       4.307   4.151  17.110  0.00  0.00    +0.000 Br
ENDBRANCH  18  19
ENDBRANCH   4  18
TORSDOF 4
ENDMDL
MODEL 3
REMARK VINA RESULT:      -7.7      0.729      1.302
REMARK  Name = 
REMARK  4 active torsions:
REMARK  status: ('A' for Active; 'I' for Inactive)
REMARK    1  A    between atoms: C_2  and  C_3
REMARK    2  A    between atoms: C_2  and  C_17
REMARK    3  A    between atoms: C_6  and  O_7
REMARK    4  A    between atoms: O_7  and  C_8
REMARK                            x       y       z     vdW  Elec       q    Type
REMARK                         _______ _______ _______ _____ _____    ______ ____
ROOT
ATOM      1  C   UNL     1       1.477   9.513  18.943  0.00  0.00    +0.000 A 
ATOM      2  C   UNL     1       2.208   8.825  17.967  0.00  0.00    +0.000 A 
ATOM      3  C   UNL     1       2.754   7.569  18.258  0.00  0.00    +0.000 A 
ATOM      4  C   UNL     1       2.572   6.990  19.517  0.00  0.00    +0.000 A 
ATOM      5  C   UNL     1       1.793   7.650  20.470  0.00  0.00    +0.000 A 
ATOM      6  C   UNL     1       1.259   8.909  20.189  0.00  0.00    +0.000 A 
ENDROOT
BRANCH   1   8
ATOM      7  O   UNL     1       1.670  11.766  18.331  0.00  0.00    +0.000 OA
ATOM      8  C   UNL     1       0.895  10.857  18.627  0.00  0.00    +0.000 C 
BRANCH   8   9
ATOM      9  C   UNL     1      -0.555  10.980  18.664  0.00  0.00    +0.000 A 
ATOM     10  N   UNL     1      -1.340  10.431  17.761  0.00  0.00    +0.000 NA
ATOM     11  C   UNL     1      -2.645  10.838  17.961  0.00  0.00    +0.000 A 
ATOM     12  C   UNL     1      -3.743  10.485  17.155  0.00  0.00    +0.000 A 
ATOM     13  C   UNL     1      -5.006  11.010  17.438  0.00  0.00    +0.000 A 
ATOM     14  C   UNL     1      -5.184  11.873  18.514  0.00  0.00    +0.000 A 
ATOM     15  C   UNL     1      -4.109  12.223  19.342  0.00  0.00    +0.000 A 
ATOM     16  C   UNL     1      -2.843  11.692  19.048  0.00  0.00    +0.000 A 
ATOM     17  S   UNL     1      -1.337  11.925  19.858  0.00  0.00    +0.000 S 
ENDBRANCH   8   9
ENDBRANCH   1   8
BRANCH   4  18
ATOM     18  O   UNL     1       3.121   5.741  19.706  0.00  0.00    +0.000 OA
BRANCH  18  19
ATOM     19  C   UNL     1       2.348   4.624  19.411  0.00  0.00    +0.000 A 
ATOM     20  N   UNL     1       1.320   4.307  20.240  0.00  0.00    +0.000 NA
ATOM     21  C   UNL     1       0.572   3.231  19.913  0.00  0.00    +0.000 A 
ATOM     22  C   UNL     1       0.814   2.439  18.804  0.00  0.00    +0.000 A 
ATOM     23  C   UNL     1       1.898   2.754  17.988  0.00  0.00    +0.000 A 
ATOM     24  C   UNL     1       2.689   3.860  18.298  0.00  0.00    +0.000 A 
ATOM     25 BR   UNL     1       4.163   4.273  17.186  0.00  0.00    +0.000 Br
ENDBRANCH  18  19
ENDBRANCH   4  18
TORSDOF 4
ENDMDL
MODEL 4
REMARK VINA RESULT:      -7.7      3.283      8.839
REMARK  Name = 
REMARK  4 active torsions:
REMARK  status: ('A' for Active; 'I' for Inactive)
REMARK    1  A    between atoms: C_2  and  C_3
REMARK    2  A    between atoms: C_2  and  C_17
REMARK    3  A    between atoms: C_6  and  O_7
REMARK    4  A    between atoms: O_7  and  C_8
REMARK                            x       y       z     vdW  Elec       q    Type
REMARK                         _______ _______ _______ _____ _____    ______ ____
ROOT
ATOM      1  C   UNL     1       2.018   7.152  19.821  0.00  0.00    +0.000 A 
ATOM      2  C   UNL     1       2.224   7.766  18.580  0.00  0.00    +0.000 A 
ATOM      3  C   UNL     1       1.762   9.069  18.357  0.00  0.00    +0.000 A 
ATOM      4  C   UNL     1       1.097   9.767  19.369  0.00  0.00    +0.000 A 
ATOM      5  C   UNL     1       0.944   9.177  20.625  0.00  0.00    +0.000 A 
ATOM      6  C   UNL     1       1.391   7.874  20.847  0.00  0.00    +0.000 A 
ENDROOT
BRANCH   1   8
ATOM      7  O   UNL     1       2.011   5.112  20.971  0.00  0.00    +0.000 OA
ATOM      8  C   UNL     1       2.514   5.758  20.053  0.00  0.00    +0.000 C 
BRANCH   8   9
ATOM      9  C   UNL     1       3.540   5.257  19.148  0.00  0.00    +0.000 A 
ATOM     10  N   UNL     1       4.826   5.428  19.365  0.00  0.00    +0.000 NA
ATOM     11  C   UNL     1       5.551   4.987  18.275  0.00  0.00    +0.000 A 
ATOM     12  C   UNL     1       6.950   5.060  18.140  0.00  0.00    +0.000 A 
ATOM     13  C   UNL     1       7.554   4.625  16.958  0.00  0.00    +0.000 A 
ATOM     14  C   UNL     1       6.782   4.116  15.920  0.00  0.00    +0.000 A 
ATOM     15  C   UNL     1       5.390   4.016  16.039  0.00  0.00    +0.000 A 
ATOM     16  C   UNL     1       4.792   4.458  17.230  0.00  0.00    +0.000 A 
ATOM     17  S   UNL     1       3.127   4.473  17.684  0.00  0.00    +0.000 S 
ENDBRANCH   8   9
ENDBRANCH   1   8
BRANCH   4  18
ATOM     18  O   UNL     1       0.700  11.053  19.072  0.00  0.00    +0.000 OA
BRANCH  18  19
ATOM     19  C   UNL     1      -0.661  11.323  18.980  0.00  0.00    +0.000 A 
ATOM     20  N   UNL     1      -1.354  10.826  17.923  0.00  0.00    +0.000 NA
ATOM     21  C   UNL     1      -2.678  11.085  17.876  0.00  0.00    +0.000 A 
ATOM     22  C   UNL     1      -3.346  11.837  18.826  0.00  0.00    +0.000 A 
ATOM     23  C   UNL     1      -2.613  12.374  19.881  0.00  0.00    +0.000 A 
ATOM     24  C   UNL     1      -1.243  12.123  19.960  0.00  0.00    +0.000 A 
ATOM     25 BR   UNL     1      -0.257  12.865  21.394  0.00  0.00    +0.000 Br
ENDBRANCH  18  19
ENDBRANCH   4  18
TORSDOF 4
ENDMDL
MODEL 5
REMARK VINA RESULT:      -7.7      1.131      1.550
REMARK  Name = 
REMARK  4 active torsions:
REMARK  status: ('A' for Active; 'I' for Inactive)
REMARK    1  A    between atoms: C_2  and  C_3
REMARK    2  A    between atoms: C_2  and  C_17
REMARK    3  A    between atoms: C_6  and  O_7
REMARK    4  A    between atoms: O_7  and  C_8
REMARK                            x       y       z     vdW  Elec       q    Type
REMARK                         _______ _______ _______ _____ _____    ______ ____
ROOT
ATOM      1  C   UNL     1       1.213   9.816  18.947  0.00  0.00    +0.000 A 
ATOM      2  C   UNL     1       1.089   9.223  20.208  0.00  0.00    +0.000 A 
ATOM      3  C   UNL     1       1.668   7.971  20.454  0.00  0.00    +0.000 A 
ATOM      4  C   UNL     1       2.375   7.308  19.447  0.00  0.00    +0.000 A 
ATOM      5  C   UNL     1       2.548   7.926  18.207  0.00  0.00    +0.000 A 
ATOM      6  C   UNL     1       1.961   9.166  17.954  0.00  0.00    +0.000 A 
ENDROOT
BRANCH   1   8
ATOM      7  O   UNL     1       1.335  12.132  18.621  0.00  0.00    +0.000 OA
ATOM      8  C   UNL     1       0.591  11.155  18.689  0.00  0.00    +0.000 C 
BRANCH   8   9
ATOM      9  C   UNL     1      -0.853  11.193  18.506  0.00  0.00    +0.000 A 
ATOM     10  N   UNL     1      -1.636  12.008  19.180  0.00  0.00    +0.000 NA
ATOM     11  C   UNL     1      -2.959  11.718  18.913  0.00  0.00    +0.000 A 
ATOM     12  C   UNL     1      -4.069  12.359  19.496  0.00  0.00    +0.000 A 
ATOM     13  C   UNL     1      -5.360  11.932  19.177  0.00  0.00    +0.000 A 
ATOM     14  C   UNL     1      -5.553  10.884  18.283  0.00  0.00    +0.000 A 
ATOM     15  C   UNL     1      -4.465  10.244  17.676  0.00  0.00    +0.000 A 
ATOM     16  C   UNL     1      -3.171  10.679  18.005  0.00  0.00    +0.000 A 
ATOM     17  S   UNL     1      -1.642  10.108  17.443  0.00  0.00    +0.000 S 
ENDBRANCH   8   9
ENDBRANCH   1   8
BRANCH   4  18
ATOM     18  O   UNL     1       2.933   6.094  19.784  0.00  0.00    +0.000 OA
BRANCH  18  19
ATOM     19  C   UNL     1       2.243   4.932  19.455  0.00  0.00    +0.000 A 
ATOM     20  N   UNL     1       1.222   4.532  20.256  0.00  0.00    +0.000 NA
ATOM     21  C   UNL     1       0.556   3.414  19.896  0.00  0.00    +0.000 A 
ATOM     22  C   UNL     1       0.874   2.659  18.781  0.00  0.00    +0.000 A 
ATOM     23  C   UNL     1       1.951   3.060  17.994  0.00  0.00    +0.000 A 
ATOM     24  C   UNL     1       2.658   4.212  18.338  0.00  0.00    +0.000 A 
ATOM     25 BR   UNL     1       4.123   4.742  17.265  0.00  0.00    +0.000 Br
ENDBRANCH  18  19
ENDBRANCH   4  18
TORSDOF 4
ENDMDL
MODEL 6
REMARK VINA RESULT:      -7.7      3.449      8.703
REMARK  Name = 
REMARK  4 active torsions:
REMARK  status: ('A' for Active; 'I' for Inactive)
REMARK    1  A    between atoms: C_2  and  C_3
REMARK    2  A    between atoms: C_2  and  C_17
REMARK    3  A    between atoms: C_6  and  O_7
REMARK    4  A    between atoms: O_7  and  C_8
REMARK                            x       y       z     vdW  Elec       q    Type
REMARK                         _______ _______ _______ _____ _____    ______ ____
ROOT
ATOM      1  C   UNL     1       2.237   7.185  19.490  0.00  0.00    +0.000 A 
ATOM      2  C   UNL     1       1.527   7.845  20.499  0.00  0.00    +0.000 A 
ATOM      3  C   UNL     1       0.937   9.090  20.242  0.00  0.00    +0.000 A 
ATOM      4  C   UNL     1       1.050   9.680  18.980  0.00  0.00    +0.000 A 
ATOM      5  C   UNL     1       1.709   8.995  17.957  0.00  0.00    +0.000 A 
ATOM      6  C   UNL     1       2.309   7.761  18.213  0.00  0.00    +0.000 A 
ENDROOT
BRANCH   1   8
ATOM      7  O   UNL     1       2.541   5.269  20.802  0.00  0.00    +0.000 OA
ATOM      8  C   UNL     1       2.866   5.854  19.770  0.00  0.00    +0.000 C 
BRANCH   8   9
ATOM      9  C   UNL     1       3.796   5.336  18.777  0.00  0.00    +0.000 A 
ATOM     10  N   UNL     1       5.066   5.678  18.743  0.00  0.00    +0.000 NA
ATOM     11  C   UNL     1       5.665   5.158  17.613  0.00  0.00    +0.000 A 
ATOM     12  C   UNL     1       7.004   5.362  17.230  0.00  0.00    +0.000 A 
ATOM     13  C   UNL     1       7.470   4.819  16.030  0.00  0.00    +0.000 A 
ATOM     14  C   UNL     1       6.621   4.075  15.218  0.00  0.00    +0.000 A 
ATOM     15  C   UNL     1       5.291   3.842  15.588  0.00  0.00    +0.000 A 
ATOM     16  C   UNL     1       4.830   4.393  16.795  0.00  0.00    +0.000 A 
ATOM     17  S   UNL     1       3.269   4.296  17.524  0.00  0.00    +0.000 S 
ENDBRANCH   8   9
ENDBRANCH   1   8
BRANCH   4  18
ATOM     18  O   UNL     1       0.418  10.892  18.809  0.00  0.00    +0.000 OA
BRANCH  18  19
ATOM     19  C   UNL     1      -0.935  10.896  18.486  0.00  0.00    +0.000 A 
ATOM     20  N   UNL     1      -1.376  10.044  17.525  0.00  0.00    +0.000 NA
ATOM     21  C   UNL     1      -2.698  10.053  17.251  0.00  0.00    +0.000 A 
ATOM     22  C   UNL     1      -3.604  10.891  17.877  0.00  0.00    +0.000 A 
ATOM     23  C   UNL     1      -3.128  11.788  18.831  0.00  0.00    +0.000 A 
ATOM     24  C   UNL     1      -1.767  11.802  19.138  0.00  0.00    +0.000 A 
ATOM     25 BR   UNL     1      -1.131  13.030  20.429  0.00  0.00    +0.000 Br
ENDBRANCH  18  19
ENDBRANCH   4  18
TORSDOF 4
ENDMDL
MODEL 7
REMARK VINA RESULT:      -7.6      1.674      2.139
REMARK  Name = 
REMARK  4 active torsions:
REMARK  status: ('A' for Active; 'I' for Inactive)
REMARK    1  A    between atoms: C_2  and  C_3
REMARK    2  A    between atoms: C_2  and  C_17
REMARK    3  A    between atoms: C_6  and  O_7
REMARK    4  A    between atoms: O_7  and  C_8
REMARK                            x       y       z     vdW  Elec       q    Type
REMARK                         _______ _______ _______ _____ _____    ______ ____
ROOT
ATOM      1  C   UNL     1       1.268   9.119  19.581  0.00  0.00    +0.000 A 
ATOM      2  C   UNL     1       1.208   8.346  20.746  0.00  0.00    +0.000 A 
ATOM      3  C   UNL     1       1.813   7.083  20.781  0.00  0.00    +0.000 A 
ATOM      4  C   UNL     1       2.482   6.587  19.659  0.00  0.00    +0.000 A 
ATOM      5  C   UNL     1       2.592   7.382  18.517  0.00  0.00    +0.000 A 
ATOM      6  C   UNL     1       1.978   8.635  18.473  0.00  0.00    +0.000 A 
ENDROOT
BRANCH   1   8
ATOM      7  O   UNL     1       1.212  11.408  20.076  0.00  0.00    +0.000 OA
ATOM      8  C   UNL     1       0.618  10.469  19.548  0.00  0.00    +0.000 C 
BRANCH   8   9
ATOM      9  C   UNL     1      -0.662  10.574  18.862  0.00  0.00    +0.000 A 
ATOM     10  N   UNL     1      -0.900   9.993  17.705  0.00  0.00    +0.000 NA
ATOM     11  C   UNL     1      -2.132  10.389  17.224  0.00  0.00    +0.000 A 
ATOM     12  C   UNL     1      -2.690  10.002  15.991  0.00  0.00    +0.000 A 
ATOM     13  C   UNL     1      -3.928  10.519  15.599  0.00  0.00    +0.000 A 
ATOM     14  C   UNL     1      -4.612  11.407  16.423  0.00  0.00    +0.000 A 
ATOM     15  C   UNL     1      -4.085  11.791  17.663  0.00  0.00    +0.000 A 
ATOM     16  C   UNL     1      -2.839  11.268  18.047  0.00  0.00    +0.000 A 
ATOM     17  S   UNL     1      -1.929  11.540  19.487  0.00  0.00    +0.000 S 
ENDBRANCH   8   9
ENDBRANCH   1   8
BRANCH   4  18
ATOM     18  O   UNL     1       3.070   5.348  19.791  0.00  0.00    +0.000 OA
BRANCH  18  19
ATOM     19  C   UNL     1       4.164   5.043  18.989  0.00  0.00    +0.000 A 
ATOM     20  N   UNL     1       5.373   5.571  19.309  0.00  0.00    +0.000 NA
ATOM     21  C   UNL     1       6.420   5.236  18.526  0.00  0.00    +0.000 A 
ATOM     22  C   UNL     1       6.317   4.411  17.420  0.00  0.00    +0.000 A 
ATOM     23  C   UNL     1       5.061   3.911  17.082  0.00  0.00    +0.000 A 
ATOM     24  C   UNL     1       3.959   4.237  17.872  0.00  0.00    +0.000 A 
ATOM     25 BR   UNL     1       2.258   3.558  17.398  0.00  0.00    +0.000 Br
ENDBRANCH  18  19
ENDBRANCH   4  18
TORSDOF 4
ENDMDL
MODEL 8
REMARK VINA RESULT:      -7.6      1.371      1.614
REMARK  Name = 
REMARK  4 active torsions:
REMARK  status: ('A' for Active; 'I' for Inactive)
REMARK    1  A    between atoms: C_2  and  C_3
REMARK    2  A    between atoms: C_2  and  C_17
REMARK    3  A    between atoms: C_6  and  O_7
REMARK    4  A    between atoms: O_7  and  C_8
REMARK                            x       y       z     vdW  Elec       q    Type
REMARK                         _______ _______ _______ _____ _____    ______ ____
ROOT
ATOM      1  C   UNL     1       1.368   9.172  19.452  0.00  0.00    +0.000 A 
ATOM      2  C   UNL     1       1.216   8.503  20.672  0.00  0.00    +0.000 A 
ATOM      3  C   UNL     1       1.781   7.234  20.851  0.00  0.00    +0.000 A 
ATOM      4  C   UNL     1       2.501   6.627  19.818  0.00  0.00    +0.000 A 
ATOM      5  C   UNL     1       2.702   7.319  18.621  0.00  0.00    +0.000 A 
ATOM      6  C   UNL     1       2.129   8.578  18.435  0.00  0.00    +0.000 A 
ENDROOT
BRANCH   1   8
ATOM      7  O   UNL     1       1.420  11.508  19.612  0.00  0.00    +0.000 OA
ATOM      8  C   UNL     1       0.761  10.529  19.266  0.00  0.00    +0.000 C 
BRANCH   8   9
ATOM      9  C   UNL     1      -0.560  10.588  18.656  0.00  0.00    +0.000 A 
ATOM     10  N   UNL     1      -0.853   9.974  17.529  0.00  0.00    +0.000 NA
ATOM     11  C   UNL     1      -2.121  10.330  17.114  0.00  0.00    +0.000 A 
ATOM     12  C   UNL     1      -2.742   9.901  15.927  0.00  0.00    +0.000 A 
ATOM     13  C   UNL     1      -4.013  10.380  15.599  0.00  0.00    +0.000 A 
ATOM     14  C   UNL     1      -4.668  11.271  16.442  0.00  0.00    +0.000 A 
ATOM     15  C   UNL     1      -4.077  11.698  17.639  0.00  0.00    +0.000 A 
ATOM     16  C   UNL     1      -2.799  11.212  17.958  0.00  0.00    +0.000 A 
ATOM     17  S   UNL     1      -1.810  11.540  19.335  0.00  0.00    +0.000 S 
ENDBRANCH   8   9
ENDBRANCH   1   8
BRANCH   4  18
ATOM     18  O   UNL     1       3.044   5.390  20.090  0.00  0.00    +0.000 OA
BRANCH  18  19
ATOM     19  C   UNL     1       2.764   4.338  19.225  0.00  0.00    +0.000 A 
ATOM     20  N   UNL     1       3.104   4.463  17.916  0.00  0.00    +0.000 NA
ATOM     21  C   UNL     1       2.843   3.415  17.107  0.00  0.00    +0.000 A 
ATOM     22  C   UNL     1       2.235   2.248  17.538  0.00  0.00    +0.000 A 
ATOM     23  C   UNL     1       1.856   2.152  18.874  0.00  0.00    +0.000 A 
ATOM     24  C   UNL     1       2.114   3.218  19.737  0.00  0.00    +0.000 A 
ATOM     25 BR   UNL     1       1.586   3.079  21.548  0.00  0.00    +0.000 Br
ENDBRANCH  18  19
ENDBRANCH   4  18
TORSDOF 4
ENDMDL
MODEL 9
REMARK VINA RESULT:      -7.6      1.509      1.828
REMARK  Name = 
REMARK  4 active torsions:
REMARK  status: ('A' for Active; 'I' for Inactive)
REMARK    1  A    between atoms: C_2  and  C_3
REMARK    2  A    between atoms: C_2  and  C_17
REMARK    3  A    between atoms: C_6  and  O_7
REMARK    4  A    between atoms: O_7  and  C_8
REMARK                            x       y       z     vdW  Elec       q    Type
REMARK                         _______ _______ _______ _____ _____    ______ ____
ROOT
ATOM      1  C   UNL     1       1.191   9.832  18.970  0.00  0.00    +0.000 A 
ATOM      2  C   UNL     1       1.156   9.224  20.231  0.00  0.00    +0.000 A 
ATOM      3  C   UNL     1       1.700   7.946  20.408  0.00  0.00    +0.000 A 
ATOM      4  C   UNL     1       2.283   7.269  19.332  0.00  0.00    +0.000 A 
ATOM      5  C   UNL     1       2.369   7.899  18.089  0.00  0.00    +0.000 A 
ATOM      6  C   UNL     1       1.816   9.167  17.906  0.00  0.00    +0.000 A 
ENDROOT
BRANCH   1   8
ATOM      7  O   UNL     1       1.383  12.142  18.636  0.00  0.00    +0.000 OA
ATOM      8  C   UNL     1       0.607  11.199  18.786  0.00  0.00    +0.000 C 
BRANCH   8   9
ATOM      9  C   UNL     1      -0.845  11.305  18.767  0.00  0.00    +0.000 A 
ATOM     10  N   UNL     1      -1.574  10.927  17.739  0.00  0.00    +0.000 NA
ATOM     11  C   UNL     1      -2.893  11.284  17.939  0.00  0.00    +0.000 A 
ATOM     12  C   UNL     1      -3.943  11.078  17.024  0.00  0.00    +0.000 A 
ATOM     13  C   UNL     1      -5.226  11.536  17.330  0.00  0.00    +0.000 A 
ATOM     14  C   UNL     1      -5.472  12.186  18.535  0.00  0.00    +0.000 A 
ATOM     15  C   UNL     1      -4.448  12.384  19.469  0.00  0.00    +0.000 A 
ATOM     16  C   UNL     1      -3.160  11.923  19.151  0.00  0.00    +0.000 A 
ATOM     17  S   UNL     1      -1.702  12.012  20.070  0.00  0.00    +0.000 S 
ENDBRANCH   8   9
ENDBRANCH   1   8
BRANCH   4  18
ATOM     18  O   UNL     1       2.816   6.027  19.603  0.00  0.00    +0.000 OA
BRANCH  18  19
ATOM     19  C   UNL     1       3.644   5.439  18.654  0.00  0.00    +0.000 A 
ATOM     20  N   UNL     1       4.883   5.961  18.458  0.00  0.00    +0.000 NA
ATOM     21  C   UNL     1       5.672   5.352  17.548  0.00  0.00    +0.000 A 
ATOM     22  C   UNL     1       5.278   4.255  16.803  0.00  0.00    +0.000 A 
ATOM     23  C   UNL     1       3.990   3.758  16.987  0.00  0.00    +0.000 A 
ATOM     24  C   UNL     1       3.150   4.363  17.921  0.00  0.00    +0.000 A 
ATOM     25 BR   UNL     1       1.400   3.684  18.156  0.00  0.00    +0.000 Br
ENDBRANCH  18  19
ENDBRANCH   4  18
TORSDOF 4
ENDMDL
