MODEL 1
REMARK VINA RESULT:      -7.8      0.000      0.000
REMARK  Name = 
REMARK  11 active torsions:
REMARK  status: ('A' for Active; 'I' for Inactive)
REMARK    1  A    between atoms: C_1  and  C_2
REMARK    2  A    between atoms: C_2  and  O_3
REMARK    3  A    between atoms: O_3  and  C_4
REMARK    4  A    between atoms: C_4  and  C_6
REMARK    5  A    between atoms: C_9  and  N_10
REMARK    6  A    between atoms: C_11  and  C_13
REMARK    7  A    between atoms: C_13  and  S_14
REMARK    8  A    between atoms: S_14  and  C_15
REMARK    9  A    between atoms: N_19  and  C_20
REMARK   10  A    between atoms: C_22  and  C_23
REMARK   11  A    between atoms: C_25  and  C_26
REMARK                            x       y       z     vdW  Elec       q    Type
REMARK                         _______ _______ _______ _____ _____    ______ ____
ROOT
ATOM      1  N   UNL     1       2.822   5.363  20.656  0.00  0.00    +0.000 N 
ATOM      2  C   UNL     1       2.009   4.266  20.916  0.00  0.00    +0.000 C 
ATOM      3  O   UNL     1       0.804   4.197  20.676  0.00  0.00    +0.000 OA
ATOM      4  H   UNL     1       3.823   5.195  20.661  0.00  0.00    +0.000 HD
ENDROOT
BRANCH   1   8
ATOM      5  C   UNL     1       1.461   8.979  18.932  0.00  0.00    +0.000 A 
ATOM      6  C   UNL     1       1.201   8.713  20.278  0.00  0.00    +0.000 A 
ATOM      7  C   UNL     1       1.667   7.535  20.868  0.00  0.00    +0.000 A 
ATOM      8  C   UNL     1       2.392   6.601  20.126  0.00  0.00    +0.000 A 
ATOM      9  C   UNL     1       2.703   6.895  18.793  0.00  0.00    +0.000 A 
ATOM     10  C   UNL     1       2.232   8.073  18.194  0.00  0.00    +0.000 A 
BRANCH   5  11
ATOM     11  C   UNL     1       0.820  10.183  18.336  0.00  0.00    +0.000 C 
ATOM     12  O   UNL     1       1.220  11.319  18.512  0.00  0.00    +0.000 OA
BRANCH  11  13
ATOM     13  O   UNL     1      -0.330   9.828  17.707  0.00  0.00    +0.000 OA
BRANCH  13  15
ATOM     14  C   UNL     1      -2.317  10.992  17.080  0.00  0.00    +0.000 C 
ATOM     15  C   UNL     1      -1.520  10.426  18.242  0.00  0.00    +0.000 C 
ENDBRANCH  13  15
ENDBRANCH  11  13
ENDBRANCH   5  11
ENDBRANCH   1   8
BRANCH   2  16
ATOM     16  C   UNL     1       2.743   3.091  21.545  0.00  0.00    +0.000 C 
BRANCH  16  17
ATOM     17  S   UNL     1       4.159   2.594  20.518  0.00  0.00    +0.000 S 
BRANCH  17  18
ATOM     18  C   UNL     1       3.390   2.516  18.960  0.00  0.00    +0.000 A 
ATOM     19  N   UNL     1       2.297   1.803  18.769  0.00  0.00    +0.000 NA
ATOM     20  C   UNL     1       1.863   2.143  17.523  0.00  0.00    +0.000 A 
ATOM     21  C   UNL     1       2.702   3.063  16.948  0.00  0.00    +0.000 A 
ATOM     22  N   UNL     1       3.738   3.273  17.845  0.00  0.00    +0.000 N 
BRANCH  22  23
ATOM     23  C   UNL     1       4.902   4.048  17.549  0.00  0.00    +0.000 A 
ATOM     24  C   UNL     1       5.347   4.158  16.219  0.00  0.00    +0.000 A 
ATOM     25  C   UNL     1       6.549   4.812  15.910  0.00  0.00    +0.000 A 
ATOM     26  C   UNL     1       7.049   4.885  14.497  0.00  0.00    +0.000 C 
ATOM     27  C   UNL     1       7.312   5.359  16.947  0.00  0.00    +0.000 A 
ATOM     28  C   UNL     1       6.887   5.260  18.276  0.00  0.00    +0.000 A 
ATOM     29  C   UNL     1       7.737   5.782  19.397  0.00  0.00    +0.000 C 
ATOM     30  C   UNL     1       5.679   4.608  18.571  0.00  0.00    +0.000 A 
ENDBRANCH  22  23
ENDBRANCH  17  18
ENDBRANCH  16  17
ENDBRANCH   2  16
TORSDOF 8
ENDMDL
MODEL 2
REMARK VINA RESULT:      -7.7      6.639      8.619
REMARK  Name = 
REMARK  11 active torsions:
REMARK  status: ('A' for Active; 'I' for Inactive)
REMARK    1  A    between atoms: C_1  and  C_2
REMARK    2  A    between atoms: C_2  and  O_3
REMARK    3  A    between atoms: O_3  and  C_4
REMARK    4  A    between atoms: C_4  and  C_6
REMARK    5  A    between atoms: C_9  and  N_10
REMARK    6  A    between atoms: C_11  and  C_13
REMARK    7  A    between atoms: C_13  and  S_14
REMARK    8  A    between atoms: S_14  and  C_15
REMARK    9  A    between atoms: N_19  and  C_20
REMARK   10  A    between atoms: C_22  and  C_23
REMARK   11  A    between atoms: C_25  and  C_26
REMARK                            x       y       z     vdW  Elec       q    Type
REMARK                         _______ _______ _______ _____ _____    ______ ____
ROOT
ATOM      1  N   UNL     1       8.474  10.711  17.656  0.00  0.00    +0.000 N 
ATOM      2  C   UNL     1       8.409   9.443  18.221  0.00  0.00    +0.000 C 
ATOM      3  O   UNL     1       9.069   9.054  19.184  0.00  0.00    +0.000 OA
ATOM      4  H   UNL     1       7.706  10.975  17.049  0.00  0.00    +0.000 HD
ENDROOT
BRANCH   1   8
ATOM      5  C   UNL     1      11.148  13.825  18.682  0.00  0.00    +0.000 A 
ATOM      6  C   UNL     1       9.805  13.916  19.052  0.00  0.00    +0.000 A 
ATOM      7  C   UNL     1       8.916  12.883  18.743  0.00  0.00    +0.000 A 
ATOM      8  C   UNL     1       9.348  11.747  18.056  0.00  0.00    +0.000 A 
ATOM      9  C   UNL     1      10.706  11.630  17.737  0.00  0.00    +0.000 A 
ATOM     10  C   UNL     1      11.602  12.666  18.039  0.00  0.00    +0.000 A 
BRANCH   5  11
ATOM     11  C   UNL     1      12.007  15.017  18.921  0.00  0.00    +0.000 C 
ATOM     12  O   UNL     1      12.332  15.405  20.028  0.00  0.00    +0.000 OA
BRANCH  11  13
ATOM     13  O   UNL     1      12.236  15.661  17.747  0.00  0.00    +0.000 OA
BRANCH  13  15
ATOM     14  C   UNL     1      10.589  17.309  17.228  0.00  0.00    +0.000 C 
ATOM     15  C   UNL     1      11.986  17.073  17.775  0.00  0.00    +0.000 C 
ENDBRANCH  13  15
ENDBRANCH  11  13
ENDBRANCH   5  11
ENDBRANCH   1   8
BRANCH   2  16
ATOM     16  C   UNL     1       7.412   8.516  17.541  0.00  0.00    +0.000 C 
BRANCH  16  17
ATOM     17  S   UNL     1       7.641   6.802  18.106  0.00  0.00    +0.000 S 
BRANCH  17  18
ATOM     18  C   UNL     1       6.871   5.947  16.802  0.00  0.00    +0.000 A 
ATOM     19  N   UNL     1       7.567   5.475  15.786  0.00  0.00    +0.000 NA
ATOM     20  C   UNL     1       6.694   4.694  15.089  0.00  0.00    +0.000 A 
ATOM     21  C   UNL     1       5.456   4.698  15.680  0.00  0.00    +0.000 A 
ATOM     22  N   UNL     1       5.535   5.559  16.764  0.00  0.00    +0.000 N 
BRANCH  22  23
ATOM     23  C   UNL     1       4.408   5.958  17.548  0.00  0.00    +0.000 A 
ATOM     24  C   UNL     1       3.795   7.201  17.304  0.00  0.00    +0.000 A 
ATOM     25  C   UNL     1       2.764   7.672  18.130  0.00  0.00    +0.000 A 
ATOM     26  C   UNL     1       2.144   9.020  17.901  0.00  0.00    +0.000 C 
ATOM     27  C   UNL     1       2.345   6.889  19.211  0.00  0.00    +0.000 A 
ATOM     28  C   UNL     1       2.942   5.651  19.469  0.00  0.00    +0.000 A 
ATOM     29  C   UNL     1       2.546   4.841  20.669  0.00  0.00    +0.000 C 
ATOM     30  C   UNL     1       3.969   5.188  18.631  0.00  0.00    +0.000 A 
ENDBRANCH  22  23
ENDBRANCH  17  18
ENDBRANCH  16  17
ENDBRANCH   2  16
TORSDOF 8
ENDMDL
MODEL 3
REMARK VINA RESULT:      -7.6      3.520      8.853
REMARK  Name = 
REMARK  11 active torsions:
REMARK  status: ('A' for Active; 'I' for Inactive)
REMARK    1  A    between atoms: C_1  and  C_2
REMARK    2  A    between atoms: C_2  and  O_3
REMARK    3  A    between atoms: O_3  and  C_4
REMARK    4  A    between atoms: C_4  and  C_6
REMARK    5  A    between atoms: C_9  and  N_10
REMARK    6  A    between atoms: C_11  and  C_13
REMARK    7  A    between atoms: C_13  and  S_14
REMARK    8  A    between atoms: S_14  and  C_15
REMARK    9  A    between atoms: N_19  and  C_20
REMARK   10  A    between atoms: C_22  and  C_23
REMARK   11  A    between atoms: C_25  and  C_26
REMARK                            x       y       z     vdW  Elec       q    Type
REMARK                         _______ _______ _______ _____ _____    ______ ____
ROOT
ATOM      1  N   UNL     1       1.613   8.178  21.428  0.00  0.00    +0.000 N 
ATOM      2  C   UNL     1       0.346   8.524  21.881  0.00  0.00    +0.000 C 
ATOM      3  O   UNL     1      -0.704   7.966  21.563  0.00  0.00    +0.000 OA
ATOM      4  H   UNL     1       2.397   8.542  21.959  0.00  0.00    +0.000 HD
ENDROOT
BRANCH   1   8
ATOM      5  C   UNL     1       2.325   5.079  18.637  0.00  0.00    +0.000 A 
ATOM      6  C   UNL     1       2.531   6.409  18.263  0.00  0.00    +0.000 A 
ATOM      7  C   UNL     1       2.325   7.441  19.182  0.00  0.00    +0.000 A 
ATOM      8  C   UNL     1       1.905   7.167  20.485  0.00  0.00    +0.000 A 
ATOM      9  C   UNL     1       1.755   5.831  20.877  0.00  0.00    +0.000 A 
ATOM     10  C   UNL     1       1.954   4.791  19.957  0.00  0.00    +0.000 A 
BRANCH   5  11
ATOM     11  C   UNL     1       2.429   4.044  17.573  0.00  0.00    +0.000 C 
ATOM     12  O   UNL     1       1.670   3.098  17.474  0.00  0.00    +0.000 OA
BRANCH  11  13
ATOM     13  O   UNL     1       3.559   4.243  16.846  0.00  0.00    +0.000 OA
BRANCH  13  15
ATOM     14  C   UNL     1       5.847   4.663  17.383  0.00  0.00    +0.000 C 
ATOM     15  C   UNL     1       4.738   3.625  17.383  0.00  0.00    +0.000 C 
ENDBRANCH  13  15
ENDBRANCH  11  13
ENDBRANCH   5  11
ENDBRANCH   1   8
BRANCH   2  16
ATOM     16  C   UNL     1       0.336   9.696  22.852  0.00  0.00    +0.000 C 
BRANCH  16  17
ATOM     17  S   UNL     1      -0.958  10.892  22.400  0.00  0.00    +0.000 S 
BRANCH  17  18
ATOM     18  C   UNL     1      -0.111  11.811  21.191  0.00  0.00    +0.000 A 
ATOM     19  N   UNL     1       1.059  12.364  21.444  0.00  0.00    +0.000 NA
ATOM     20  C   UNL     1       1.514  12.803  20.236  0.00  0.00    +0.000 A 
ATOM     21  C   UNL     1       0.611  12.523  19.243  0.00  0.00    +0.000 A 
ATOM     22  N   UNL     1      -0.484  11.931  19.855  0.00  0.00    +0.000 N 
BRANCH  22  23
ATOM     23  C   UNL     1      -1.708  11.632  19.180  0.00  0.00    +0.000 A 
ATOM     24  C   UNL     1      -1.690  10.829  18.025  0.00  0.00    +0.000 A 
ATOM     25  C   UNL     1      -2.856  10.615  17.275  0.00  0.00    +0.000 A 
ATOM     26  C   UNL     1      -2.828   9.800  16.015  0.00  0.00    +0.000 C 
ATOM     27  C   UNL     1      -4.051  11.213  17.689  0.00  0.00    +0.000 A 
ATOM     28  C   UNL     1      -4.089  12.015  18.835  0.00  0.00    +0.000 A 
ATOM     29  C   UNL     1      -5.352  12.717  19.241  0.00  0.00    +0.000 C 
ATOM     30  C   UNL     1      -2.916  12.217  19.580  0.00  0.00    +0.000 A 
ENDBRANCH  22  23
ENDBRANCH  17  18
ENDBRANCH  16  17
ENDBRANCH   2  16
TORSDOF 8
ENDMDL
MODEL 4
REMARK VINA RESULT:      -7.5      0.844      2.122
REMARK  Name = 
REMARK  11 active torsions:
REMARK  status: ('A' for Active; 'I' for Inactive)
REMARK    1  A    between atoms: C_1  and  C_2
REMARK    2  A    between atoms: C_2  and  O_3
REMARK    3  A    between atoms: O_3  and  C_4
REMARK    4  A    between atoms: C_4  and  C_6
REMARK    5  A    between atoms: C_9  and  N_10
REMARK    6  A    between atoms: C_11  and  C_13
REMARK    7  A    between atoms: C_13  and  S_14
REMARK    8  A    between atoms: S_14  and  C_15
REMARK    9  A    between atoms: N_19  and  C_20
REMARK   10  A    between atoms: C_22  and  C_23
REMARK   11  A    between atoms: C_25  and  C_26
REMARK                            x       y       z     vdW  Elec       q    Type
REMARK                         _______ _______ _______ _____ _____    ______ ____
ROOT
ATOM      1  N   UNL     1       2.707   5.378  20.778  0.00  0.00    +0.000 N 
ATOM      2  C   UNL     1       1.888   4.270  20.959  0.00  0.00    +0.000 C 
ATOM      3  O   UNL     1       0.708   4.190  20.620  0.00  0.00    +0.000 OA
ATOM      4  H   UNL     1       3.706   5.220  20.863  0.00  0.00    +0.000 HD
ENDROOT
BRANCH   1   8
ATOM      5  C   UNL     1       1.440   8.997  18.990  0.00  0.00    +0.000 A 
ATOM      6  C   UNL     1       1.151   8.750  20.333  0.00  0.00    +0.000 A 
ATOM      7  C   UNL     1       1.586   7.571  20.944  0.00  0.00    +0.000 A 
ATOM      8  C   UNL     1       2.308   6.616  20.226  0.00  0.00    +0.000 A 
ATOM      9  C   UNL     1       2.649   6.891  18.896  0.00  0.00    +0.000 A 
ATOM     10  C   UNL     1       2.210   8.070  18.276  0.00  0.00    +0.000 A 
BRANCH   5  11
ATOM     11  C   UNL     1       0.831  10.205  18.369  0.00  0.00    +0.000 C 
ATOM     12  O   UNL     1      -0.337  10.276  18.035  0.00  0.00    +0.000 OA
BRANCH  11  13
ATOM     13  O   UNL     1       1.795  11.126  18.112  0.00  0.00    +0.000 OA
BRANCH  13  15
ATOM     14  C   UNL     1       2.603  13.368  18.238  0.00  0.00    +0.000 C 
ATOM     15  C   UNL     1       1.695  12.334  18.879  0.00  0.00    +0.000 C 
ENDBRANCH  13  15
ENDBRANCH  11  13
ENDBRANCH   5  11
ENDBRANCH   1   8
BRANCH   2  16
ATOM     16  C   UNL     1       2.580   3.095  21.634  0.00  0.00    +0.000 C 
BRANCH  16  17
ATOM     17  S   UNL     1       3.960   2.491  20.615  0.00  0.00    +0.000 S 
BRANCH  17  18
ATOM     18  C   UNL     1       3.206   2.499  19.048  0.00  0.00    +0.000 A 
ATOM     19  N   UNL     1       2.034   1.929  18.848  0.00  0.00    +0.000 NA
ATOM     20  C   UNL     1       1.661   2.312  17.595  0.00  0.00    +0.000 A 
ATOM     21  C   UNL     1       2.616   3.115  17.025  0.00  0.00    +0.000 A 
ATOM     22  N   UNL     1       3.659   3.199  17.933  0.00  0.00    +0.000 N 
BRANCH  22  23
ATOM     23  C   UNL     1       4.916   3.818  17.648  0.00  0.00    +0.000 A 
ATOM     24  C   UNL     1       5.654   4.410  18.690  0.00  0.00    +0.000 A 
ATOM     25  C   UNL     1       6.831   5.126  18.425  0.00  0.00    +0.000 A 
ATOM     26  C   UNL     1       7.591   5.801  19.529  0.00  0.00    +0.000 C 
ATOM     27  C   UNL     1       7.271   5.249  17.103  0.00  0.00    +0.000 A 
ATOM     28  C   UNL     1       6.551   4.667  16.054  0.00  0.00    +0.000 A 
ATOM     29  C   UNL     1       6.979   4.858  14.628  0.00  0.00    +0.000 C 
ATOM     30  C   UNL     1       5.377   3.948  16.332  0.00  0.00    +0.000 A 
ENDBRANCH  22  23
ENDBRANCH  17  18
ENDBRANCH  16  17
ENDBRANCH   2  16
TORSDOF 8
ENDMDL
MODEL 5
REMARK VINA RESULT:      -7.5      0.946      1.741
REMARK  Name = 
REMARK  11 active torsions:
REMARK  status: ('A' for Active; 'I' for Inactive)
REMARK    1  A    between atoms: C_1  and  C_2
REMARK    2  A    between atoms: C_2  and  O_3
REMARK    3  A    between atoms: O_3  and  C_4
REMARK    4  A    between atoms: C_4  and  C_6
REMARK    5  A    between atoms: C_9  and  N_10
REMARK    6  A    between atoms: C_11  and  C_13
REMARK    7  A    between atoms: C_13  and  S_14
REMARK    8  A    between atoms: S_14  and  C_15
REMARK    9  A    between atoms: N_19  and  C_20
REMARK   10  A    between atoms: C_22  and  C_23
REMARK   11  A    between atoms: C_25  and  C_26
REMARK                            x       y       z     vdW  Elec       q    Type
REMARK                         _______ _______ _______ _____ _____    ______ ____
ROOT
ATOM      1  N   UNL     1       2.721   5.562  20.649  0.00  0.00    +0.000 N 
ATOM      2  C   UNL     1       1.950   4.430  20.882  0.00  0.00    +0.000 C 
ATOM      3  O   UNL     1       0.762   4.301  20.590  0.00  0.00    +0.000 OA
ATOM      4  H   UNL     1       3.727   5.442  20.699  0.00  0.00    +0.000 HD
ENDROOT
BRANCH   1   8
ATOM      5  C   UNL     1       1.413   9.278  19.107  0.00  0.00    +0.000 A 
ATOM      6  C   UNL     1       2.074   8.376  18.271  0.00  0.00    +0.000 A 
ATOM      7  C   UNL     1       2.489   7.134  18.759  0.00  0.00    +0.000 A 
ATOM      8  C   UNL     1       2.258   6.774  20.088  0.00  0.00    +0.000 A 
ATOM      9  C   UNL     1       1.543   7.654  20.910  0.00  0.00    +0.000 A 
ATOM     10  C   UNL     1       1.130   8.905  20.426  0.00  0.00    +0.000 A 
BRANCH   5  11
ATOM     11  C   UNL     1       1.123  10.632  18.560  0.00  0.00    +0.000 C 
ATOM     12  O   UNL     1       0.003  11.029  18.300  0.00  0.00    +0.000 OA
BRANCH  11  13
ATOM     13  O   UNL     1       2.286  11.271  18.273  0.00  0.00    +0.000 OA
BRANCH  13  15
ATOM     14  C   UNL     1       2.443  13.312  19.501  0.00  0.00    +0.000 C 
ATOM     15  C   UNL     1       2.175  12.695  18.139  0.00  0.00    +0.000 C 
ENDBRANCH  13  15
ENDBRANCH  11  13
ENDBRANCH   5  11
ENDBRANCH   1   8
BRANCH   2  16
ATOM     16  C   UNL     1       2.709   3.295  21.555  0.00  0.00    +0.000 C 
BRANCH  16  17
ATOM     17  S   UNL     1       4.152   2.810  20.559  0.00  0.00    +0.000 S 
BRANCH  17  18
ATOM     18  C   UNL     1       3.396   2.615  19.005  0.00  0.00    +0.000 A 
ATOM     19  N   UNL     1       2.317   1.873  18.855  0.00  0.00    +0.000 NA
ATOM     20  C   UNL     1       1.886   2.122  17.586  0.00  0.00    +0.000 A 
ATOM     21  C   UNL     1       2.714   3.017  16.957  0.00  0.00    +0.000 A 
ATOM     22  N   UNL     1       3.740   3.303  17.844  0.00  0.00    +0.000 N 
BRANCH  22  23
ATOM     23  C   UNL     1       4.893   4.076  17.505  0.00  0.00    +0.000 A 
ATOM     24  C   UNL     1       5.311   4.153  16.164  0.00  0.00    +0.000 A 
ATOM     25  C   UNL     1       6.503   4.804  15.814  0.00  0.00    +0.000 A 
ATOM     26  C   UNL     1       6.976   4.842  14.390  0.00  0.00    +0.000 C 
ATOM     27  C   UNL     1       7.283   5.384  16.821  0.00  0.00    +0.000 A 
ATOM     28  C   UNL     1       6.884   5.319  18.160  0.00  0.00    +0.000 A 
ATOM     29  C   UNL     1       7.752   5.876  19.250  0.00  0.00    +0.000 C 
ATOM     30  C   UNL     1       5.685   4.669  18.496  0.00  0.00    +0.000 A 
ENDBRANCH  22  23
ENDBRANCH  17  18
ENDBRANCH  16  17
ENDBRANCH   2  16
TORSDOF 8
ENDMDL
MODEL 6
REMARK VINA RESULT:      -7.4      3.254      3.998
REMARK  Name = 
REMARK  11 active torsions:
REMARK  status: ('A' for Active; 'I' for Inactive)
REMARK    1  A    between atoms: C_1  and  C_2
REMARK    2  A    between atoms: C_2  and  O_3
REMARK    3  A    between atoms: O_3  and  C_4
REMARK    4  A    between atoms: C_4  and  C_6
REMARK    5  A    between atoms: C_9  and  N_10
REMARK    6  A    between atoms: C_11  and  C_13
REMARK    7  A    between atoms: C_13  and  S_14
REMARK    8  A    between atoms: S_14  and  C_15
REMARK    9  A    between atoms: N_19  and  C_20
REMARK   10  A    between atoms: C_22  and  C_23
REMARK   11  A    between atoms: C_25  and  C_26
REMARK                            x       y       z     vdW  Elec       q    Type
REMARK                         _______ _______ _______ _____ _____    ______ ____
ROOT
ATOM      1  N   UNL     1       1.397   8.690  20.431  0.00  0.00    +0.000 N 
ATOM      2  C   UNL     1       1.534   8.635  19.049  0.00  0.00    +0.000 C 
ATOM      3  O   UNL     1       1.101   9.469  18.254  0.00  0.00    +0.000 OA
ATOM      4  H   UNL     1       2.013   8.090  20.970  0.00  0.00    +0.000 HD
ENDROOT
BRANCH   1   8
ATOM      5  C   UNL     1      -0.795  11.704  22.434  0.00  0.00    +0.000 A 
ATOM      6  C   UNL     1      -0.811  10.396  22.922  0.00  0.00    +0.000 A 
ATOM      7  C   UNL     1      -0.071   9.395  22.286  0.00  0.00    +0.000 A 
ATOM      8  C   UNL     1       0.691   9.679  21.151  0.00  0.00    +0.000 A 
ATOM      9  C   UNL     1       0.754  11.002  20.697  0.00  0.00    +0.000 A 
ATOM     10  C   UNL     1       0.008  12.010  21.328  0.00  0.00    +0.000 A 
BRANCH   5  11
ATOM     11  C   UNL     1      -1.711  12.686  23.075  0.00  0.00    +0.000 C 
ATOM     12  O   UNL     1      -1.329  13.655  23.703  0.00  0.00    +0.000 OA
BRANCH  11  13
ATOM     13  O   UNL     1      -2.995  12.254  22.972  0.00  0.00    +0.000 OA
BRANCH  13  15
ATOM     14  C   UNL     1      -4.935  13.350  23.825  0.00  0.00    +0.000 C 
ATOM     15  C   UNL     1      -3.784  12.417  24.158  0.00  0.00    +0.000 C 
ENDBRANCH  13  15
ENDBRANCH  11  13
ENDBRANCH   5  11
ENDBRANCH   1   8
BRANCH   2  16
ATOM     16  C   UNL     1       2.299   7.417  18.553  0.00  0.00    +0.000 C 
BRANCH  16  17
ATOM     17  S   UNL     1       2.619   6.260  19.919  0.00  0.00    +0.000 S 
BRANCH  17  18
ATOM     18  C   UNL     1       2.374   4.747  19.099  0.00  0.00    +0.000 A 
ATOM     19  N   UNL     1       1.288   4.025  19.300  0.00  0.00    +0.000 NA
ATOM     20  C   UNL     1       1.331   3.046  18.353  0.00  0.00    +0.000 A 
ATOM     21  C   UNL     1       2.454   3.168  17.575  0.00  0.00    +0.000 A 
ATOM     22  N   UNL     1       3.178   4.234  18.085  0.00  0.00    +0.000 N 
BRANCH  22  23
ATOM     23  C   UNL     1       4.493   4.586  17.647  0.00  0.00    +0.000 A 
ATOM     24  C   UNL     1       4.868   4.352  16.311  0.00  0.00    +0.000 A 
ATOM     25  C   UNL     1       6.184   4.576  15.881  0.00  0.00    +0.000 A 
ATOM     26  C   UNL     1       6.599   4.278  14.469  0.00  0.00    +0.000 C 
ATOM     27  C   UNL     1       7.132   5.039  16.799  0.00  0.00    +0.000 A 
ATOM     28  C   UNL     1       6.777   5.278  18.131  0.00  0.00    +0.000 A 
ATOM     29  C   UNL     1       7.807   5.706  19.137  0.00  0.00    +0.000 C 
ATOM     30  C   UNL     1       5.455   5.055  18.548  0.00  0.00    +0.000 A 
ENDBRANCH  22  23
ENDBRANCH  17  18
ENDBRANCH  16  17
ENDBRANCH   2  16
TORSDOF 8
ENDMDL
MODEL 7
REMARK VINA RESULT:      -7.4      3.014      3.848
REMARK  Name = 
REMARK  11 active torsions:
REMARK  status: ('A' for Active; 'I' for Inactive)
REMARK    1  A    between atoms: C_1  and  C_2
REMARK    2  A    between atoms: C_2  and  O_3
REMARK    3  A    between atoms: O_3  and  C_4
REMARK    4  A    between atoms: C_4  and  C_6
REMARK    5  A    between atoms: C_9  and  N_10
REMARK    6  A    between atoms: C_11  and  C_13
REMARK    7  A    between atoms: C_13  and  S_14
REMARK    8  A    between atoms: S_14  and  C_15
REMARK    9  A    between atoms: N_19  and  C_20
REMARK   10  A    between atoms: C_22  and  C_23
REMARK   11  A    between atoms: C_25  and  C_26
REMARK                            x       y       z     vdW  Elec       q    Type
REMARK                         _______ _______ _______ _____ _____    ______ ____
ROOT
ATOM      1  N   UNL     1       1.459   8.752  20.265  0.00  0.00    +0.000 N 
ATOM      2  C   UNL     1       1.612   8.592  18.893  0.00  0.00    +0.000 C 
ATOM      3  O   UNL     1       1.149   9.337  18.030  0.00  0.00    +0.000 OA
ATOM      4  H   UNL     1       2.096   8.228  20.855  0.00  0.00    +0.000 HD
ENDROOT
BRANCH   1   8
ATOM      5  C   UNL     1      -0.739  11.730  22.315  0.00  0.00    +0.000 A 
ATOM      6  C   UNL     1      -0.006  12.071  21.177  0.00  0.00    +0.000 A 
ATOM      7  C   UNL     1       0.703  11.093  20.474  0.00  0.00    +0.000 A 
ATOM      8  C   UNL     1       0.700   9.763  20.898  0.00  0.00    +0.000 A 
ATOM      9  C   UNL     1      -0.082   9.411  22.005  0.00  0.00    +0.000 A 
ATOM     10  C   UNL     1      -0.791  10.389  22.717  0.00  0.00    +0.000 A 
BRANCH   5  11
ATOM     11  C   UNL     1      -1.357  12.840  23.091  0.00  0.00    +0.000 C 
ATOM     12  O   UNL     1      -0.715  13.680  23.694  0.00  0.00    +0.000 OA
BRANCH  11  13
ATOM     13  O   UNL     1      -2.704  12.679  23.133  0.00  0.00    +0.000 OA
BRANCH  13  15
ATOM     14  C   UNL     1      -4.688  12.729  21.806  0.00  0.00    +0.000 C 
ATOM     15  C   UNL     1      -3.439  13.493  22.208  0.00  0.00    +0.000 C 
ENDBRANCH  13  15
ENDBRANCH  11  13
ENDBRANCH   5  11
ENDBRANCH   1   8
BRANCH   2  16
ATOM     16  C   UNL     1       2.438   7.375  18.503  0.00  0.00    +0.000 C 
BRANCH  16  17
ATOM     17  S   UNL     1       2.614   6.240  19.914  0.00  0.00    +0.000 S 
BRANCH  17  18
ATOM     18  C   UNL     1       2.359   4.718  19.113  0.00  0.00    +0.000 A 
ATOM     19  N   UNL     1       1.275   4.000  19.335  0.00  0.00    +0.000 NA
ATOM     20  C   UNL     1       1.307   3.010  18.398  0.00  0.00    +0.000 A 
ATOM     21  C   UNL     1       2.421   3.122  17.606  0.00  0.00    +0.000 A 
ATOM     22  N   UNL     1       3.151   4.194  18.096  0.00  0.00    +0.000 N 
BRANCH  22  23
ATOM     23  C   UNL     1       4.462   4.540  17.640  0.00  0.00    +0.000 A 
ATOM     24  C   UNL     1       4.821   4.292  16.302  0.00  0.00    +0.000 A 
ATOM     25  C   UNL     1       6.133   4.511  15.854  0.00  0.00    +0.000 A 
ATOM     26  C   UNL     1       6.530   4.198  14.441  0.00  0.00    +0.000 C 
ATOM     27  C   UNL     1       7.091   4.982  16.758  0.00  0.00    +0.000 A 
ATOM     28  C   UNL     1       6.752   5.234  18.091  0.00  0.00    +0.000 A 
ATOM     29  C   UNL     1       7.794   5.671  19.081  0.00  0.00    +0.000 C 
ATOM     30  C   UNL     1       5.435   5.017  18.526  0.00  0.00    +0.000 A 
ENDBRANCH  22  23
ENDBRANCH  17  18
ENDBRANCH  16  17
ENDBRANCH   2  16
TORSDOF 8
ENDMDL
MODEL 8
REMARK VINA RESULT:      -7.4      2.693      3.958
REMARK  Name = 
REMARK  11 active torsions:
REMARK  status: ('A' for Active; 'I' for Inactive)
REMARK    1  A    between atoms: C_1  and  C_2
REMARK    2  A    between atoms: C_2  and  O_3
REMARK    3  A    between atoms: O_3  and  C_4
REMARK    4  A    between atoms: C_4  and  C_6
REMARK    5  A    between atoms: C_9  and  N_10
REMARK    6  A    between atoms: C_11  and  C_13
REMARK    7  A    between atoms: C_13  and  S_14
REMARK    8  A    between atoms: S_14  and  C_15
REMARK    9  A    between atoms: N_19  and  C_20
REMARK   10  A    between atoms: C_22  and  C_23
REMARK   11  A    between atoms: C_25  and  C_26
REMARK                            x       y       z     vdW  Elec       q    Type
REMARK                         _______ _______ _______ _____ _____    ______ ____
ROOT
ATOM      1  N   UNL     1       1.333   8.701  19.442  0.00  0.00    +0.000 N 
ATOM      2  C   UNL     1       2.032   8.583  18.248  0.00  0.00    +0.000 C 
ATOM      3  O   UNL     1       2.117   9.451  17.379  0.00  0.00    +0.000 OA
ATOM      4  H   UNL     1       1.557   8.027  20.166  0.00  0.00    +0.000 HD
ENDROOT
BRANCH   1   8
ATOM      5  C   UNL     1      -1.141  11.930  20.607  0.00  0.00    +0.000 A 
ATOM      6  C   UNL     1      -0.023  11.601  21.377  0.00  0.00    +0.000 A 
ATOM      7  C   UNL     1       0.818  10.554  20.990  0.00  0.00    +0.000 A 
ATOM      8  C   UNL     1       0.555   9.814  19.836  0.00  0.00    +0.000 A 
ATOM      9  C   UNL     1      -0.532  10.181  19.033  0.00  0.00    +0.000 A 
ATOM     10  C   UNL     1      -1.382  11.228  19.420  0.00  0.00    +0.000 A 
BRANCH   5  11
ATOM     11  C   UNL     1      -2.066  12.962  21.149  0.00  0.00    +0.000 C 
ATOM     12  O   UNL     1      -1.701  13.917  21.810  0.00  0.00    +0.000 OA
BRANCH  11  13
ATOM     13  O   UNL     1      -3.353  12.595  20.917  0.00  0.00    +0.000 OA
BRANCH  13  15
ATOM     14  C   UNL     1      -5.671  12.679  21.477  0.00  0.00    +0.000 C 
ATOM     15  C   UNL     1      -4.256  12.840  22.004  0.00  0.00    +0.000 C 
ENDBRANCH  13  15
ENDBRANCH  11  13
ENDBRANCH   5  11
ENDBRANCH   1   8
BRANCH   2  16
ATOM     16  C   UNL     1       2.730   7.242  18.072  0.00  0.00    +0.000 C 
BRANCH  16  17
ATOM     17  S   UNL     1       2.722   6.306  19.631  0.00  0.00    +0.000 S 
BRANCH  17  18
ATOM     18  C   UNL     1       2.419   4.705  19.022  0.00  0.00    +0.000 A 
ATOM     19  N   UNL     1       1.287   4.078  19.275  0.00  0.00    +0.000 NA
ATOM     20  C   UNL     1       1.307   2.972  18.478  0.00  0.00    +0.000 A 
ATOM     21  C   UNL     1       2.464   2.922  17.742  0.00  0.00    +0.000 A 
ATOM     22  N   UNL     1       3.229   4.011  18.128  0.00  0.00    +0.000 N 
BRANCH  22  23
ATOM     23  C   UNL     1       4.578   4.227  17.705  0.00  0.00    +0.000 A 
ATOM     24  C   UNL     1       5.524   4.725  18.619  0.00  0.00    +0.000 A 
ATOM     25  C   UNL     1       6.823   5.058  18.206  0.00  0.00    +0.000 A 
ATOM     26  C   UNL     1       7.817   5.638  19.169  0.00  0.00    +0.000 C 
ATOM     27  C   UNL     1       7.174   4.889  16.863  0.00  0.00    +0.000 A 
ATOM     28  C   UNL     1       6.248   4.394  15.939  0.00  0.00    +0.000 A 
ATOM     29  C   UNL     1       6.598   4.280  14.483  0.00  0.00    +0.000 C 
ATOM     30  C   UNL     1       4.953   4.060  16.366  0.00  0.00    +0.000 A 
ENDBRANCH  22  23
ENDBRANCH  17  18
ENDBRANCH  16  17
ENDBRANCH   2  16
TORSDOF 8
ENDMDL
MODEL 9
REMARK VINA RESULT:      -7.4      2.913      4.000
REMARK  Name = 
REMARK  11 active torsions:
REMARK  status: ('A' for Active; 'I' for Inactive)
REMARK    1  A    between atoms: C_1  and  C_2
REMARK    2  A    between atoms: C_2  and  O_3
REMARK    3  A    between atoms: O_3  and  C_4
REMARK    4  A    between atoms: C_4  and  C_6
REMARK    5  A    between atoms: C_9  and  N_10
REMARK    6  A    between atoms: C_11  and  C_13
REMARK    7  A    between atoms: C_13  and  S_14
REMARK    8  A    between atoms: S_14  and  C_15
REMARK    9  A    between atoms: N_19  and  C_20
REMARK   10  A    between atoms: C_22  and  C_23
REMARK   11  A    between atoms: C_25  and  C_26
REMARK                            x       y       z     vdW  Elec       q    Type
REMARK                         _______ _______ _______ _____ _____    ______ ____
ROOT
ATOM      1  N   UNL     1       1.517   8.547  20.285  0.00  0.00    +0.000 N 
ATOM      2  C   UNL     1       1.616   8.495  18.900  0.00  0.00    +0.000 C 
ATOM      3  O   UNL     1       1.147   9.323  18.118  0.00  0.00    +0.000 OA
ATOM      4  H   UNL     1       2.157   7.956  20.806  0.00  0.00    +0.000 HD
ENDROOT
BRANCH   1   8
ATOM      5  C   UNL     1      -0.648  11.539  22.350  0.00  0.00    +0.000 A 
ATOM      6  C   UNL     1      -0.736  10.208  22.765  0.00  0.00    +0.000 A 
ATOM      7  C   UNL     1      -0.007   9.213  22.109  0.00  0.00    +0.000 A 
ATOM      8  C   UNL     1       0.817   9.525  21.026  0.00  0.00    +0.000 A 
ATOM      9  C   UNL     1       0.951  10.867  20.647  0.00  0.00    +0.000 A 
ATOM     10  C   UNL     1       0.216  11.869  21.298  0.00  0.00    +0.000 A 
BRANCH   5  11
ATOM     11  C   UNL     1      -1.554  12.522  23.003  0.00  0.00    +0.000 C 
ATOM     12  O   UNL     1      -1.169  13.408  23.742  0.00  0.00    +0.000 OA
BRANCH  11  13
ATOM     13  O   UNL     1      -2.848  12.186  22.762  0.00  0.00    +0.000 OA
BRANCH  13  15
ATOM     14  C   UNL     1      -4.927  12.715  21.716  0.00  0.00    +0.000 C 
ATOM     15  C   UNL     1      -3.415  12.777  21.584  0.00  0.00    +0.000 C 
ENDBRANCH  13  15
ENDBRANCH  11  13
ENDBRANCH   5  11
ENDBRANCH   1   8
BRANCH   2  16
ATOM     16  C   UNL     1       2.384   7.289  18.381  0.00  0.00    +0.000 C 
BRANCH  16  17
ATOM     17  S   UNL     1       2.859   6.192  19.752  0.00  0.00    +0.000 S 
BRANCH  17  18
ATOM     18  C   UNL     1       2.472   4.647  19.052  0.00  0.00    +0.000 A 
ATOM     19  N   UNL     1       1.330   4.043  19.313  0.00  0.00    +0.000 NA
ATOM     20  C   UNL     1       1.276   2.994  18.445  0.00  0.00    +0.000 A 
ATOM     21  C   UNL     1       2.397   2.955  17.655  0.00  0.00    +0.000 A 
ATOM     22  N   UNL     1       3.218   3.989  18.078  0.00  0.00    +0.000 N 
BRANCH  22  23
ATOM     23  C   UNL     1       4.554   4.188  17.610  0.00  0.00    +0.000 A 
ATOM     24  C   UNL     1       5.531   4.695  18.486  0.00  0.00    +0.000 A 
ATOM     25  C   UNL     1       6.819   5.011  18.028  0.00  0.00    +0.000 A 
ATOM     26  C   UNL     1       7.846   5.600  18.950  0.00  0.00    +0.000 C 
ATOM     27  C   UNL     1       7.127   4.818  16.677  0.00  0.00    +0.000 A 
ATOM     28  C   UNL     1       6.169   4.314  15.791  0.00  0.00    +0.000 A 
ATOM     29  C   UNL     1       6.473   4.173  14.328  0.00  0.00    +0.000 C 
ATOM     30  C   UNL     1       4.886   3.996  16.263  0.00  0.00    +0.000 A 
ENDBRANCH  22  23
ENDBRANCH  17  18
ENDBRANCH  16  17
ENDBRANCH   2  16
TORSDOF 8
ENDMDL
