MODEL 1
REMARK VINA RESULT:      -8.1      0.000      0.000
REMARK  Name = 
REMARK  4 active torsions:
REMARK  status: ('A' for Active; 'I' for Inactive)
REMARK    1  A    between atoms: C_5  and  C_6
REMARK    2  A    between atoms: C_6  and  N_7
REMARK    3  A    between atoms: C_10  and  C_11
REMARK    4  A    between atoms: C_14  and  N_15
REMARK                            x       y       z     vdW  Elec       q    Type
REMARK                         _______ _______ _______ _____ _____    ______ ____
ROOT
ATOM      1  N   UNL     1       6.936   6.937  17.259  0.00  0.00    +0.000 N 
ATOM      2  N   UNL     1       7.711   6.373  18.205  0.00  0.00    +0.000 NA
ATOM      3  N   UNL     1       8.390   7.383  18.731  0.00  0.00    +0.000 NA
ATOM      4  C   UNL     1       8.007   8.523  18.058  0.00  0.00    +0.000 A 
ATOM      5  N   UNL     1       7.085   8.269  17.109  0.00  0.00    +0.000 NA
ENDROOT
BRANCH   4   6
ATOM      6  C   UNL     1       8.576   9.837  18.322  0.00  0.00    +0.000 A 
ATOM      7  C   UNL     1       9.470  10.038  19.379  0.00  0.00    +0.000 A 
ATOM      8  C   UNL     1      10.028  11.305  19.617  0.00  0.00    +0.000 A 
ATOM      9  C   UNL     1       9.705  12.412  18.824  0.00  0.00    +0.000 A 
ATOM     10  C   UNL     1       8.808  12.193  17.768  0.00  0.00    +0.000 A 
ATOM     11  C   UNL     1       8.253  10.930  17.515  0.00  0.00    +0.000 A 
BRANCH   9  12
ATOM     12  N   UNL     1      10.253  13.666  19.018  0.00  0.00    +0.000 N 
ATOM     13  C   UNL     1       9.443  14.854  19.326  0.00  0.00    +0.000 C 
ATOM     14  C   UNL     1       9.439  15.837  18.148  0.00  0.00    +0.000 C 
ATOM     15  O   UNL     1      10.775  16.176  17.739  0.00  0.00    +0.000 OA
ATOM     16  C   UNL     1      11.482  14.993  17.333  0.00  0.00    +0.000 C 
ATOM     17  C   UNL     1      11.591  13.970  18.478  0.00  0.00    +0.000 C 
ENDBRANCH   9  12
ENDBRANCH   4   6
BRANCH   1  18
ATOM     18  C   UNL     1       6.227   6.133  16.282  0.00  0.00    +0.000 C 
BRANCH  18  23
ATOM     19 CL   UNL     1       1.198   3.560  18.397  0.00  0.00    +0.000 Cl
ATOM     20  C   UNL     1       2.648   4.287  17.825  0.00  0.00    +0.000 A 
ATOM     21  C   UNL     1       2.846   5.657  17.986  0.00  0.00    +0.000 A 
ATOM     22  C   UNL     1       4.015   6.251  17.504  0.00  0.00    +0.000 A 
ATOM     23  C   UNL     1       4.990   5.480  16.851  0.00  0.00    +0.000 A 
ATOM     24  C   UNL     1       4.785   4.100  16.714  0.00  0.00    +0.000 A 
ATOM     25  C   UNL     1       3.615   3.505  17.198  0.00  0.00    +0.000 A 
ENDBRANCH  18  23
ENDBRANCH   1  18
TORSDOF 4
ENDMDL
MODEL 2
REMARK VINA RESULT:      -8.0      0.835      1.538
REMARK  Name = 
REMARK  4 active torsions:
REMARK  status: ('A' for Active; 'I' for Inactive)
REMARK    1  A    between atoms: C_5  and  C_6
REMARK    2  A    between atoms: C_6  and  N_7
REMARK    3  A    between atoms: C_10  and  C_11
REMARK    4  A    between atoms: C_14  and  N_15
REMARK                            x       y       z     vdW  Elec       q    Type
REMARK                         _______ _______ _______ _____ _____    ______ ____
ROOT
ATOM      1  N   UNL     1       6.999   6.850  17.292  0.00  0.00    +0.000 N 
ATOM      2  N   UNL     1       7.737   6.303  18.276  0.00  0.00    +0.000 NA
ATOM      3  N   UNL     1       8.399   7.322  18.807  0.00  0.00    +0.000 NA
ATOM      4  C   UNL     1       8.043   8.449  18.100  0.00  0.00    +0.000 A 
ATOM      5  N   UNL     1       7.156   8.180  17.123  0.00  0.00    +0.000 NA
ENDROOT
BRANCH   4   6
ATOM      6  C   UNL     1       8.605   9.767  18.361  0.00  0.00    +0.000 A 
ATOM      7  C   UNL     1       9.474   9.982  19.435  0.00  0.00    +0.000 A 
ATOM      8  C   UNL     1      10.027  11.253  19.670  0.00  0.00    +0.000 A 
ATOM      9  C   UNL     1       9.721  12.349  18.855  0.00  0.00    +0.000 A 
ATOM     10  C   UNL     1       8.848  12.116  17.782  0.00  0.00    +0.000 A 
ATOM     11  C   UNL     1       8.300  10.850  17.533  0.00  0.00    +0.000 A 
BRANCH   9  12
ATOM     12  N   UNL     1      10.264  13.606  19.045  0.00  0.00    +0.000 N 
ATOM     13  C   UNL     1      10.996  13.985  20.264  0.00  0.00    +0.000 C 
ATOM     14  C   UNL     1      10.197  15.002  21.090  0.00  0.00    +0.000 C 
ATOM     15  O   UNL     1       9.818  16.142  20.302  0.00  0.00    +0.000 OA
ATOM     16  C   UNL     1       9.004  15.727  19.193  0.00  0.00    +0.000 C 
ATOM     17  C   UNL     1       9.750  14.749  18.269  0.00  0.00    +0.000 C 
ENDBRANCH   9  12
ENDBRANCH   4   6
BRANCH   1  18
ATOM     18  C   UNL     1       6.324   6.029  16.305  0.00  0.00    +0.000 C 
BRANCH  18  23
ATOM     19 CL   UNL     1       1.230   3.664  18.503  0.00  0.00    +0.000 Cl
ATOM     20  C   UNL     1       2.665   4.346  17.846  0.00  0.00    +0.000 A 
ATOM     21  C   UNL     1       3.561   3.537  17.151  0.00  0.00    +0.000 A 
ATOM     22  C   UNL     1       4.737   4.087  16.634  0.00  0.00    +0.000 A 
ATOM     23  C   UNL     1       5.027   5.449  16.816  0.00  0.00    +0.000 A 
ATOM     24  C   UNL     1       4.106   6.254  17.501  0.00  0.00    +0.000 A 
ATOM     25  C   UNL     1       2.929   5.704  18.017  0.00  0.00    +0.000 A 
ENDBRANCH  18  23
ENDBRANCH   1  18
TORSDOF 4
ENDMDL
MODEL 3
REMARK VINA RESULT:      -7.9      1.130      1.654
REMARK  Name = 
REMARK  4 active torsions:
REMARK  status: ('A' for Active; 'I' for Inactive)
REMARK    1  A    between atoms: C_5  and  C_6
REMARK    2  A    between atoms: C_6  and  N_7
REMARK    3  A    between atoms: C_10  and  C_11
REMARK    4  A    between atoms: C_14  and  N_15
REMARK                            x       y       z     vdW  Elec       q    Type
REMARK                         _______ _______ _______ _____ _____    ______ ____
ROOT
ATOM      1  N   UNL     1       7.765   6.789  18.098  0.00  0.00    +0.000 N 
ATOM      2  N   UNL     1       7.122   7.367  17.066  0.00  0.00    +0.000 NA
ATOM      3  N   UNL     1       7.476   8.644  17.121  0.00  0.00    +0.000 NA
ATOM      4  C   UNL     1       8.310   8.787  18.209  0.00  0.00    +0.000 A 
ATOM      5  N   UNL     1       8.508   7.622  18.856  0.00  0.00    +0.000 NA
ENDROOT
BRANCH   4   6
ATOM      6  C   UNL     1       8.869  10.065  18.625  0.00  0.00    +0.000 A 
ATOM      7  C   UNL     1       8.804  11.188  17.793  0.00  0.00    +0.000 A 
ATOM      8  C   UNL     1       9.329  12.423  18.210  0.00  0.00    +0.000 A 
ATOM      9  C   UNL     1       9.947  12.576  19.457  0.00  0.00    +0.000 A 
ATOM     10  C   UNL     1      10.003  11.441  20.278  0.00  0.00    +0.000 A 
ATOM     11  C   UNL     1       9.473  10.206  19.877  0.00  0.00    +0.000 A 
BRANCH   9  12
ATOM     12  N   UNL     1      10.454  13.781  19.905  0.00  0.00    +0.000 N 
ATOM     13  C   UNL     1       9.601  14.881  20.381  0.00  0.00    +0.000 C 
ATOM     14  C   UNL     1       9.632  16.063  19.402  0.00  0.00    +0.000 C 
ATOM     15  O   UNL     1      10.978  16.490  19.134  0.00  0.00    +0.000 OA
ATOM     16  C   UNL     1      11.733  15.412  18.558  0.00  0.00    +0.000 C 
ATOM     17  C   UNL     1      11.809  14.199  19.501  0.00  0.00    +0.000 C 
ENDBRANCH   9  12
ENDBRANCH   4   6
BRANCH   1  18
ATOM     18  C   UNL     1       7.441   5.444  18.534  0.00  0.00    +0.000 C 
BRANCH  18  23
ATOM     19 CL   UNL     1       1.604   4.224  17.636  0.00  0.00    +0.000 Cl
ATOM     20  C   UNL     1       3.272   4.541  17.909  0.00  0.00    +0.000 A 
ATOM     21  C   UNL     1       3.669   5.223  19.057  0.00  0.00    +0.000 A 
ATOM     22  C   UNL     1       5.022   5.498  19.269  0.00  0.00    +0.000 A 
ATOM     23  C   UNL     1       5.986   5.098  18.330  0.00  0.00    +0.000 A 
ATOM     24  C   UNL     1       5.573   4.394  17.190  0.00  0.00    +0.000 A 
ATOM     25  C   UNL     1       4.219   4.119  16.978  0.00  0.00    +0.000 A 
ENDBRANCH  18  23
ENDBRANCH   1  18
TORSDOF 4
ENDMDL
MODEL 4
REMARK VINA RESULT:      -7.9      1.105      1.840
REMARK  Name = 
REMARK  4 active torsions:
REMARK  status: ('A' for Active; 'I' for Inactive)
REMARK    1  A    between atoms: C_5  and  C_6
REMARK    2  A    between atoms: C_6  and  N_7
REMARK    3  A    between atoms: C_10  and  C_11
REMARK    4  A    between atoms: C_14  and  N_15
REMARK                            x       y       z     vdW  Elec       q    Type
REMARK                         _______ _______ _______ _____ _____    ______ ____
ROOT
ATOM      1  N   UNL     1       7.720   6.777  18.092  0.00  0.00    +0.000 N 
ATOM      2  N   UNL     1       7.062   7.363  17.075  0.00  0.00    +0.000 NA
ATOM      3  N   UNL     1       7.441   8.633  17.116  0.00  0.00    +0.000 NA
ATOM      4  C   UNL     1       8.306   8.764  18.180  0.00  0.00    +0.000 A 
ATOM      5  N   UNL     1       8.499   7.598  18.827  0.00  0.00    +0.000 NA
ENDROOT
BRANCH   4   6
ATOM      6  C   UNL     1       8.899  10.034  18.577  0.00  0.00    +0.000 A 
ATOM      7  C   UNL     1       8.913  11.128  17.706  0.00  0.00    +0.000 A 
ATOM      8  C   UNL     1       9.472  12.355  18.102  0.00  0.00    +0.000 A 
ATOM      9  C   UNL     1      10.045  12.527  19.367  0.00  0.00    +0.000 A 
ATOM     10  C   UNL     1      10.022  11.420  20.228  0.00  0.00    +0.000 A 
ATOM     11  C   UNL     1       9.458  10.195  19.847  0.00  0.00    +0.000 A 
BRANCH   9  12
ATOM     12  N   UNL     1      10.583  13.726  19.795  0.00  0.00    +0.000 N 
ATOM     13  C   UNL     1       9.785  14.954  19.943  0.00  0.00    +0.000 C 
ATOM     14  C   UNL     1      10.176  15.993  18.882  0.00  0.00    +0.000 C 
ATOM     15  O   UNL     1      11.589  16.253  18.894  0.00  0.00    +0.000 OA
ATOM     16  C   UNL     1      12.316  15.043  18.625  0.00  0.00    +0.000 C 
ATOM     17  C   UNL     1      12.034  13.959  19.680  0.00  0.00    +0.000 C 
ENDBRANCH   9  12
ENDBRANCH   4   6
BRANCH   1  18
ATOM     18  C   UNL     1       7.383   5.439  18.543  0.00  0.00    +0.000 C 
BRANCH  18  23
ATOM     19 CL   UNL     1       1.567   3.979  17.899  0.00  0.00    +0.000 Cl
ATOM     20  C   UNL     1       3.219   4.425  18.066  0.00  0.00    +0.000 A 
ATOM     21  C   UNL     1       4.143   4.035  17.098  0.00  0.00    +0.000 A 
ATOM     22  C   UNL     1       5.489   4.382  17.243  0.00  0.00    +0.000 A 
ATOM     23  C   UNL     1       5.920   5.114  18.361  0.00  0.00    +0.000 A 
ATOM     24  C   UNL     1       4.976   5.516  19.315  0.00  0.00    +0.000 A 
ATOM     25  C   UNL     1       3.628   5.170  19.170  0.00  0.00    +0.000 A 
ENDBRANCH  18  23
ENDBRANCH   1  18
TORSDOF 4
ENDMDL
MODEL 5
REMARK VINA RESULT:      -7.9      0.924      1.658
REMARK  Name = 
REMARK  4 active torsions:
REMARK  status: ('A' for Active; 'I' for Inactive)
REMARK    1  A    between atoms: C_5  and  C_6
REMARK    2  A    between atoms: C_6  and  N_7
REMARK    3  A    between atoms: C_10  and  C_11
REMARK    4  A    between atoms: C_14  and  N_15
REMARK                            x       y       z     vdW  Elec       q    Type
REMARK                         _______ _______ _______ _____ _____    ______ ____
ROOT
ATOM      1  N   UNL     1       7.123   6.869  17.372  0.00  0.00    +0.000 N 
ATOM      2  N   UNL     1       7.847   6.372  18.392  0.00  0.00    +0.000 NA
ATOM      3  N   UNL     1       8.476   7.421  18.902  0.00  0.00    +0.000 NA
ATOM      4  C   UNL     1       8.117   8.516  18.147  0.00  0.00    +0.000 A 
ATOM      5  N   UNL     1       7.259   8.195  17.159  0.00  0.00    +0.000 NA
ENDROOT
BRANCH   4   6
ATOM      6  C   UNL     1       8.647   9.853  18.374  0.00  0.00    +0.000 A 
ATOM      7  C   UNL     1       8.299  10.920  17.540  0.00  0.00    +0.000 A 
ATOM      8  C   UNL     1       8.801  12.211  17.777  0.00  0.00    +0.000 A 
ATOM      9  C   UNL     1       9.674  12.478  18.838  0.00  0.00    +0.000 A 
ATOM     10  C   UNL     1      10.012  11.396  19.665  0.00  0.00    +0.000 A 
ATOM     11  C   UNL     1       9.509  10.107  19.444  0.00  0.00    +0.000 A 
BRANCH   9  12
ATOM     12  N   UNL     1      10.168  13.739  19.111  0.00  0.00    +0.000 N 
ATOM     13  C   UNL     1      11.086  14.015  20.227  0.00  0.00    +0.000 C 
ATOM     14  C   UNL     1      10.392  14.845  21.316  0.00  0.00    +0.000 C 
ATOM     15  O   UNL     1       9.811  16.044  20.775  0.00  0.00    +0.000 OA
ATOM     16  C   UNL     1       8.835  15.711  19.775  0.00  0.00    +0.000 C 
ATOM     17  C   UNL     1       9.457  14.927  18.606  0.00  0.00    +0.000 C 
ENDBRANCH   9  12
ENDBRANCH   4   6
BRANCH   1  18
ATOM     18  C   UNL     1       6.488   6.001  16.398  0.00  0.00    +0.000 C 
BRANCH  18  23
ATOM     19 CL   UNL     1       1.221   3.706  18.232  0.00  0.00    +0.000 Cl
ATOM     20  C   UNL     1       2.737   4.353  17.741  0.00  0.00    +0.000 A 
ATOM     21  C   UNL     1       3.004   5.708  17.925  0.00  0.00    +0.000 A 
ATOM     22  C   UNL     1       4.228   6.237  17.508  0.00  0.00    +0.000 A 
ATOM     23  C   UNL     1       5.189   5.416  16.897  0.00  0.00    +0.000 A 
ATOM     24  C   UNL     1       4.913   4.051  16.738  0.00  0.00    +0.000 A 
ATOM     25  C   UNL     1       3.689   3.521  17.156  0.00  0.00    +0.000 A 
ENDBRANCH  18  23
ENDBRANCH   1  18
TORSDOF 4
ENDMDL
MODEL 6
REMARK VINA RESULT:      -7.8      6.547      7.595
REMARK  Name = 
REMARK  4 active torsions:
REMARK  status: ('A' for Active; 'I' for Inactive)
REMARK    1  A    between atoms: C_5  and  C_6
REMARK    2  A    between atoms: C_6  and  N_7
REMARK    3  A    between atoms: C_10  and  C_11
REMARK    4  A    between atoms: C_14  and  N_15
REMARK                            x       y       z     vdW  Elec       q    Type
REMARK                         _______ _______ _______ _____ _____    ______ ____
ROOT
ATOM      1  N   UNL     1       3.625   4.617  19.567  0.00  0.00    +0.000 N 
ATOM      2  N   UNL     1       2.696   4.193  20.443  0.00  0.00    +0.000 NA
ATOM      3  N   UNL     1       1.923   5.250  20.652  0.00  0.00    +0.000 NA
ATOM      4  C   UNL     1       2.438   6.283  19.901  0.00  0.00    +0.000 A 
ATOM      5  N   UNL     1       3.527   5.912  19.201  0.00  0.00    +0.000 NA
ENDROOT
BRANCH   4   6
ATOM      6  C   UNL     1       1.882   7.629  19.907  0.00  0.00    +0.000 A 
ATOM      7  C   UNL     1       1.888   8.419  18.752  0.00  0.00    +0.000 A 
ATOM      8  C   UNL     1       1.334   9.710  18.761  0.00  0.00    +0.000 A 
ATOM      9  C   UNL     1       0.773  10.261  19.919  0.00  0.00    +0.000 A 
ATOM     10  C   UNL     1       0.776   9.456  21.068  0.00  0.00    +0.000 A 
ATOM     11  C   UNL     1       1.316   8.162  21.067  0.00  0.00    +0.000 A 
BRANCH   9  12
ATOM     12  N   UNL     1       0.201  11.519  19.956  0.00  0.00    +0.000 N 
ATOM     13  C   UNL     1      -1.152  11.798  19.451  0.00  0.00    +0.000 C 
ATOM     14  C   UNL     1      -1.097  12.657  18.180  0.00  0.00    +0.000 C 
ATOM     15  O   UNL     1      -0.331  13.855  18.386  0.00  0.00    +0.000 OA
ATOM     16  C   UNL     1       1.015  13.523  18.760  0.00  0.00    +0.000 C 
ATOM     17  C   UNL     1       1.062  12.710  20.066  0.00  0.00    +0.000 C 
ENDBRANCH   9  12
ENDBRANCH   4   6
BRANCH   1  18
ATOM     18  C   UNL     1       4.809   3.829  19.276  0.00  0.00    +0.000 C 
BRANCH  18  23
ATOM     19 CL   UNL     1       7.269   4.947  13.884  0.00  0.00    +0.000 Cl
ATOM     20  C   UNL     1       6.555   4.661  15.422  0.00  0.00    +0.000 A 
ATOM     21  C   UNL     1       7.287   4.905  16.582  0.00  0.00    +0.000 A 
ATOM     22  C   UNL     1       6.714   4.655  17.831  0.00  0.00    +0.000 A 
ATOM     23  C   UNL     1       5.407   4.151  17.927  0.00  0.00    +0.000 A 
ATOM     24  C   UNL     1       4.676   3.930  16.752  0.00  0.00    +0.000 A 
ATOM     25  C   UNL     1       5.250   4.181  15.501  0.00  0.00    +0.000 A 
ENDBRANCH  18  23
ENDBRANCH   1  18
TORSDOF 4
ENDMDL
MODEL 7
REMARK VINA RESULT:      -7.8      6.607      9.306
REMARK  Name = 
REMARK  4 active torsions:
REMARK  status: ('A' for Active; 'I' for Inactive)
REMARK    1  A    between atoms: C_5  and  C_6
REMARK    2  A    between atoms: C_6  and  N_7
REMARK    3  A    between atoms: C_10  and  C_11
REMARK    4  A    between atoms: C_14  and  N_15
REMARK                            x       y       z     vdW  Elec       q    Type
REMARK                         _______ _______ _______ _____ _____    ______ ____
ROOT
ATOM      1  N   UNL     1       0.272  10.792  19.084  0.00  0.00    +0.000 N 
ATOM      2  N   UNL     1      -0.087  10.133  20.202  0.00  0.00    +0.000 NA
ATOM      3  N   UNL     1       0.661   9.038  20.202  0.00  0.00    +0.000 NA
ATOM      4  C   UNL     1       1.432   9.073  19.062  0.00  0.00    +0.000 A 
ATOM      5  N   UNL     1       1.203  10.177  18.324  0.00  0.00    +0.000 NA
ENDROOT
BRANCH   4   6
ATOM      6  C   UNL     1       2.353   8.009  18.686  0.00  0.00    +0.000 A 
ATOM      7  C   UNL     1       3.137   8.106  17.532  0.00  0.00    +0.000 A 
ATOM      8  C   UNL     1       4.036   7.083  17.186  0.00  0.00    +0.000 A 
ATOM      9  C   UNL     1       4.172   5.929  17.966  0.00  0.00    +0.000 A 
ATOM     10  C   UNL     1       3.379   5.848  19.120  0.00  0.00    +0.000 A 
ATOM     11  C   UNL     1       2.486   6.868  19.480  0.00  0.00    +0.000 A 
BRANCH   9  12
ATOM     12  N   UNL     1       5.062   4.915  17.665  0.00  0.00    +0.000 N 
ATOM     13  C   UNL     1       6.159   4.521  18.563  0.00  0.00    +0.000 C 
ATOM     14  C   UNL     1       7.521   4.905  17.968  0.00  0.00    +0.000 C 
ATOM     15  O   UNL     1       7.683   4.378  16.640  0.00  0.00    +0.000 OA
ATOM     16  C   UNL     1       6.656   4.891  15.776  0.00  0.00    +0.000 C 
ATOM     17  C   UNL     1       5.250   4.500  16.264  0.00  0.00    +0.000 C 
ENDBRANCH   9  12
ENDBRANCH   4   6
BRANCH   1  18
ATOM     18  C   UNL     1      -0.497  11.918  18.587  0.00  0.00    +0.000 C 
BRANCH  18  23
ATOM     19 CL   UNL     1      -6.422  10.883  18.146  0.00  0.00    +0.000 Cl
ATOM     20  C   UNL     1      -4.730  11.152  18.295  0.00  0.00    +0.000 A 
ATOM     21  C   UNL     1      -4.253  12.063  19.236  0.00  0.00    +0.000 A 
ATOM     22  C   UNL     1      -2.880  12.296  19.343  0.00  0.00    +0.000 A 
ATOM     23  C   UNL     1      -1.975  11.624  18.506  0.00  0.00    +0.000 A 
ATOM     24  C   UNL     1      -2.468  10.695  17.579  0.00  0.00    +0.000 A 
ATOM     25  C   UNL     1      -3.843  10.462  17.472  0.00  0.00    +0.000 A 
ENDBRANCH  18  23
ENDBRANCH   1  18
TORSDOF 4
ENDMDL
MODEL 8
REMARK VINA RESULT:      -7.7      6.858      8.069
REMARK  Name = 
REMARK  4 active torsions:
REMARK  status: ('A' for Active; 'I' for Inactive)
REMARK    1  A    between atoms: C_5  and  C_6
REMARK    2  A    between atoms: C_6  and  N_7
REMARK    3  A    between atoms: C_10  and  C_11
REMARK    4  A    between atoms: C_14  and  N_15
REMARK                            x       y       z     vdW  Elec       q    Type
REMARK                         _______ _______ _______ _____ _____    ______ ____
ROOT
ATOM      1  N   UNL     1       3.602   4.671  19.554  0.00  0.00    +0.000 N 
ATOM      2  N   UNL     1       2.627   4.205  20.355  0.00  0.00    +0.000 NA
ATOM      3  N   UNL     1       1.846   5.253  20.581  0.00  0.00    +0.000 NA
ATOM      4  C   UNL     1       2.403   6.323  19.915  0.00  0.00    +0.000 A 
ATOM      5  N   UNL     1       3.527   5.985  19.255  0.00  0.00    +0.000 NA
ENDROOT
BRANCH   4   6
ATOM      6  C   UNL     1       1.851   7.670  19.965  0.00  0.00    +0.000 A 
ATOM      7  C   UNL     1       1.810   8.477  18.823  0.00  0.00    +0.000 A 
ATOM      8  C   UNL     1       1.260   9.769  18.876  0.00  0.00    +0.000 A 
ATOM      9  C   UNL     1       0.749  10.303  20.064  0.00  0.00    +0.000 A 
ATOM     10  C   UNL     1       0.798   9.480  21.199  0.00  0.00    +0.000 A 
ATOM     11  C   UNL     1       1.335   8.186  21.156  0.00  0.00    +0.000 A 
BRANCH   9  12
ATOM     12  N   UNL     1       0.182  11.561  20.145  0.00  0.00    +0.000 N 
ATOM     13  C   UNL     1      -0.294  12.145  21.408  0.00  0.00    +0.000 C 
ATOM     14  C   UNL     1      -1.825  12.250  21.421  0.00  0.00    +0.000 C 
ATOM     15  O   UNL     1      -2.315  12.960  20.271  0.00  0.00    +0.000 OA
ATOM     16  C   UNL     1      -1.923  12.279  19.068  0.00  0.00    +0.000 C 
ATOM     17  C   UNL     1      -0.393  12.182  18.938  0.00  0.00    +0.000 C 
ENDBRANCH   9  12
ENDBRANCH   4   6
BRANCH   1  18
ATOM     18  C   UNL     1       4.798   3.894  19.283  0.00  0.00    +0.000 C 
BRANCH  18  23
ATOM     19 CL   UNL     1       7.269   4.940  13.882  0.00  0.00    +0.000 Cl
ATOM     20  C   UNL     1       6.551   4.674  15.422  0.00  0.00    +0.000 A 
ATOM     21  C   UNL     1       7.265   4.972  16.580  0.00  0.00    +0.000 A 
ATOM     22  C   UNL     1       6.689   4.738  17.831  0.00  0.00    +0.000 A 
ATOM     23  C   UNL     1       5.397   4.197  17.931  0.00  0.00    +0.000 A 
ATOM     24  C   UNL     1       4.683   3.922  16.757  0.00  0.00    +0.000 A 
ATOM     25  C   UNL     1       5.260   4.157  15.504  0.00  0.00    +0.000 A 
ENDBRANCH  18  23
ENDBRANCH   1  18
TORSDOF 4
ENDMDL
MODEL 9
REMARK VINA RESULT:      -7.7      6.863      8.126
REMARK  Name = 
REMARK  4 active torsions:
REMARK  status: ('A' for Active; 'I' for Inactive)
REMARK    1  A    between atoms: C_5  and  C_6
REMARK    2  A    between atoms: C_6  and  N_7
REMARK    3  A    between atoms: C_10  and  C_11
REMARK    4  A    between atoms: C_14  and  N_15
REMARK                            x       y       z     vdW  Elec       q    Type
REMARK                         _______ _______ _______ _____ _____    ______ ____
ROOT
ATOM      1  N   UNL     1       3.961   5.033  19.303  0.00  0.00    +0.000 N 
ATOM      2  N   UNL     1       2.981   4.481  20.043  0.00  0.00    +0.000 NA
ATOM      3  N   UNL     1       2.094   5.453  20.208  0.00  0.00    +0.000 NA
ATOM      4  C   UNL     1       2.593   6.568  19.572  0.00  0.00    +0.000 A 
ATOM      5  N   UNL     1       3.785   6.334  18.990  0.00  0.00    +0.000 NA
ENDROOT
BRANCH   4   6
ATOM      6  C   UNL     1       1.919   7.859  19.576  0.00  0.00    +0.000 A 
ATOM      7  C   UNL     1       1.847   8.640  18.418  0.00  0.00    +0.000 A 
ATOM      8  C   UNL     1       1.179   9.877  18.425  0.00  0.00    +0.000 A 
ATOM      9  C   UNL     1       0.576  10.380  19.583  0.00  0.00    +0.000 A 
ATOM     10  C   UNL     1       0.657   9.584  20.735  0.00  0.00    +0.000 A 
ATOM     11  C   UNL     1       1.312   8.344  20.737  0.00  0.00    +0.000 A 
BRANCH   9  12
ATOM     12  N   UNL     1      -0.107  11.581  19.618  0.00  0.00    +0.000 N 
ATOM     13  C   UNL     1      -0.388  12.305  20.868  0.00  0.00    +0.000 C 
ATOM     14  C   UNL     1      -1.888  12.277  21.193  0.00  0.00    +0.000 C 
ATOM     15  O   UNL     1      -2.675  12.759  20.091  0.00  0.00    +0.000 OA
ATOM     16  C   UNL     1      -2.453  11.941  18.931  0.00  0.00    +0.000 C 
ATOM     17  C   UNL     1      -0.979  11.959  18.492  0.00  0.00    +0.000 C 
ENDBRANCH   9  12
ENDBRANCH   4   6
BRANCH   1  18
ATOM     18  C   UNL     1       5.237   4.369  19.118  0.00  0.00    +0.000 C 
BRANCH  18  23
ATOM     19 CL   UNL     1       7.076   4.687  13.383  0.00  0.00    +0.000 Cl
ATOM     20  C   UNL     1       6.562   4.562  15.019  0.00  0.00    +0.000 A 
ATOM     21  C   UNL     1       5.251   4.188  15.307  0.00  0.00    +0.000 A 
ATOM     22  C   UNL     1       4.828   4.105  16.636  0.00  0.00    +0.000 A 
ATOM     23  C   UNL     1       5.712   4.405  17.685  0.00  0.00    +0.000 A 
ATOM     24  C   UNL     1       7.033   4.761  17.380  0.00  0.00    +0.000 A 
ATOM     25  C   UNL     1       7.457   4.842  16.050  0.00  0.00    +0.000 A 
ENDBRANCH  18  23
ENDBRANCH   1  18
TORSDOF 4
ENDMDL
