MODEL 1
REMARK VINA RESULT:      -7.7      0.000      0.000
REMARK  Name = 
REMARK  8 active torsions:
REMARK  status: ('A' for Active; 'I' for Inactive)
REMARK    1  A    between atoms: C_1  and  C_2
REMARK    2  A    between atoms: C_4  and  C_5
REMARK    3  A    between atoms: C_5  and  O_7
REMARK    4  A    between atoms: O_7  and  C_8
REMARK    5  A    between atoms: C_8  and  C_9
REMARK    6  A    between atoms: C_8  and  C_10
REMARK    7  A    between atoms: N_12  and  C_13
REMARK    8  A    between atoms: C_19  and  C_20
REMARK                            x       y       z     vdW  Elec       q    Type
REMARK                         _______ _______ _______ _____ _____    ______ ____
ROOT
ATOM      1  C   UNL     1       6.207   6.481  17.257  0.00  0.00    +0.000 C 
ATOM      2  C   UNL     1       6.960   7.786  17.536  0.00  0.00    +0.000 C 
ENDROOT
BRANCH   1   3
ATOM      3  C   UNL     1       4.731   6.661  17.672  0.00  0.00    +0.000 C 
ATOM      4  O   UNL     1       4.120   7.715  17.491  0.00  0.00    +0.000 OA
ATOM      5  N   UNL     1       4.136   5.567  18.286  0.00  0.00    +0.000 N 
ATOM      6  H   UNL     1       4.629   4.684  18.246  0.00  0.00    +0.000 HD
BRANCH   5   7
ATOM      7  C   UNL     1       2.681   5.567  18.476  0.00  0.00    +0.000 C 
ATOM      8  C   UNL     1       2.024   4.330  17.850  0.00  0.00    +0.000 C 
ATOM      9  C   UNL     1       1.808   3.175  18.816  0.00  0.00    +0.000 C 
ATOM     10  C   UNL     1       1.009   3.650  20.020  0.00  0.00    +0.000 C 
ATOM     11  C   UNL     1       1.814   4.679  20.793  0.00  0.00    +0.000 C 
ATOM     12  C   UNL     1       2.258   5.866  19.933  0.00  0.00    +0.000 C 
ENDBRANCH   5   7
ENDBRANCH   1   3
BRANCH   1  13
ATOM     13  O   UNL     1       6.282   6.152  15.855  0.00  0.00    +0.000 OA
BRANCH  13  14
ATOM     14  C   UNL     1       7.037   5.048  15.555  0.00  0.00    +0.000 C 
ATOM     15  O   UNL     1       7.842   4.546  16.328  0.00  0.00    +0.000 OA
BRANCH  14  19
ATOM     16  C   UNL     1       5.280   2.508  11.469  0.00  0.00    +0.000 C 
ATOM     17  C   UNL     1       5.945   3.368  12.468  0.00  0.00    +0.000 A 
ATOM     18  C   UNL     1       5.786   3.568  13.821  0.00  0.00    +0.000 A 
ATOM     19  C   UNL     1       6.773   4.523  14.221  0.00  0.00    +0.000 A 
ATOM     20  C   UNL     1       7.445   4.859  13.051  0.00  0.00    +0.000 A 
ATOM     21  C   UNL     1       8.548   5.781  12.704  0.00  0.00    +0.000 C 
ATOM     22  O   UNL     1       6.947   4.156  11.998  0.00  0.00    +0.000 OA
ENDBRANCH  14  19
ENDBRANCH  13  14
ENDBRANCH   1  13
TORSDOF 5
ENDMDL
MODEL 2
REMARK VINA RESULT:      -7.5      1.290      1.810
REMARK  Name = 
REMARK  8 active torsions:
REMARK  status: ('A' for Active; 'I' for Inactive)
REMARK    1  A    between atoms: C_1  and  C_2
REMARK    2  A    between atoms: C_4  and  C_5
REMARK    3  A    between atoms: C_5  and  O_7
REMARK    4  A    between atoms: O_7  and  C_8
REMARK    5  A    between atoms: C_8  and  C_9
REMARK    6  A    between atoms: C_8  and  C_10
REMARK    7  A    between atoms: N_12  and  C_13
REMARK    8  A    between atoms: C_19  and  C_20
REMARK                            x       y       z     vdW  Elec       q    Type
REMARK                         _______ _______ _______ _____ _____    ______ ____
ROOT
ATOM      1  C   UNL     1       5.342   6.286  17.250  0.00  0.00    +0.000 C 
ATOM      2  C   UNL     1       4.201   7.309  17.263  0.00  0.00    +0.000 C 
ENDROOT
BRANCH   1   3
ATOM      3  C   UNL     1       5.158   5.322  18.441  0.00  0.00    +0.000 C 
ATOM      4  O   UNL     1       5.935   5.299  19.397  0.00  0.00    +0.000 OA
ATOM      5  N   UNL     1       4.072   4.460  18.362  0.00  0.00    +0.000 N 
ATOM      6  H   UNL     1       3.380   4.647  17.647  0.00  0.00    +0.000 HD
BRANCH   5   7
ATOM      7  C   UNL     1       3.682   3.699  19.554  0.00  0.00    +0.000 C 
ATOM      8  C   UNL     1       2.818   4.535  20.507  0.00  0.00    +0.000 C 
ATOM      9  C   UNL     1       1.319   4.353  20.320  0.00  0.00    +0.000 C 
ATOM     10  C   UNL     1       0.959   2.879  20.428  0.00  0.00    +0.000 C 
ATOM     11  C   UNL     1       1.606   2.111  19.290  0.00  0.00    +0.000 C 
ATOM     12  C   UNL     1       3.124   2.295  19.225  0.00  0.00    +0.000 C 
ENDBRANCH   5   7
ENDBRANCH   1   3
BRANCH   1  13
ATOM     13  O   UNL     1       5.329   5.541  16.015  0.00  0.00    +0.000 OA
BRANCH  13  14
ATOM     14  C   UNL     1       6.563   5.188  15.534  0.00  0.00    +0.000 C 
ATOM     15  O   UNL     1       7.607   5.361  16.150  0.00  0.00    +0.000 OA
BRANCH  14  19
ATOM     16  C   UNL     1       5.470   2.332  11.425  0.00  0.00    +0.000 C 
ATOM     17  C   UNL     1       5.965   3.277  12.447  0.00  0.00    +0.000 A 
ATOM     18  C   UNL     1       5.609   3.558  13.746  0.00  0.00    +0.000 A 
ATOM     19  C   UNL     1       6.505   4.569  14.215  0.00  0.00    +0.000 A 
ATOM     20  C   UNL     1       7.329   4.852  13.132  0.00  0.00    +0.000 A 
ATOM     21  C   UNL     1       8.448   5.787  12.881  0.00  0.00    +0.000 C 
ATOM     22  O   UNL     1       7.004   4.067  12.070  0.00  0.00    +0.000 OA
ENDBRANCH  14  19
ENDBRANCH  13  14
ENDBRANCH   1  13
TORSDOF 5
ENDMDL
MODEL 3
REMARK VINA RESULT:      -7.2      1.470      2.016
REMARK  Name = 
REMARK  8 active torsions:
REMARK  status: ('A' for Active; 'I' for Inactive)
REMARK    1  A    between atoms: C_1  and  C_2
REMARK    2  A    between atoms: C_4  and  C_5
REMARK    3  A    between atoms: C_5  and  O_7
REMARK    4  A    between atoms: O_7  and  C_8
REMARK    5  A    between atoms: C_8  and  C_9
REMARK    6  A    between atoms: C_8  and  C_10
REMARK    7  A    between atoms: N_12  and  C_13
REMARK    8  A    between atoms: C_19  and  C_20
REMARK                            x       y       z     vdW  Elec       q    Type
REMARK                         _______ _______ _______ _____ _____    ______ ____
ROOT
ATOM      1  C   UNL     1       5.366   5.256  17.254  0.00  0.00    +0.000 C 
ATOM      2  C   UNL     1       4.809   6.441  18.050  0.00  0.00    +0.000 C 
ENDROOT
BRANCH   1   3
ATOM      3  C   UNL     1       4.460   4.030  17.490  0.00  0.00    +0.000 C 
ATOM      4  O   UNL     1       4.644   2.954  16.918  0.00  0.00    +0.000 OA
ATOM      5  N   UNL     1       3.403   4.217  18.371  0.00  0.00    +0.000 N 
ATOM      6  H   UNL     1       3.410   5.057  18.936  0.00  0.00    +0.000 HD
BRANCH   5   7
ATOM      7  C   UNL     1       2.657   3.045  18.841  0.00  0.00    +0.000 C 
ATOM      8  C   UNL     1       3.352   2.363  20.027  0.00  0.00    +0.000 C 
ATOM      9  C   UNL     1       2.847   2.806  21.392  0.00  0.00    +0.000 C 
ATOM     10  C   UNL     1       1.341   2.612  21.475  0.00  0.00    +0.000 C 
ATOM     11  C   UNL     1       0.653   3.522  20.473  0.00  0.00    +0.000 C 
ATOM     12  C   UNL     1       1.149   3.322  19.039  0.00  0.00    +0.000 C 
ENDBRANCH   5   7
ENDBRANCH   1   3
BRANCH   1  13
ATOM     13  O   UNL     1       5.401   5.573  15.847  0.00  0.00    +0.000 OA
BRANCH  13  14
ATOM     14  C   UNL     1       6.633   5.473  15.257  0.00  0.00    +0.000 C 
ATOM     15  O   UNL     1       7.655   5.947  15.736  0.00  0.00    +0.000 OA
BRANCH  14  19
ATOM     16  C   UNL     1       5.655   2.217  11.425  0.00  0.00    +0.000 C 
ATOM     17  C   UNL     1       6.117   3.265  12.358  0.00  0.00    +0.000 A 
ATOM     18  C   UNL     1       5.738   3.659  13.621  0.00  0.00    +0.000 A 
ATOM     19  C   UNL     1       6.606   4.731  14.002  0.00  0.00    +0.000 A 
ATOM     20  C   UNL     1       7.437   4.929  12.906  0.00  0.00    +0.000 A 
ATOM     21  C   UNL     1       8.539   5.861  12.579  0.00  0.00    +0.000 C 
ATOM     22  O   UNL     1       7.144   4.039  11.919  0.00  0.00    +0.000 OA
ENDBRANCH  14  19
ENDBRANCH  13  14
ENDBRANCH   1  13
TORSDOF 5
ENDMDL
MODEL 4
REMARK VINA RESULT:      -7.0      1.003      1.064
REMARK  Name = 
REMARK  8 active torsions:
REMARK  status: ('A' for Active; 'I' for Inactive)
REMARK    1  A    between atoms: C_1  and  C_2
REMARK    2  A    between atoms: C_4  and  C_5
REMARK    3  A    between atoms: C_5  and  O_7
REMARK    4  A    between atoms: O_7  and  C_8
REMARK    5  A    between atoms: C_8  and  C_9
REMARK    6  A    between atoms: C_8  and  C_10
REMARK    7  A    between atoms: N_12  and  C_13
REMARK    8  A    between atoms: C_19  and  C_20
REMARK                            x       y       z     vdW  Elec       q    Type
REMARK                         _______ _______ _______ _____ _____    ______ ____
ROOT
ATOM      1  C   UNL     1       5.332   6.033  17.084  0.00  0.00    +0.000 C 
ATOM      2  C   UNL     1       5.284   6.993  15.890  0.00  0.00    +0.000 C 
ENDROOT
BRANCH   1   3
ATOM      3  C   UNL     1       3.992   6.120  17.844  0.00  0.00    +0.000 C 
ATOM      4  O   UNL     1       3.202   7.051  17.683  0.00  0.00    +0.000 OA
ATOM      5  N   UNL     1       3.737   5.093  18.744  0.00  0.00    +0.000 N 
ATOM      6  H   UNL     1       4.334   4.277  18.702  0.00  0.00    +0.000 HD
BRANCH   5   7
ATOM      7  C   UNL     1       2.390   4.967  19.311  0.00  0.00    +0.000 C 
ATOM      8  C   UNL     1       1.554   3.917  18.568  0.00  0.00    +0.000 C 
ATOM      9  C   UNL     1       1.579   2.532  19.197  0.00  0.00    +0.000 C 
ATOM     10  C   UNL     1       1.152   2.618  20.654  0.00  0.00    +0.000 C 
ATOM     11  C   UNL     1       2.164   3.436  21.435  0.00  0.00    +0.000 C 
ATOM     12  C   UNL     1       2.388   4.834  20.852  0.00  0.00    +0.000 C 
ENDBRANCH   5   7
ENDBRANCH   1   3
BRANCH   1  13
ATOM     13  O   UNL     1       5.546   4.681  16.629  0.00  0.00    +0.000 OA
BRANCH  13  14
ATOM     14  C   UNL     1       6.684   4.488  15.890  0.00  0.00    +0.000 C 
ATOM     15  O   UNL     1       7.814   4.524  16.361  0.00  0.00    +0.000 OA
BRANCH  14  19
ATOM     16  C   UNL     1       4.811   2.860  11.409  0.00  0.00    +0.000 C 
ATOM     17  C   UNL     1       5.528   3.468  12.549  0.00  0.00    +0.000 A 
ATOM     18  C   UNL     1       5.346   3.456  13.913  0.00  0.00    +0.000 A 
ATOM     19  C   UNL     1       6.411   4.222  14.482  0.00  0.00    +0.000 A 
ATOM     20  C   UNL     1       7.152   4.675  13.396  0.00  0.00    +0.000 A 
ATOM     21  C   UNL     1       8.354   5.520  13.225  0.00  0.00    +0.000 C 
ATOM     22  O   UNL     1       6.620   4.213  12.233  0.00  0.00    +0.000 OA
ENDBRANCH  14  19
ENDBRANCH  13  14
ENDBRANCH   1  13
TORSDOF 5
ENDMDL
MODEL 5
REMARK VINA RESULT:      -7.0      1.190      1.463
REMARK  Name = 
REMARK  8 active torsions:
REMARK  status: ('A' for Active; 'I' for Inactive)
REMARK    1  A    between atoms: C_1  and  C_2
REMARK    2  A    between atoms: C_4  and  C_5
REMARK    3  A    between atoms: C_5  and  O_7
REMARK    4  A    between atoms: O_7  and  C_8
REMARK    5  A    between atoms: C_8  and  C_9
REMARK    6  A    between atoms: C_8  and  C_10
REMARK    7  A    between atoms: N_12  and  C_13
REMARK    8  A    between atoms: C_19  and  C_20
REMARK                            x       y       z     vdW  Elec       q    Type
REMARK                         _______ _______ _______ _____ _____    ______ ____
ROOT
ATOM      1  C   UNL     1       6.711   4.678  17.069  0.00  0.00    +0.000 C 
ATOM      2  C   UNL     1       7.903   4.477  18.011  0.00  0.00    +0.000 C 
ENDROOT
BRANCH   1   3
ATOM      3  C   UNL     1       5.519   5.220  17.886  0.00  0.00    +0.000 C 
ATOM      4  O   UNL     1       5.559   6.303  18.472  0.00  0.00    +0.000 OA
ATOM      5  N   UNL     1       4.400   4.400  17.944  0.00  0.00    +0.000 N 
ATOM      6  H   UNL     1       4.363   3.615  17.306  0.00  0.00    +0.000 HD
BRANCH   5   7
ATOM      7  C   UNL     1       3.148   4.947  18.479  0.00  0.00    +0.000 C 
ATOM      8  C   UNL     1       1.920   4.355  17.775  0.00  0.00    +0.000 C 
ATOM      9  C   UNL     1       1.303   3.160  18.486  0.00  0.00    +0.000 C 
ATOM     10  C   UNL     1       0.967   3.528  19.923  0.00  0.00    +0.000 C 
ATOM     11  C   UNL     1       2.244   3.837  20.683  0.00  0.00    +0.000 C 
ATOM     12  C   UNL     1       3.088   4.931  20.024  0.00  0.00    +0.000 C 
ENDBRANCH   5   7
ENDBRANCH   1   3
BRANCH   1  13
ATOM     13  O   UNL     1       7.052   5.613  16.026  0.00  0.00    +0.000 OA
BRANCH  13  14
ATOM     14  C   UNL     1       6.092   5.791  15.065  0.00  0.00    +0.000 C 
ATOM     15  O   UNL     1       5.191   6.617  15.150  0.00  0.00    +0.000 OA
BRANCH  14  19
ATOM     16  C   UNL     1       5.672   2.120  11.518  0.00  0.00    +0.000 C 
ATOM     17  C   UNL     1       6.006   3.262  12.394  0.00  0.00    +0.000 A 
ATOM     18  C   UNL     1       5.423   3.817  13.510  0.00  0.00    +0.000 A 
ATOM     19  C   UNL     1       6.258   4.903  13.921  0.00  0.00    +0.000 A 
ATOM     20  C   UNL     1       7.285   4.943  12.985  0.00  0.00    +0.000 A 
ATOM     21  C   UNL     1       8.472   5.798  12.766  0.00  0.00    +0.000 C 
ATOM     22  O   UNL     1       7.133   3.948  12.070  0.00  0.00    +0.000 OA
ENDBRANCH  14  19
ENDBRANCH  13  14
ENDBRANCH   1  13
TORSDOF 5
ENDMDL
MODEL 6
REMARK VINA RESULT:      -6.8      3.259      4.908
REMARK  Name = 
REMARK  8 active torsions:
REMARK  status: ('A' for Active; 'I' for Inactive)
REMARK    1  A    between atoms: C_1  and  C_2
REMARK    2  A    between atoms: C_4  and  C_5
REMARK    3  A    between atoms: C_5  and  O_7
REMARK    4  A    between atoms: O_7  and  C_8
REMARK    5  A    between atoms: C_8  and  C_9
REMARK    6  A    between atoms: C_8  and  C_10
REMARK    7  A    between atoms: N_12  and  C_13
REMARK    8  A    between atoms: C_19  and  C_20
REMARK                            x       y       z     vdW  Elec       q    Type
REMARK                         _______ _______ _______ _____ _____    ______ ____
ROOT
ATOM      1  C   UNL     1       5.037   3.746  18.721  0.00  0.00    +0.000 C 
ATOM      2  C   UNL     1       4.727   2.683  19.782  0.00  0.00    +0.000 C 
ENDROOT
BRANCH   1   3
ATOM      3  C   UNL     1       3.730   4.485  18.362  0.00  0.00    +0.000 C 
ATOM      4  O   UNL     1       2.958   4.074  17.494  0.00  0.00    +0.000 OA
ATOM      5  N   UNL     1       3.486   5.659  19.061  0.00  0.00    +0.000 N 
ATOM      6  H   UNL     1       4.060   5.846  19.874  0.00  0.00    +0.000 HD
BRANCH   5   7
ATOM      7  C   UNL     1       2.159   6.278  18.964  0.00  0.00    +0.000 C 
ATOM      8  C   UNL     1       1.544   6.529  20.347  0.00  0.00    +0.000 C 
ATOM      9  C   UNL     1       1.780   7.927  20.897  0.00  0.00    +0.000 C 
ATOM     10  C   UNL     1       1.290   8.966  19.900  0.00  0.00    +0.000 C 
ATOM     11  C   UNL     1       2.117   8.884  18.630  0.00  0.00    +0.000 C 
ATOM     12  C   UNL     1       2.121   7.488  18.002  0.00  0.00    +0.000 C 
ENDBRANCH   5   7
ENDBRANCH   1   3
BRANCH   1  13
ATOM     13  O   UNL     1       6.005   4.687  19.227  0.00  0.00    +0.000 OA
BRANCH  13  14
ATOM     14  C   UNL     1       7.084   4.908  18.412  0.00  0.00    +0.000 C 
ATOM     15  O   UNL     1       7.828   4.020  18.014  0.00  0.00    +0.000 OA
BRANCH  14  19
ATOM     16  C   UNL     1       8.544   9.803  18.035  0.00  0.00    +0.000 C 
ATOM     17  C   UNL     1       7.951   8.453  17.942  0.00  0.00    +0.000 A 
ATOM     18  C   UNL     1       8.208   7.249  18.557  0.00  0.00    +0.000 A 
ATOM     19  C   UNL     1       7.251   6.312  18.055  0.00  0.00    +0.000 A 
ATOM     20  C   UNL     1       6.496   7.026  17.132  0.00  0.00    +0.000 A 
ATOM     21  C   UNL     1       5.368   6.709  16.229  0.00  0.00    +0.000 C 
ATOM     22  O   UNL     1       6.916   8.319  17.072  0.00  0.00    +0.000 OA
ENDBRANCH  14  19
ENDBRANCH  13  14
ENDBRANCH   1  13
TORSDOF 5
ENDMDL
MODEL 7
REMARK VINA RESULT:      -6.8      1.932      2.714
REMARK  Name = 
REMARK  8 active torsions:
REMARK  status: ('A' for Active; 'I' for Inactive)
REMARK    1  A    between atoms: C_1  and  C_2
REMARK    2  A    between atoms: C_4  and  C_5
REMARK    3  A    between atoms: C_5  and  O_7
REMARK    4  A    between atoms: O_7  and  C_8
REMARK    5  A    between atoms: C_8  and  C_9
REMARK    6  A    between atoms: C_8  and  C_10
REMARK    7  A    between atoms: N_12  and  C_13
REMARK    8  A    between atoms: C_19  and  C_20
REMARK                            x       y       z     vdW  Elec       q    Type
REMARK                         _______ _______ _______ _____ _____    ______ ____
ROOT
ATOM      1  C   UNL     1       6.297   4.854  16.038  0.00  0.00    +0.000 C 
ATOM      2  C   UNL     1       5.305   5.970  15.694  0.00  0.00    +0.000 C 
ENDROOT
BRANCH   1   3
ATOM      3  C   UNL     1       5.924   4.265  17.415  0.00  0.00    +0.000 C 
ATOM      4  O   UNL     1       6.689   4.308  18.379  0.00  0.00    +0.000 OA
ATOM      5  N   UNL     1       4.678   3.658  17.498  0.00  0.00    +0.000 N 
ATOM      6  H   UNL     1       4.034   3.809  16.732  0.00  0.00    +0.000 HD
BRANCH   5   7
ATOM      7  C   UNL     1       4.149   3.305  18.819  0.00  0.00    +0.000 C 
ATOM      8  C   UNL     1       3.457   4.496  19.494  0.00  0.00    +0.000 C 
ATOM      9  C   UNL     1       1.951   4.551  19.283  0.00  0.00    +0.000 C 
ATOM     10  C   UNL     1       1.317   3.243  19.732  0.00  0.00    +0.000 C 
ATOM     11  C   UNL     1       1.809   2.109  18.851  0.00  0.00    +0.000 C 
ATOM     12  C   UNL     1       3.334   1.990  18.818  0.00  0.00    +0.000 C 
ENDBRANCH   5   7
ENDBRANCH   1   3
BRANCH   1  13
ATOM     13  O   UNL     1       6.248   3.818  15.036  0.00  0.00    +0.000 OA
BRANCH  13  14
ATOM     14  C   UNL     1       6.694   4.186  13.794  0.00  0.00    +0.000 C 
ATOM     15  O   UNL     1       7.676   4.894  13.608  0.00  0.00    +0.000 OA
BRANCH  14  19
ATOM     16  C   UNL     1       2.971   2.946  10.501  0.00  0.00    +0.000 C 
ATOM     17  C   UNL     1       4.200   3.141  11.298  0.00  0.00    +0.000 A 
ATOM     18  C   UNL     1       4.529   3.931  12.377  0.00  0.00    +0.000 A 
ATOM     19  C   UNL     1       5.888   3.635  12.711  0.00  0.00    +0.000 A 
ATOM     20  C   UNL     1       6.295   2.696  11.771  0.00  0.00    +0.000 A 
ATOM     21  C   UNL     1       7.553   1.968  11.492  0.00  0.00    +0.000 C 
ATOM     22  O   UNL     1       5.273   2.395  10.925  0.00  0.00    +0.000 OA
ENDBRANCH  14  19
ENDBRANCH  13  14
ENDBRANCH   1  13
TORSDOF 5
ENDMDL
MODEL 8
REMARK VINA RESULT:      -6.8      1.013      1.177
REMARK  Name = 
REMARK  8 active torsions:
REMARK  status: ('A' for Active; 'I' for Inactive)
REMARK    1  A    between atoms: C_1  and  C_2
REMARK    2  A    between atoms: C_4  and  C_5
REMARK    3  A    between atoms: C_5  and  O_7
REMARK    4  A    between atoms: O_7  and  C_8
REMARK    5  A    between atoms: C_8  and  C_9
REMARK    6  A    between atoms: C_8  and  C_10
REMARK    7  A    between atoms: N_12  and  C_13
REMARK    8  A    between atoms: C_19  and  C_20
REMARK                            x       y       z     vdW  Elec       q    Type
REMARK                         _______ _______ _______ _____ _____    ______ ____
ROOT
ATOM      1  C   UNL     1       6.464   4.803  17.972  0.00  0.00    +0.000 C 
ATOM      2  C   UNL     1       7.204   6.097  18.328  0.00  0.00    +0.000 C 
ENDROOT
BRANCH   1   3
ATOM      3  C   UNL     1       4.963   5.120  17.804  0.00  0.00    +0.000 C 
ATOM      4  O   UNL     1       4.520   5.706  16.815  0.00  0.00    +0.000 OA
ATOM      5  N   UNL     1       4.138   4.725  18.849  0.00  0.00    +0.000 N 
ATOM      6  H   UNL     1       4.530   4.099  19.542  0.00  0.00    +0.000 HD
BRANCH   5   7
ATOM      7  C   UNL     1       2.685   4.758  18.656  0.00  0.00    +0.000 C 
ATOM      8  C   UNL     1       2.199   3.599  17.776  0.00  0.00    +0.000 C 
ATOM      9  C   UNL     1       1.725   2.377  18.549  0.00  0.00    +0.000 C 
ATOM     10  C   UNL     1       0.646   2.780  19.543  0.00  0.00    +0.000 C 
ATOM     11  C   UNL     1       1.234   3.716  20.583  0.00  0.00    +0.000 C 
ATOM     12  C   UNL     1       1.900   4.952  19.974  0.00  0.00    +0.000 C 
ENDBRANCH   5   7
ENDBRANCH   1   3
BRANCH   1  13
ATOM     13  O   UNL     1       6.986   4.251  16.746  0.00  0.00    +0.000 OA
BRANCH  13  14
ATOM     14  C   UNL     1       7.214   5.161  15.748  0.00  0.00    +0.000 C 
ATOM     15  O   UNL     1       7.669   6.281  15.942  0.00  0.00    +0.000 OA
BRANCH  14  19
ATOM     16  C   UNL     1       5.173   2.722  11.733  0.00  0.00    +0.000 C 
ATOM     17  C   UNL     1       5.919   3.547  12.705  0.00  0.00    +0.000 A 
ATOM     18  C   UNL     1       5.825   3.747  14.064  0.00  0.00    +0.000 A 
ATOM     19  C   UNL     1       6.871   4.654  14.424  0.00  0.00    +0.000 A 
ATOM     20  C   UNL     1       7.508   4.965  13.229  0.00  0.00    +0.000 A 
ATOM     21  C   UNL     1       8.637   5.838  12.838  0.00  0.00    +0.000 C 
ATOM     22  O   UNL     1       6.936   4.290  12.195  0.00  0.00    +0.000 OA
ENDBRANCH  14  19
ENDBRANCH  13  14
ENDBRANCH   1  13
TORSDOF 5
ENDMDL
MODEL 9
REMARK VINA RESULT:      -6.7      1.816      6.369
REMARK  Name = 
REMARK  8 active torsions:
REMARK  status: ('A' for Active; 'I' for Inactive)
REMARK    1  A    between atoms: C_1  and  C_2
REMARK    2  A    between atoms: C_4  and  C_5
REMARK    3  A    between atoms: C_5  and  O_7
REMARK    4  A    between atoms: O_7  and  C_8
REMARK    5  A    between atoms: C_8  and  C_9
REMARK    6  A    between atoms: C_8  and  C_10
REMARK    7  A    between atoms: N_12  and  C_13
REMARK    8  A    between atoms: C_19  and  C_20
REMARK                            x       y       z     vdW  Elec       q    Type
REMARK                         _______ _______ _______ _____ _____    ______ ____
ROOT
ATOM      1  C   UNL     1       6.414   7.103  17.151  0.00  0.00    +0.000 C 
ATOM      2  C   UNL     1       7.553   7.964  17.708  0.00  0.00    +0.000 C 
ENDROOT
BRANCH   1   3
ATOM      3  C   UNL     1       7.021   5.858  16.469  0.00  0.00    +0.000 C 
ATOM      4  O   UNL     1       7.677   5.021  17.091  0.00  0.00    +0.000 OA
ATOM      5  N   UNL     1       6.803   5.748  15.102  0.00  0.00    +0.000 N 
ATOM      6  H   UNL     1       6.117   6.366  14.688  0.00  0.00    +0.000 HD
BRANCH   5   7
ATOM      7  C   UNL     1       7.123   4.482  14.434  0.00  0.00    +0.000 C 
ATOM      8  C   UNL     1       5.910   3.543  14.380  0.00  0.00    +0.000 C 
ATOM      9  C   UNL     1       5.107   3.627  13.091  0.00  0.00    +0.000 C 
ATOM     10  C   UNL     1       6.018   3.389  11.896  0.00  0.00    +0.000 C 
ATOM     11  C   UNL     1       7.044   4.504  11.808  0.00  0.00    +0.000 C 
ATOM     12  C   UNL     1       7.863   4.673  13.090  0.00  0.00    +0.000 C 
ENDBRANCH   5   7
ENDBRANCH   1   3
BRANCH   1  13
ATOM     13  O   UNL     1       5.531   6.694  18.215  0.00  0.00    +0.000 OA
BRANCH  13  14
ATOM     14  C   UNL     1       4.198   6.695  17.900  0.00  0.00    +0.000 C 
ATOM     15  O   UNL     1       3.610   7.665  17.437  0.00  0.00    +0.000 OA
BRANCH  14  19
ATOM     16  C   UNL     1       2.538   1.850  17.804  0.00  0.00    +0.000 C 
ATOM     17  C   UNL     1       2.865   3.269  18.057  0.00  0.00    +0.000 A 
ATOM     18  C   UNL     1       3.708   4.179  17.461  0.00  0.00    +0.000 A 
ATOM     19  C   UNL     1       3.548   5.416  18.161  0.00  0.00    +0.000 A 
ATOM     20  C   UNL     1       2.628   5.145  19.167  0.00  0.00    +0.000 A 
ATOM     21  C   UNL     1       2.014   5.925  20.265  0.00  0.00    +0.000 C 
ATOM     22  O   UNL     1       2.214   3.851  19.097  0.00  0.00    +0.000 OA
ENDBRANCH  14  19
ENDBRANCH  13  14
ENDBRANCH   1  13
TORSDOF 5
ENDMDL
