MODEL 1
REMARK VINA RESULT:      -7.3      0.000      0.000
REMARK  Name = 
REMARK  8 active torsions:
REMARK  status: ('A' for Active; 'I' for Inactive)
REMARK    1  A    between atoms: C_1  and  C_2
REMARK    2  A    between atoms: N_5  and  C_6
REMARK    3  A    between atoms: C_6  and  C_7
REMARK    4  A    between atoms: C_7  and  N_8
REMARK    5  A    between atoms: N_8  and  C_9
REMARK    6  A    between atoms: C_9  and  C_10
REMARK    7  A    between atoms: C_12  and  C_13
REMARK    8  A    between atoms: C_19  and  C_20
REMARK                            x       y       z     vdW  Elec       q    Type
REMARK                         _______ _______ _______ _____ _____    ______ ____
ROOT
ATOM      1  C   UNL     1       4.706   3.846  19.368  0.00  0.00    +0.000 C 
ENDROOT
BRANCH   1   2
ATOM      2  C   UNL     1       3.580   4.720  19.799  0.00  0.00    +0.000 A 
ATOM      3  N   UNL     1       3.478   6.034  19.383  0.00  0.00    +0.000 NA
ATOM      4  C   UNL     1       2.359   6.471  19.931  0.00  0.00    +0.000 A 
ATOM      5  O   UNL     1       1.719   5.525  20.693  0.00  0.00    +0.000 OA
ATOM      6  C   UNL     1       2.489   4.407  20.577  0.00  0.00    +0.000 A 
ATOM      7  C   UNL     1       2.016   3.181  21.241  0.00  0.00    +0.000 C 
BRANCH   4   8
ATOM      8  C   UNL     1       1.810   7.850  19.728  0.00  0.00    +0.000 A 
ATOM      9  C   UNL     1       1.745   8.553  18.489  0.00  0.00    +0.000 A 
ATOM     10  C   UNL     1       1.168   9.798  18.633  0.00  0.00    +0.000 A 
ATOM     11  S   UNL     1       0.724  10.119  20.255  0.00  0.00    +0.000 S 
ATOM     12  C   UNL     1       1.280   8.584  20.768  0.00  0.00    +0.000 A 
ENDBRANCH   4   8
ENDBRANCH   1   2
BRANCH   1  13
ATOM     13  N   UNL     1       5.951   4.624  19.326  0.00  0.00    +0.000 NA
ATOM     14  H   UNL     1       5.911   5.341  20.051  0.00  0.00    +0.000 HD
BRANCH  13  15
ATOM     15  C   UNL     1       6.171   5.238  18.006  0.00  0.00    +0.000 C 
BRANCH  15  16
ATOM     16  C   UNL     1       7.312   4.624  17.187  0.00  0.00    +0.000 C 
BRANCH  16  21
ATOM     17  C   UNL     1       5.535   3.359  12.671  0.00  0.00    +0.000 C 
ATOM     18  C   UNL     1       6.258   4.002  13.790  0.00  0.00    +0.000 A 
ATOM     19  C   UNL     1       7.246   5.008  13.721  0.00  0.00    +0.000 A 
ATOM     20  N   UNL     1       7.700   5.367  14.923  0.00  0.00    +0.000 NA
ATOM     21  N   UNL     1       7.011   4.580  15.769  0.00  0.00    +0.000 N 
ATOM     22  C   UNL     1       6.130   3.750  15.141  0.00  0.00    +0.000 A 
ENDBRANCH  16  21
ENDBRANCH  15  16
ENDBRANCH  13  15
ENDBRANCH   1  13
TORSDOF 6
ENDMDL
MODEL 2
REMARK VINA RESULT:      -7.2      3.321      7.134
REMARK  Name = 
REMARK  8 active torsions:
REMARK  status: ('A' for Active; 'I' for Inactive)
REMARK    1  A    between atoms: C_1  and  C_2
REMARK    2  A    between atoms: N_5  and  C_6
REMARK    3  A    between atoms: C_6  and  C_7
REMARK    4  A    between atoms: C_7  and  N_8
REMARK    5  A    between atoms: N_8  and  C_9
REMARK    6  A    between atoms: C_9  and  C_10
REMARK    7  A    between atoms: C_12  and  C_13
REMARK    8  A    between atoms: C_19  and  C_20
REMARK                            x       y       z     vdW  Elec       q    Type
REMARK                         _______ _______ _______ _____ _____    ______ ____
ROOT
ATOM      1  C   UNL     1       6.215   4.857  19.101  0.00  0.00    +0.000 C 
ENDROOT
BRANCH   1   2
ATOM      2  C   UNL     1       6.676   5.225  17.734  0.00  0.00    +0.000 A 
ATOM      3  N   UNL     1       6.398   4.436  16.635  0.00  0.00    +0.000 NA
ATOM      4  C   UNL     1       6.928   5.086  15.615  0.00  0.00    +0.000 A 
ATOM      5  O   UNL     1       7.549   6.256  15.977  0.00  0.00    +0.000 OA
ATOM      6  C   UNL     1       7.356   6.349  17.322  0.00  0.00    +0.000 A 
ATOM      7  C   UNL     1       7.858   7.555  18.002  0.00  0.00    +0.000 C 
BRANCH   4   8
ATOM      8  C   UNL     1       6.845   4.623  14.193  0.00  0.00    +0.000 A 
ATOM      9  C   UNL     1       7.645   5.092  13.110  0.00  0.00    +0.000 A 
ATOM     10  C   UNL     1       7.337   4.453  11.927  0.00  0.00    +0.000 A 
ATOM     11  S   UNL     1       6.079   3.308  12.122  0.00  0.00    +0.000 S 
ATOM     12  C   UNL     1       5.958   3.644  13.796  0.00  0.00    +0.000 A 
ENDBRANCH   4   8
ENDBRANCH   1   2
BRANCH   1  13
ATOM     13  N   UNL     1       5.515   3.567  19.059  0.00  0.00    +0.000 NA
ATOM     14  H   UNL     1       6.036   2.933  18.453  0.00  0.00    +0.000 HD
BRANCH  13  15
ATOM     15  C   UNL     1       4.128   3.710  18.582  0.00  0.00    +0.000 C 
BRANCH  15  16
ATOM     16  C   UNL     1       3.122   4.170  19.643  0.00  0.00    +0.000 C 
BRANCH  16  21
ATOM     17  C   UNL     1       2.313   8.736  17.733  0.00  0.00    +0.000 C 
ATOM     18  C   UNL     1       2.373   7.548  18.613  0.00  0.00    +0.000 A 
ATOM     19  C   UNL     1       1.990   7.453  19.970  0.00  0.00    +0.000 A 
ATOM     20  N   UNL     1       2.177   6.231  20.472  0.00  0.00    +0.000 NA
ATOM     21  N   UNL     1       2.695   5.541  19.440  0.00  0.00    +0.000 N 
ATOM     22  C   UNL     1       2.825   6.282  18.303  0.00  0.00    +0.000 A 
ENDBRANCH  16  21
ENDBRANCH  15  16
ENDBRANCH  13  15
ENDBRANCH   1  13
TORSDOF 6
ENDMDL
MODEL 3
REMARK VINA RESULT:      -7.1      0.622      1.052
REMARK  Name = 
REMARK  8 active torsions:
REMARK  status: ('A' for Active; 'I' for Inactive)
REMARK    1  A    between atoms: C_1  and  C_2
REMARK    2  A    between atoms: N_5  and  C_6
REMARK    3  A    between atoms: C_6  and  C_7
REMARK    4  A    between atoms: C_7  and  N_8
REMARK    5  A    between atoms: N_8  and  C_9
REMARK    6  A    between atoms: C_9  and  C_10
REMARK    7  A    between atoms: C_12  and  C_13
REMARK    8  A    between atoms: C_19  and  C_20
REMARK                            x       y       z     vdW  Elec       q    Type
REMARK                         _______ _______ _______ _____ _____    ______ ____
ROOT
ATOM      1  C   UNL     1       4.631   3.941  18.891  0.00  0.00    +0.000 C 
ENDROOT
BRANCH   1   2
ATOM      2  C   UNL     1       3.568   4.742  19.558  0.00  0.00    +0.000 A 
ATOM      3  N   UNL     1       3.377   6.079  19.272  0.00  0.00    +0.000 NA
ATOM      4  C   UNL     1       2.346   6.436  20.017  0.00  0.00    +0.000 A 
ATOM      5  O   UNL     1       1.850   5.413  20.787  0.00  0.00    +0.000 OA
ATOM      6  C   UNL     1       2.615   4.333  20.464  0.00  0.00    +0.000 A 
ATOM      7  C   UNL     1       2.274   3.044  21.089  0.00  0.00    +0.000 C 
BRANCH   4   8
ATOM      8  C   UNL     1       1.746   7.808  20.014  0.00  0.00    +0.000 A 
ATOM      9  C   UNL     1       1.279   8.522  21.157  0.00  0.00    +0.000 A 
ATOM     10  C   UNL     1       0.798   9.771  20.824  0.00  0.00    +0.000 A 
ATOM     11  S   UNL     1       0.894  10.070  19.141  0.00  0.00    +0.000 S 
ATOM     12  C   UNL     1       1.604   8.539  18.854  0.00  0.00    +0.000 A 
ENDBRANCH   4   8
ENDBRANCH   1   2
BRANCH   1  13
ATOM     13  N   UNL     1       5.940   4.566  19.119  0.00  0.00    +0.000 NA
ATOM     14  H   UNL     1       5.794   5.484  19.540  0.00  0.00    +0.000 HD
BRANCH  13  15
ATOM     15  C   UNL     1       6.715   4.688  17.873  0.00  0.00    +0.000 C 
BRANCH  15  16
ATOM     16  C   UNL     1       6.136   5.664  16.842  0.00  0.00    +0.000 C 
BRANCH  16  21
ATOM     17  C   UNL     1       5.734   3.264  12.457  0.00  0.00    +0.000 C 
ATOM     18  C   UNL     1       6.172   4.129  13.574  0.00  0.00    +0.000 A 
ATOM     19  C   UNL     1       7.344   4.913  13.657  0.00  0.00    +0.000 A 
ATOM     20  N   UNL     1       7.439   5.575  14.811  0.00  0.00    +0.000 NA
ATOM     21  N   UNL     1       6.331   5.206  15.480  0.00  0.00    +0.000 N 
ATOM     22  C   UNL     1       5.537   4.347  14.780  0.00  0.00    +0.000 A 
ENDBRANCH  16  21
ENDBRANCH  15  16
ENDBRANCH  13  15
ENDBRANCH   1  13
TORSDOF 6
ENDMDL
MODEL 4
REMARK VINA RESULT:      -7.1      1.716      2.795
REMARK  Name = 
REMARK  8 active torsions:
REMARK  status: ('A' for Active; 'I' for Inactive)
REMARK    1  A    between atoms: C_1  and  C_2
REMARK    2  A    between atoms: N_5  and  C_6
REMARK    3  A    between atoms: C_6  and  C_7
REMARK    4  A    between atoms: C_7  and  N_8
REMARK    5  A    between atoms: N_8  and  C_9
REMARK    6  A    between atoms: C_9  and  C_10
REMARK    7  A    between atoms: C_12  and  C_13
REMARK    8  A    between atoms: C_19  and  C_20
REMARK                            x       y       z     vdW  Elec       q    Type
REMARK                         _______ _______ _______ _____ _____    ______ ____
ROOT
ATOM      1  C   UNL     1       4.078   3.631  18.882  0.00  0.00    +0.000 C 
ENDROOT
BRANCH   1   2
ATOM      2  C   UNL     1       3.221   4.680  19.499  0.00  0.00    +0.000 A 
ATOM      3  N   UNL     1       3.116   5.946  18.957  0.00  0.00    +0.000 NA
ATOM      4  C   UNL     1       2.260   6.575  19.741  0.00  0.00    +0.000 A 
ATOM      5  O   UNL     1       1.800   5.801  20.777  0.00  0.00    +0.000 OA
ATOM      6  C   UNL     1       2.394   4.589  20.596  0.00  0.00    +0.000 A 
ATOM      7  C   UNL     1       2.037   3.507  21.529  0.00  0.00    +0.000 C 
BRANCH   4   8
ATOM      8  C   UNL     1       1.803   7.985  19.522  0.00  0.00    +0.000 A 
ATOM      9  C   UNL     1       1.871   8.707  18.294  0.00  0.00    +0.000 A 
ATOM     10  C   UNL     1       1.351   9.979  18.415  0.00  0.00    +0.000 A 
ATOM     11  S   UNL     1       0.802  10.302  20.004  0.00  0.00    +0.000 S 
ATOM     12  C   UNL     1       1.234   8.732  20.531  0.00  0.00    +0.000 A 
ENDBRANCH   4   8
ENDBRANCH   1   2
BRANCH   1  13
ATOM     13  N   UNL     1       3.724   3.469  17.466  0.00  0.00    +0.000 NA
ATOM     14  H   UNL     1       3.724   2.473  17.242  0.00  0.00    +0.000 HD
BRANCH  13  15
ATOM     15  C   UNL     1       4.650   4.196  16.581  0.00  0.00    +0.000 C 
BRANCH  15  16
ATOM     16  C   UNL     1       6.137   3.964  16.869  0.00  0.00    +0.000 C 
BRANCH  16  21
ATOM     17  C   UNL     1       8.029   8.510  17.820  0.00  0.00    +0.000 C 
ATOM     18  C   UNL     1       7.617   7.092  17.901  0.00  0.00    +0.000 A 
ATOM     19  C   UNL     1       7.921   6.156  18.914  0.00  0.00    +0.000 A 
ATOM     20  N   UNL     1       7.394   4.954  18.678  0.00  0.00    +0.000 NA
ATOM     21  N   UNL     1       6.761   5.111  17.501  0.00  0.00    +0.000 N 
ATOM     22  C   UNL     1       6.859   6.374  16.998  0.00  0.00    +0.000 A 
ENDBRANCH  16  21
ENDBRANCH  15  16
ENDBRANCH  13  15
ENDBRANCH   1  13
TORSDOF 6
ENDMDL
MODEL 5
REMARK VINA RESULT:      -7.1      1.285      1.435
REMARK  Name = 
REMARK  8 active torsions:
REMARK  status: ('A' for Active; 'I' for Inactive)
REMARK    1  A    between atoms: C_1  and  C_2
REMARK    2  A    between atoms: N_5  and  C_6
REMARK    3  A    between atoms: C_6  and  C_7
REMARK    4  A    between atoms: C_7  and  N_8
REMARK    5  A    between atoms: N_8  and  C_9
REMARK    6  A    between atoms: C_9  and  C_10
REMARK    7  A    between atoms: C_12  and  C_13
REMARK    8  A    between atoms: C_19  and  C_20
REMARK                            x       y       z     vdW  Elec       q    Type
REMARK                         _______ _______ _______ _____ _____    ______ ____
ROOT
ATOM      1  C   UNL     1       5.008   3.856  19.320  0.00  0.00    +0.000 C 
ENDROOT
BRANCH   1   2
ATOM      2  C   UNL     1       3.841   4.683  18.905  0.00  0.00    +0.000 A 
ATOM      3  N   UNL     1       3.681   5.985  19.338  0.00  0.00    +0.000 NA
ATOM      4  C   UNL     1       2.573   6.398  18.750  0.00  0.00    +0.000 A 
ATOM      5  O   UNL     1       1.985   5.440  17.961  0.00  0.00    +0.000 OA
ATOM      6  C   UNL     1       2.816   4.364  18.043  0.00  0.00    +0.000 A 
ATOM      7  C   UNL     1       2.482   3.180  17.235  0.00  0.00    +0.000 C 
BRANCH   4   8
ATOM      8  C   UNL     1       2.013   7.779  18.895  0.00  0.00    +0.000 A 
ATOM      9  C   UNL     1       1.890   8.748  17.856  0.00  0.00    +0.000 A 
ATOM     10  C   UNL     1       1.317   9.919  18.308  0.00  0.00    +0.000 A 
ATOM     11  S   UNL     1       0.947   9.852  19.979  0.00  0.00    +0.000 S 
ATOM     12  C   UNL     1       1.529   8.247  20.099  0.00  0.00    +0.000 A 
ENDBRANCH   4   8
ENDBRANCH   1   2
BRANCH   1  13
ATOM     13  N   UNL     1       5.998   3.817  18.236  0.00  0.00    +0.000 NA
ATOM     14  H   UNL     1       6.554   2.967  18.332  0.00  0.00    +0.000 HD
BRANCH  13  15
ATOM     15  C   UNL     1       6.870   5.005  18.245  0.00  0.00    +0.000 C 
BRANCH  15  16
ATOM     16  C   UNL     1       6.557   6.046  17.165  0.00  0.00    +0.000 C 
BRANCH  16  21
ATOM     17  C   UNL     1       5.244   3.570  13.007  0.00  0.00    +0.000 C 
ATOM     18  C   UNL     1       5.967   4.357  14.029  0.00  0.00    +0.000 A 
ATOM     19  C   UNL     1       7.305   4.809  13.990  0.00  0.00    +0.000 A 
ATOM     20  N   UNL     1       7.647   5.494  15.083  0.00  0.00    +0.000 NA
ATOM     21  N   UNL     1       6.532   5.470  15.835  0.00  0.00    +0.000 N 
ATOM     22  C   UNL     1       5.496   4.808  15.245  0.00  0.00    +0.000 A 
ENDBRANCH  16  21
ENDBRANCH  15  16
ENDBRANCH  13  15
ENDBRANCH   1  13
TORSDOF 6
ENDMDL
MODEL 6
REMARK VINA RESULT:      -7.1      3.355      7.315
REMARK  Name = 
REMARK  8 active torsions:
REMARK  status: ('A' for Active; 'I' for Inactive)
REMARK    1  A    between atoms: C_1  and  C_2
REMARK    2  A    between atoms: N_5  and  C_6
REMARK    3  A    between atoms: C_6  and  C_7
REMARK    4  A    between atoms: C_7  and  N_8
REMARK    5  A    between atoms: N_8  and  C_9
REMARK    6  A    between atoms: C_9  and  C_10
REMARK    7  A    between atoms: C_12  and  C_13
REMARK    8  A    between atoms: C_19  and  C_20
REMARK                            x       y       z     vdW  Elec       q    Type
REMARK                         _______ _______ _______ _____ _____    ______ ____
ROOT
ATOM      1  C   UNL     1       5.907   4.639  19.085  0.00  0.00    +0.000 C 
ENDROOT
BRANCH   1   2
ATOM      2  C   UNL     1       6.493   5.027  17.772  0.00  0.00    +0.000 A 
ATOM      3  N   UNL     1       6.209   4.331  16.614  0.00  0.00    +0.000 NA
ATOM      4  C   UNL     1       6.870   4.973  15.668  0.00  0.00    +0.000 A 
ATOM      5  O   UNL     1       7.583   6.049  16.136  0.00  0.00    +0.000 OA
ATOM      6  C   UNL     1       7.312   6.092  17.470  0.00  0.00    +0.000 A 
ATOM      7  C   UNL     1       7.891   7.199  18.249  0.00  0.00    +0.000 C 
BRANCH   4   8
ATOM      8  C   UNL     1       6.834   4.598  14.218  0.00  0.00    +0.000 A 
ATOM      9  C   UNL     1       7.630   5.171  13.183  0.00  0.00    +0.000 A 
ATOM     10  C   UNL     1       7.373   4.594  11.957  0.00  0.00    +0.000 A 
ATOM     11  S   UNL     1       6.168   3.382  12.054  0.00  0.00    +0.000 S 
ATOM     12  C   UNL     1       6.002   3.606  13.743  0.00  0.00    +0.000 A 
ENDBRANCH   4   8
ENDBRANCH   1   2
BRANCH   1  13
ATOM     13  N   UNL     1       5.165   3.380  18.944  0.00  0.00    +0.000 NA
ATOM     14  H   UNL     1       4.781   3.332  18.000  0.00  0.00    +0.000 HD
BRANCH  13  15
ATOM     15  C   UNL     1       4.090   3.261  19.944  0.00  0.00    +0.000 C 
BRANCH  15  16
ATOM     16  C   UNL     1       2.703   3.699  19.459  0.00  0.00    +0.000 C 
BRANCH  16  21
ATOM     17  C   UNL     1       1.169   8.179  21.112  0.00  0.00    +0.000 C 
ATOM     18  C   UNL     1       1.783   7.079  20.337  0.00  0.00    +0.000 A 
ATOM     19  C   UNL     1       2.450   7.160  19.095  0.00  0.00    +0.000 A 
ATOM     20  N   UNL     1       2.885   5.973  18.667  0.00  0.00    +0.000 NA
ATOM     21  N   UNL     1       2.485   5.123  19.630  0.00  0.00    +0.000 N 
ATOM     22  C   UNL     1       1.827   5.736  20.655  0.00  0.00    +0.000 A 
ENDBRANCH  16  21
ENDBRANCH  15  16
ENDBRANCH  13  15
ENDBRANCH   1  13
TORSDOF 6
ENDMDL
MODEL 7
REMARK VINA RESULT:      -7.1      3.726      7.164
REMARK  Name = 
REMARK  8 active torsions:
REMARK  status: ('A' for Active; 'I' for Inactive)
REMARK    1  A    between atoms: C_1  and  C_2
REMARK    2  A    between atoms: N_5  and  C_6
REMARK    3  A    between atoms: C_6  and  C_7
REMARK    4  A    between atoms: C_7  and  N_8
REMARK    5  A    between atoms: N_8  and  C_9
REMARK    6  A    between atoms: C_9  and  C_10
REMARK    7  A    between atoms: C_12  and  C_13
REMARK    8  A    between atoms: C_19  and  C_20
REMARK                            x       y       z     vdW  Elec       q    Type
REMARK                         _______ _______ _______ _____ _____    ______ ____
ROOT
ATOM      1  C   UNL     1       6.114   4.913  19.078  0.00  0.00    +0.000 C 
ENDROOT
BRANCH   1   2
ATOM      2  C   UNL     1       6.592   5.257  17.710  0.00  0.00    +0.000 A 
ATOM      3  N   UNL     1       6.311   4.458  16.619  0.00  0.00    +0.000 NA
ATOM      4  C   UNL     1       6.858   5.087  15.596  0.00  0.00    +0.000 A 
ATOM      5  O   UNL     1       7.493   6.252  15.948  0.00  0.00    +0.000 OA
ATOM      6  C   UNL     1       7.291   6.366  17.290  0.00  0.00    +0.000 A 
ATOM      7  C   UNL     1       7.805   7.573  17.959  0.00  0.00    +0.000 C 
BRANCH   4   8
ATOM      8  C   UNL     1       6.780   4.608  14.178  0.00  0.00    +0.000 A 
ATOM      9  C   UNL     1       7.618   5.027  13.103  0.00  0.00    +0.000 A 
ATOM     10  C   UNL     1       7.303   4.385  11.924  0.00  0.00    +0.000 A 
ATOM     11  S   UNL     1       5.995   3.296  12.112  0.00  0.00    +0.000 S 
ATOM     12  C   UNL     1       5.860   3.662  13.779  0.00  0.00    +0.000 A 
ENDBRANCH   4   8
ENDBRANCH   1   2
BRANCH   1  13
ATOM     13  N   UNL     1       4.887   5.662  19.379  0.00  0.00    +0.000 NA
ATOM     14  H   UNL     1       4.267   5.064  19.925  0.00  0.00    +0.000 HD
BRANCH  13  15
ATOM     15  C   UNL     1       4.211   6.123  18.154  0.00  0.00    +0.000 C 
BRANCH  15  16
ATOM     16  C   UNL     1       2.922   5.373  17.804  0.00  0.00    +0.000 C 
BRANCH  16  21
ATOM     17  C   UNL     1       1.457   2.609  21.724  0.00  0.00    +0.000 C 
ATOM     18  C   UNL     1       2.044   3.078  20.449  0.00  0.00    +0.000 A 
ATOM     19  C   UNL     1       2.853   2.352  19.548  0.00  0.00    +0.000 A 
ATOM     20  N   UNL     1       3.220   3.077  18.489  0.00  0.00    +0.000 NA
ATOM     21  N   UNL     1       2.657   4.277  18.716  0.00  0.00    +0.000 N 
ATOM     22  C   UNL     1       1.937   4.327  19.873  0.00  0.00    +0.000 A 
ENDBRANCH  16  21
ENDBRANCH  15  16
ENDBRANCH  13  15
ENDBRANCH   1  13
TORSDOF 6
ENDMDL
MODEL 8
REMARK VINA RESULT:      -6.9      1.312      1.862
REMARK  Name = 
REMARK  8 active torsions:
REMARK  status: ('A' for Active; 'I' for Inactive)
REMARK    1  A    between atoms: C_1  and  C_2
REMARK    2  A    between atoms: N_5  and  C_6
REMARK    3  A    between atoms: C_6  and  C_7
REMARK    4  A    between atoms: C_7  and  N_8
REMARK    5  A    between atoms: N_8  and  C_9
REMARK    6  A    between atoms: C_9  and  C_10
REMARK    7  A    between atoms: C_12  and  C_13
REMARK    8  A    between atoms: C_19  and  C_20
REMARK                            x       y       z     vdW  Elec       q    Type
REMARK                         _______ _______ _______ _____ _____    ______ ____
ROOT
ATOM      1  C   UNL     1       3.377   5.898  17.784  0.00  0.00    +0.000 C 
ENDROOT
BRANCH   1   2
ATOM      2  C   UNL     1       2.663   6.353  19.009  0.00  0.00    +0.000 A 
ATOM      3  N   UNL     1       2.229   7.656  19.156  0.00  0.00    +0.000 NA
ATOM      4  C   UNL     1       1.624   7.676  20.330  0.00  0.00    +0.000 A 
ATOM      5  O   UNL     1       1.642   6.463  20.973  0.00  0.00    +0.000 OA
ATOM      6  C   UNL     1       2.278   5.622  20.110  0.00  0.00    +0.000 A 
ATOM      7  C   UNL     1       2.394   4.206  20.497  0.00  0.00    +0.000 C 
BRANCH   4   8
ATOM      8  C   UNL     1       0.955   8.885  20.907  0.00  0.00    +0.000 A 
ATOM      9  C   UNL     1       0.357   8.977  22.199  0.00  0.00    +0.000 A 
ATOM     10  C   UNL     1      -0.160  10.233  22.439  0.00  0.00    +0.000 A 
ATOM     11  S   UNL     1       0.061  11.287  21.107  0.00  0.00    +0.000 S 
ATOM     12  C   UNL     1       0.872  10.073  20.213  0.00  0.00    +0.000 A 
ENDBRANCH   4   8
ENDBRANCH   1   2
BRANCH   1  13
ATOM     13  N   UNL     1       4.824   6.087  17.953  0.00  0.00    +0.000 NA
ATOM     14  H   UNL     1       5.222   6.372  17.058  0.00  0.00    +0.000 HD
BRANCH  13  15
ATOM     15  C   UNL     1       5.484   4.866  18.446  0.00  0.00    +0.000 C 
BRANCH  15  16
ATOM     16  C   UNL     1       6.806   4.519  17.753  0.00  0.00    +0.000 C 
BRANCH  16  21
ATOM     17  C   UNL     1       5.804   3.500  12.946  0.00  0.00    +0.000 C 
ATOM     18  C   UNL     1       6.290   4.110  14.203  0.00  0.00    +0.000 A 
ATOM     19  C   UNL     1       7.149   5.220  14.353  0.00  0.00    +0.000 A 
ATOM     20  N   UNL     1       7.393   5.512  15.632  0.00  0.00    +0.000 NA
ATOM     21  N   UNL     1       6.701   4.577  16.307  0.00  0.00    +0.000 N 
ATOM     22  C   UNL     1       6.018   3.719  15.498  0.00  0.00    +0.000 A 
ENDBRANCH  16  21
ENDBRANCH  15  16
ENDBRANCH  13  15
ENDBRANCH   1  13
TORSDOF 6
ENDMDL
MODEL 9
REMARK VINA RESULT:      -6.9      0.925      1.024
REMARK  Name = 
REMARK  8 active torsions:
REMARK  status: ('A' for Active; 'I' for Inactive)
REMARK    1  A    between atoms: C_1  and  C_2
REMARK    2  A    between atoms: N_5  and  C_6
REMARK    3  A    between atoms: C_6  and  C_7
REMARK    4  A    between atoms: C_7  and  N_8
REMARK    5  A    between atoms: N_8  and  C_9
REMARK    6  A    between atoms: C_9  and  C_10
REMARK    7  A    between atoms: C_12  and  C_13
REMARK    8  A    between atoms: C_19  and  C_20
REMARK                            x       y       z     vdW  Elec       q    Type
REMARK                         _______ _______ _______ _____ _____    ______ ____
ROOT
ATOM      1  C   UNL     1       4.532   3.427  19.529  0.00  0.00    +0.000 C 
ENDROOT
BRANCH   1   2
ATOM      2  C   UNL     1       3.533   4.482  19.857  0.00  0.00    +0.000 A 
ATOM      3  N   UNL     1       3.516   5.698  19.203  0.00  0.00    +0.000 NA
ATOM      4  C   UNL     1       2.493   6.346  19.730  0.00  0.00    +0.000 A 
ATOM      5  O   UNL     1       1.837   5.632  20.702  0.00  0.00    +0.000 OA
ATOM      6  C   UNL     1       2.488   4.436  20.753  0.00  0.00    +0.000 A 
ATOM      7  C   UNL     1       1.964   3.413  21.672  0.00  0.00    +0.000 C 
BRANCH   4   8
ATOM      8  C   UNL     1       2.059   7.714  19.301  0.00  0.00    +0.000 A 
ATOM      9  C   UNL     1       2.305   8.313  18.030  0.00  0.00    +0.000 A 
ATOM     10  C   UNL     1       1.758   9.576  17.942  0.00  0.00    +0.000 A 
ATOM     11  S   UNL     1       0.969  10.040  19.389  0.00  0.00    +0.000 S 
ATOM     12  C   UNL     1       1.334   8.542  20.132  0.00  0.00    +0.000 A 
ENDBRANCH   4   8
ENDBRANCH   1   2
BRANCH   1  13
ATOM     13  N   UNL     1       5.322   3.839  18.361  0.00  0.00    +0.000 NA
ATOM     14  H   UNL     1       5.578   3.006  17.831  0.00  0.00    +0.000 HD
BRANCH  13  15
ATOM     15  C   UNL     1       6.527   4.592  18.752  0.00  0.00    +0.000 C 
BRANCH  15  16
ATOM     16  C   UNL     1       7.185   5.393  17.623  0.00  0.00    +0.000 C 
BRANCH  16  21
ATOM     17  C   UNL     1       6.354   3.733  12.964  0.00  0.00    +0.000 C 
ATOM     18  C   UNL     1       6.252   4.406  14.278  0.00  0.00    +0.000 A 
ATOM     19  C   UNL     1       5.274   5.330  14.705  0.00  0.00    +0.000 A 
ATOM     20  N   UNL     1       5.476   5.751  15.955  0.00  0.00    +0.000 NA
ATOM     21  N   UNL     1       6.596   5.106  16.329  0.00  0.00    +0.000 N 
ATOM     22  C   UNL     1       7.095   4.284  15.363  0.00  0.00    +0.000 A 
ENDBRANCH  16  21
ENDBRANCH  15  16
ENDBRANCH  13  15
ENDBRANCH   1  13
TORSDOF 6
ENDMDL
