MODEL 1
REMARK VINA RESULT:      -7.7      0.000      0.000
REMARK  Name = 
REMARK  3 active torsions:
REMARK  status: ('A' for Active; 'I' for Inactive)
REMARK    1  A    between atoms: C_5  and  C_6
REMARK    2  A    between atoms: C_6  and  N_7
REMARK    3  A    between atoms: C_14  and  C_15
REMARK                            x       y       z     vdW  Elec       q    Type
REMARK                         _______ _______ _______ _____ _____    ______ ____
ROOT
ATOM      1  N   UNL     1       1.251   7.133  20.551  0.00  0.00    +0.000 NA
ATOM      2  C   UNL     1       2.264   7.832  19.752  0.00  0.00    +0.000 C 
ATOM      3  C   UNL     1       2.550   7.104  18.441  0.00  0.00    +0.000 C 
ATOM      4  C   UNL     1       2.974   5.655  18.705  0.00  0.00    +0.000 C 
ATOM      5  C   UNL     1       1.897   4.957  19.537  0.00  0.00    +0.000 C 
ATOM      6  C   UNL     1       1.605   5.738  20.824  0.00  0.00    +0.000 C 
ATOM      7  C   UNL     1       3.304   4.915  17.421  0.00  0.00    +0.000 C 
ATOM      8  C   UNL     1       4.774   5.176  17.390  0.00  0.00    +0.000 C 
ATOM      9  N   UNL     1       5.276   5.556  18.522  0.00  0.00    +0.000 NA
ATOM     10  O   UNL     1       4.211   5.639  19.442  0.00  0.00    +0.000 OA
ENDROOT
BRANCH   8  11
ATOM     11  C   UNL     1       5.591   4.988  16.177  0.00  0.00    +0.000 A 
ATOM     12  C   UNL     1       5.096   4.232  15.112  0.00  0.00    +0.000 A 
ATOM     13  C   UNL     1       5.882   4.042  13.979  0.00  0.00    +0.000 A 
ATOM     14  C   UNL     1       7.144   4.612  13.951  0.00  0.00    +0.000 A 
ATOM     15  N   UNL     1       7.653   5.352  14.960  0.00  0.00    +0.000 NA
ATOM     16  C   UNL     1       6.864   5.527  16.050  0.00  0.00    +0.000 A 
ENDBRANCH   8  11
BRANCH   1  17
ATOM     17  C   UNL     1       0.872   7.878  21.766  0.00  0.00    +0.000 C 
BRANCH  17  22
ATOM     18 CL   UNL     1      -2.073  13.119  21.083  0.00  0.00    +0.000 Cl
ATOM     19  C   UNL     1      -1.247  11.621  21.273  0.00  0.00    +0.000 A 
ATOM     20  C   UNL     1      -0.965  11.145  22.551  0.00  0.00    +0.000 A 
ATOM     21  C   UNL     1      -0.283   9.936  22.703  0.00  0.00    +0.000 A 
ATOM     22  C   UNL     1       0.118   9.185  21.584  0.00  0.00    +0.000 A 
ATOM     23  C   UNL     1      -0.178   9.681  20.305  0.00  0.00    +0.000 A 
ATOM     24  C   UNL     1      -0.856  10.895  20.151  0.00  0.00    +0.000 A 
ENDBRANCH  17  22
ENDBRANCH   1  17
TORSDOF 3
ENDMDL
MODEL 2
REMARK VINA RESULT:      -7.7      4.152      9.597
REMARK  Name = 
REMARK  3 active torsions:
REMARK  status: ('A' for Active; 'I' for Inactive)
REMARK    1  A    between atoms: C_5  and  C_6
REMARK    2  A    between atoms: C_6  and  N_7
REMARK    3  A    between atoms: C_14  and  C_15
REMARK                            x       y       z     vdW  Elec       q    Type
REMARK                         _______ _______ _______ _____ _____    ______ ____
ROOT
ATOM      1  N   UNL     1       1.883   8.255  18.650  0.00  0.00    +0.000 NA
ATOM      2  C   UNL     1       1.835   8.438  20.105  0.00  0.00    +0.000 C 
ATOM      3  C   UNL     1       0.515   9.060  20.553  0.00  0.00    +0.000 C 
ATOM      4  C   UNL     1       0.269  10.391  19.831  0.00  0.00    +0.000 C 
ATOM      5  C   UNL     1       0.325  10.163  18.320  0.00  0.00    +0.000 C 
ATOM      6  C   UNL     1       1.645   9.498  17.912  0.00  0.00    +0.000 C 
ATOM      7  C   UNL     1      -1.019  11.055  20.284  0.00  0.00    +0.000 C 
ATOM      8  C   UNL     1      -0.452  11.921  21.361  0.00  0.00    +0.000 C 
ATOM      9  N   UNL     1       0.830  12.092  21.292  0.00  0.00    +0.000 NA
ATOM     10  O   UNL     1       1.292  11.335  20.195  0.00  0.00    +0.000 OA
ENDROOT
BRANCH   8  11
ATOM     11  C   UNL     1      -1.288  12.554  22.398  0.00  0.00    +0.000 A 
ATOM     12  C   UNL     1      -2.495  11.963  22.776  0.00  0.00    +0.000 A 
ATOM     13  C   UNL     1      -3.288  12.578  23.741  0.00  0.00    +0.000 A 
ATOM     14  C   UNL     1      -2.847  13.769  24.293  0.00  0.00    +0.000 A 
ATOM     15  N   UNL     1      -1.684  14.366  23.954  0.00  0.00    +0.000 NA
ATOM     16  C   UNL     1      -0.927  13.743  23.016  0.00  0.00    +0.000 A 
ENDBRANCH   8  11
BRANCH   1  17
ATOM     17  C   UNL     1       3.100   7.548  18.207  0.00  0.00    +0.000 C 
BRANCH  17  22
ATOM     18 CL   UNL     1       3.101   1.508  18.561  0.00  0.00    +0.000 Cl
ATOM     19  C   UNL     1       3.101   3.225  18.446  0.00  0.00    +0.000 A 
ATOM     20  C   UNL     1       4.240   3.942  18.803  0.00  0.00    +0.000 A 
ATOM     21  C   UNL     1       4.234   5.336  18.722  0.00  0.00    +0.000 A 
ATOM     22  C   UNL     1       3.096   6.030  18.275  0.00  0.00    +0.000 A 
ATOM     23  C   UNL     1       1.958   5.290  17.918  0.00  0.00    +0.000 A 
ATOM     24  C   UNL     1       1.961   3.893  18.005  0.00  0.00    +0.000 A 
ENDBRANCH  17  22
ENDBRANCH   1  17
TORSDOF 3
ENDMDL
MODEL 3
REMARK VINA RESULT:      -7.5      4.153      9.635
REMARK  Name = 
REMARK  3 active torsions:
REMARK  status: ('A' for Active; 'I' for Inactive)
REMARK    1  A    between atoms: C_5  and  C_6
REMARK    2  A    between atoms: C_6  and  N_7
REMARK    3  A    between atoms: C_14  and  C_15
REMARK                            x       y       z     vdW  Elec       q    Type
REMARK                         _______ _______ _______ _____ _____    ______ ____
ROOT
ATOM      1  N   UNL     1       1.909   8.187  18.617  0.00  0.00    +0.000 NA
ATOM      2  C   UNL     1       1.885   8.410  20.068  0.00  0.00    +0.000 C 
ATOM      3  C   UNL     1       0.565   9.024  20.523  0.00  0.00    +0.000 C 
ATOM      4  C   UNL     1       0.285  10.331  19.770  0.00  0.00    +0.000 C 
ATOM      5  C   UNL     1       0.316  10.063  18.265  0.00  0.00    +0.000 C 
ATOM      6  C   UNL     1       1.638   9.406  17.851  0.00  0.00    +0.000 C 
ATOM      7  C   UNL     1      -1.004  10.988  20.230  0.00  0.00    +0.000 C 
ATOM      8  C   UNL     1      -0.429  11.892  21.271  0.00  0.00    +0.000 C 
ATOM      9  N   UNL     1       0.848  12.080  21.173  0.00  0.00    +0.000 NA
ATOM     10  O   UNL     1       1.301  11.300  20.089  0.00  0.00    +0.000 OA
ENDROOT
BRANCH   8  11
ATOM     11  C   UNL     1      -1.255  12.541  22.306  0.00  0.00    +0.000 A 
ATOM     12  C   UNL     1      -0.838  13.745  22.877  0.00  0.00    +0.000 A 
ATOM     13  C   UNL     1      -1.613  14.341  23.869  0.00  0.00    +0.000 A 
ATOM     14  C   UNL     1      -2.781  13.706  24.260  0.00  0.00    +0.000 A 
ATOM     15  N   UNL     1      -3.216  12.544  23.727  0.00  0.00    +0.000 NA
ATOM     16  C   UNL     1      -2.446  11.989  22.758  0.00  0.00    +0.000 A 
ENDBRANCH   8  11
BRANCH   1  17
ATOM     17  C   UNL     1       3.127   7.486  18.170  0.00  0.00    +0.000 C 
BRANCH  17  22
ATOM     18 CL   UNL     1       3.191   1.447  18.524  0.00  0.00    +0.000 Cl
ATOM     19  C   UNL     1       3.172   3.165  18.437  0.00  0.00    +0.000 A 
ATOM     20  C   UNL     1       2.035   3.822  17.973  0.00  0.00    +0.000 A 
ATOM     21  C   UNL     1       2.026   5.216  17.891  0.00  0.00    +0.000 A 
ATOM     22  C   UNL     1       3.147   5.970  18.279  0.00  0.00    +0.000 A 
ATOM     23  C   UNL     1       4.283   5.291  18.747  0.00  0.00    +0.000 A 
ATOM     24  C   UNL     1       4.295   3.893  18.823  0.00  0.00    +0.000 A 
ENDBRANCH  17  22
ENDBRANCH   1  17
TORSDOF 3
ENDMDL
MODEL 4
REMARK VINA RESULT:      -7.5      4.384     10.047
REMARK  Name = 
REMARK  3 active torsions:
REMARK  status: ('A' for Active; 'I' for Inactive)
REMARK    1  A    between atoms: C_5  and  C_6
REMARK    2  A    between atoms: C_6  and  N_7
REMARK    3  A    between atoms: C_14  and  C_15
REMARK                            x       y       z     vdW  Elec       q    Type
REMARK                         _______ _______ _______ _____ _____    ______ ____
ROOT
ATOM      1  N   UNL     1       1.150   8.555  20.168  0.00  0.00    +0.000 NA
ATOM      2  C   UNL     1       1.183   8.967  21.575  0.00  0.00    +0.000 C 
ATOM      3  C   UNL     1      -0.088   9.712  21.975  0.00  0.00    +0.000 C 
ATOM      4  C   UNL     1      -0.319  10.922  21.062  0.00  0.00    +0.000 C 
ATOM      5  C   UNL     1      -0.349  10.457  19.606  0.00  0.00    +0.000 C 
ATOM      6  C   UNL     1       0.923   9.676  19.252  0.00  0.00    +0.000 C 
ATOM      7  C   UNL     1      -1.556  11.708  21.459  0.00  0.00    +0.000 C 
ATOM      8  C   UNL     1      -0.902  12.706  22.358  0.00  0.00    +0.000 C 
ATOM      9  N   UNL     1       0.380  12.804  22.206  0.00  0.00    +0.000 NA
ATOM     10  O   UNL     1       0.757  11.864  21.225  0.00  0.00    +0.000 OA
ENDROOT
BRANCH   8  11
ATOM     11  C   UNL     1      -1.659  13.532  23.316  0.00  0.00    +0.000 A 
ATOM     12  C   UNL     1      -2.988  13.218  23.610  0.00  0.00    +0.000 A 
ATOM     13  C   UNL     1      -3.702  14.015  24.500  0.00  0.00    +0.000 A 
ATOM     14  C   UNL     1      -3.062  15.106  25.064  0.00  0.00    +0.000 A 
ATOM     15  N   UNL     1      -1.778  15.436  24.806  0.00  0.00    +0.000 NA
ATOM     16  C   UNL     1      -1.103  14.639  23.940  0.00  0.00    +0.000 A 
ENDBRANCH   8  11
BRANCH   1  17
ATOM     17  C   UNL     1       2.314   7.732  19.789  0.00  0.00    +0.000 C 
BRANCH  17  22
ATOM     18 CL   UNL     1       1.277   1.869  18.714  0.00  0.00    +0.000 Cl
ATOM     19  C   UNL     1       1.585   3.534  19.019  0.00  0.00    +0.000 A 
ATOM     20  C   UNL     1       1.394   4.050  20.298  0.00  0.00    +0.000 A 
ATOM     21  C   UNL     1       1.633   5.404  20.541  0.00  0.00    +0.000 A 
ATOM     22  C   UNL     1       2.073   6.257  19.513  0.00  0.00    +0.000 A 
ATOM     23  C   UNL     1       2.263   5.718  18.231  0.00  0.00    +0.000 A 
ATOM     24  C   UNL     1       2.017   4.362  17.985  0.00  0.00    +0.000 A 
ENDBRANCH  17  22
ENDBRANCH   1  17
TORSDOF 3
ENDMDL
MODEL 5
REMARK VINA RESULT:      -7.5      4.339     10.000
REMARK  Name = 
REMARK  3 active torsions:
REMARK  status: ('A' for Active; 'I' for Inactive)
REMARK    1  A    between atoms: C_5  and  C_6
REMARK    2  A    between atoms: C_6  and  N_7
REMARK    3  A    between atoms: C_14  and  C_15
REMARK                            x       y       z     vdW  Elec       q    Type
REMARK                         _______ _______ _______ _____ _____    ______ ____
ROOT
ATOM      1  N   UNL     1       1.217   8.430  19.873  0.00  0.00    +0.000 NA
ATOM      2  C   UNL     1       1.156   8.749  21.304  0.00  0.00    +0.000 C 
ATOM      3  C   UNL     1      -0.120   9.507  21.660  0.00  0.00    +0.000 C 
ATOM      4  C   UNL     1      -0.249  10.781  20.816  0.00  0.00    +0.000 C 
ATOM      5  C   UNL     1      -0.183  10.413  19.334  0.00  0.00    +0.000 C 
ATOM      6  C   UNL     1       1.090   9.616  19.021  0.00  0.00    +0.000 C 
ATOM      7  C   UNL     1      -1.489  11.579  21.175  0.00  0.00    +0.000 C 
ATOM      8  C   UNL     1      -0.877  12.494  22.184  0.00  0.00    +0.000 C 
ATOM      9  N   UNL     1       0.415  12.561  22.132  0.00  0.00    +0.000 NA
ATOM     10  O   UNL     1       0.838  11.675  21.120  0.00  0.00    +0.000 OA
ENDROOT
BRANCH   8  11
ATOM     11  C   UNL     1      -1.680  13.281  23.138  0.00  0.00    +0.000 A 
ATOM     12  C   UNL     1      -2.952  12.838  23.509  0.00  0.00    +0.000 A 
ATOM     13  C   UNL     1      -3.712  13.597  24.395  0.00  0.00    +0.000 A 
ATOM     14  C   UNL     1      -3.175  14.779  24.877  0.00  0.00    +0.000 A 
ATOM     15  N   UNL     1      -1.948  15.235  24.543  0.00  0.00    +0.000 NA
ATOM     16  C   UNL     1      -1.226  14.473  23.683  0.00  0.00    +0.000 A 
ENDBRANCH   8  11
BRANCH   1  17
ATOM     17  C   UNL     1       2.383   7.597  19.526  0.00  0.00    +0.000 C 
BRANCH  17  22
ATOM     18 CL   UNL     1       1.565   1.635  18.900  0.00  0.00    +0.000 Cl
ATOM     19  C   UNL     1       1.784   3.332  19.080  0.00  0.00    +0.000 A 
ATOM     20  C   UNL     1       2.119   4.107  17.973  0.00  0.00    +0.000 A 
ATOM     21  C   UNL     1       2.309   5.482  18.122  0.00  0.00    +0.000 A 
ATOM     22  C   UNL     1       2.158   6.101  19.376  0.00  0.00    +0.000 A 
ATOM     23  C   UNL     1       1.818   5.303  20.480  0.00  0.00    +0.000 A 
ATOM     24  C   UNL     1       1.633   3.924  20.331  0.00  0.00    +0.000 A 
ENDBRANCH  17  22
ENDBRANCH   1  17
TORSDOF 3
ENDMDL
MODEL 6
REMARK VINA RESULT:      -7.4      4.306      9.971
REMARK  Name = 
REMARK  3 active torsions:
REMARK  status: ('A' for Active; 'I' for Inactive)
REMARK    1  A    between atoms: C_5  and  C_6
REMARK    2  A    between atoms: C_6  and  N_7
REMARK    3  A    between atoms: C_14  and  C_15
REMARK                            x       y       z     vdW  Elec       q    Type
REMARK                         _______ _______ _______ _____ _____    ______ ____
ROOT
ATOM      1  N   UNL     1       1.257   8.544  19.683  0.00  0.00    +0.000 NA
ATOM      2  C   UNL     1       1.173   8.808  21.124  0.00  0.00    +0.000 C 
ATOM      3  C   UNL     1      -0.105   9.559  21.487  0.00  0.00    +0.000 C 
ATOM      4  C   UNL     1      -0.213  10.865  20.690  0.00  0.00    +0.000 C 
ATOM      5  C   UNL     1      -0.124  10.553  19.196  0.00  0.00    +0.000 C 
ATOM      6  C   UNL     1       1.150   9.761  18.875  0.00  0.00    +0.000 C 
ATOM      7  C   UNL     1      -1.456  11.655  21.057  0.00  0.00    +0.000 C 
ATOM      8  C   UNL     1      -0.856  12.529  22.110  0.00  0.00    +0.000 C 
ATOM      9  N   UNL     1       0.437  12.590  22.083  0.00  0.00    +0.000 NA
ATOM     10  O   UNL     1       0.872  11.741  21.046  0.00  0.00    +0.000 OA
ENDROOT
BRANCH   8  11
ATOM     11  C   UNL     1      -1.672  13.282  23.080  0.00  0.00    +0.000 A 
ATOM     12  C   UNL     1      -1.133  14.395  23.729  0.00  0.00    +0.000 A 
ATOM     13  C   UNL     1      -1.904  15.089  24.659  0.00  0.00    +0.000 A 
ATOM     14  C   UNL     1      -3.190  14.641  24.912  0.00  0.00    +0.000 A 
ATOM     15  N   UNL     1      -3.744  13.572  24.300  0.00  0.00    +0.000 NA
ATOM     16  C   UNL     1      -2.974  12.918  23.394  0.00  0.00    +0.000 A 
ENDBRANCH   8  11
BRANCH   1  17
ATOM     17  C   UNL     1       2.425   7.718  19.324  0.00  0.00    +0.000 C 
BRANCH  17  22
ATOM     18 CL   UNL     1       1.555   1.736  19.061  0.00  0.00    +0.000 Cl
ATOM     19  C   UNL     1       1.816   3.435  19.135  0.00  0.00    +0.000 A 
ATOM     20  C   UNL     1       1.677   4.105  20.348  0.00  0.00    +0.000 A 
ATOM     21  C   UNL     1       1.877   5.485  20.403  0.00  0.00    +0.000 A 
ATOM     22  C   UNL     1       2.226   6.212  19.251  0.00  0.00    +0.000 A 
ATOM     23  C   UNL     1       2.364   5.520  18.038  0.00  0.00    +0.000 A 
ATOM     24  C   UNL     1       2.158   4.137  17.981  0.00  0.00    +0.000 A 
ENDBRANCH  17  22
ENDBRANCH   1  17
TORSDOF 3
ENDMDL
MODEL 7
REMARK VINA RESULT:      -7.3      5.175      7.169
REMARK  Name = 
REMARK  3 active torsions:
REMARK  status: ('A' for Active; 'I' for Inactive)
REMARK    1  A    between atoms: C_5  and  C_6
REMARK    2  A    between atoms: C_6  and  N_7
REMARK    3  A    between atoms: C_14  and  C_15
REMARK                            x       y       z     vdW  Elec       q    Type
REMARK                         _______ _______ _______ _____ _____    ______ ____
ROOT
ATOM      1  N   UNL     1       4.967   4.439  16.651  0.00  0.00    +0.000 NA
ATOM      2  C   UNL     1       4.841   5.375  17.774  0.00  0.00    +0.000 C 
ATOM      3  C   UNL     1       5.459   6.733  17.450  0.00  0.00    +0.000 C 
ATOM      4  C   UNL     1       6.928   6.577  17.038  0.00  0.00    +0.000 C 
ATOM      5  C   UNL     1       7.022   5.598  15.867  0.00  0.00    +0.000 C 
ATOM      6  C   UNL     1       6.354   4.261  16.212  0.00  0.00    +0.000 C 
ATOM      7  C   UNL     1       7.583   7.915  16.747  0.00  0.00    +0.000 C 
ATOM      8  C   UNL     1       8.152   8.179  18.102  0.00  0.00    +0.000 C 
ATOM      9  N   UNL     1       8.229   7.135  18.864  0.00  0.00    +0.000 NA
ATOM     10  O   UNL     1       7.688   6.052  18.142  0.00  0.00    +0.000 OA
ENDROOT
BRANCH   8  11
ATOM     11  C   UNL     1       8.616   9.513  18.526  0.00  0.00    +0.000 A 
ATOM     12  C   UNL     1       8.528  10.594  17.645  0.00  0.00    +0.000 A 
ATOM     13  C   UNL     1       8.988  11.846  18.046  0.00  0.00    +0.000 A 
ATOM     14  C   UNL     1       9.526  11.973  19.315  0.00  0.00    +0.000 A 
ATOM     15  N   UNL     1       9.623  10.951  20.193  0.00  0.00    +0.000 NA
ATOM     16  C   UNL     1       9.162   9.744  19.781  0.00  0.00    +0.000 A 
ENDBRANCH   8  11
BRANCH   1  17
ATOM     17  C   UNL     1       4.275   3.160  16.896  0.00  0.00    +0.000 C 
BRANCH  17  22
ATOM     18 CL   UNL     1       1.143   2.692  22.052  0.00  0.00    +0.000 Cl
ATOM     19  C   UNL     1       2.027   2.813  20.581  0.00  0.00    +0.000 A 
ATOM     20  C   UNL     1       3.391   2.533  20.569  0.00  0.00    +0.000 A 
ATOM     21  C   UNL     1       4.110   2.644  19.377  0.00  0.00    +0.000 A 
ATOM     22  C   UNL     1       3.475   3.029  18.182  0.00  0.00    +0.000 A 
ATOM     23  C   UNL     1       2.100   3.305  18.214  0.00  0.00    +0.000 A 
ATOM     24  C   UNL     1       1.380   3.199  19.410  0.00  0.00    +0.000 A 
ENDBRANCH  17  22
ENDBRANCH   1  17
TORSDOF 3
ENDMDL
MODEL 8
REMARK VINA RESULT:      -7.3      5.163      7.203
REMARK  Name = 
REMARK  3 active torsions:
REMARK  status: ('A' for Active; 'I' for Inactive)
REMARK    1  A    between atoms: C_5  and  C_6
REMARK    2  A    between atoms: C_6  and  N_7
REMARK    3  A    between atoms: C_14  and  C_15
REMARK                            x       y       z     vdW  Elec       q    Type
REMARK                         _______ _______ _______ _____ _____    ______ ____
ROOT
ATOM      1  N   UNL     1       5.004   4.339  16.772  0.00  0.00    +0.000 NA
ATOM      2  C   UNL     1       4.875   5.314  17.861  0.00  0.00    +0.000 C 
ATOM      3  C   UNL     1       5.468   6.668  17.480  0.00  0.00    +0.000 C 
ATOM      4  C   UNL     1       6.934   6.520  17.057  0.00  0.00    +0.000 C 
ATOM      5  C   UNL     1       7.032   5.500  15.922  0.00  0.00    +0.000 C 
ATOM      6  C   UNL     1       6.389   4.166  16.324  0.00  0.00    +0.000 C 
ATOM      7  C   UNL     1       7.564   7.856  16.709  0.00  0.00    +0.000 C 
ATOM      8  C   UNL     1       8.144   8.180  18.047  0.00  0.00    +0.000 C 
ATOM      9  N   UNL     1       8.246   7.166  18.846  0.00  0.00    +0.000 NA
ATOM     10  O   UNL     1       7.714   6.048  18.171  0.00  0.00    +0.000 OA
ENDROOT
BRANCH   8  11
ATOM     11  C   UNL     1       8.591   9.536  18.415  0.00  0.00    +0.000 A 
ATOM     12  C   UNL     1       9.299   9.739  19.602  0.00  0.00    +0.000 A 
ATOM     13  C   UNL     1       9.699  11.026  19.952  0.00  0.00    +0.000 A 
ATOM     14  C   UNL     1       9.372  12.069  19.103  0.00  0.00    +0.000 A 
ATOM     15  N   UNL     1       8.693  11.909  17.946  0.00  0.00    +0.000 NA
ATOM     16  C   UNL     1       8.321  10.645  17.625  0.00  0.00    +0.000 A 
ENDBRANCH   8  11
BRANCH   1  17
ATOM     17  C   UNL     1       4.335   3.059  17.072  0.00  0.00    +0.000 C 
BRANCH  17  22
ATOM     18 CL   UNL     1       1.046   2.671  22.136  0.00  0.00    +0.000 Cl
ATOM     19  C   UNL     1       1.988   2.793  20.701  0.00  0.00    +0.000 A 
ATOM     20  C   UNL     1       1.392   3.218  19.516  0.00  0.00    +0.000 A 
ATOM     21  C   UNL     1       2.154   3.304  18.350  0.00  0.00    +0.000 A 
ATOM     22  C   UNL     1       3.521   2.975  18.354  0.00  0.00    +0.000 A 
ATOM     23  C   UNL     1       4.105   2.550  19.558  0.00  0.00    +0.000 A 
ATOM     24  C   UNL     1       3.339   2.458  20.726  0.00  0.00    +0.000 A 
ENDBRANCH  17  22
ENDBRANCH   1  17
TORSDOF 3
ENDMDL
MODEL 9
REMARK VINA RESULT:      -7.1      2.670      4.459
REMARK  Name = 
REMARK  3 active torsions:
REMARK  status: ('A' for Active; 'I' for Inactive)
REMARK    1  A    between atoms: C_5  and  C_6
REMARK    2  A    between atoms: C_6  and  N_7
REMARK    3  A    between atoms: C_14  and  C_15
REMARK                            x       y       z     vdW  Elec       q    Type
REMARK                         _______ _______ _______ _____ _____    ______ ____
ROOT
ATOM      1  N   UNL     1      -0.160  12.349  19.064  0.00  0.00    +0.000 NA
ATOM      2  C   UNL     1       1.215  12.004  19.444  0.00  0.00    +0.000 C 
ATOM      3  C   UNL     1       1.795  10.918  18.542  0.00  0.00    +0.000 C 
ATOM      4  C   UNL     1       0.903   9.671  18.549  0.00  0.00    +0.000 C 
ATOM      5  C   UNL     1      -0.519  10.065  18.147  0.00  0.00    +0.000 C 
ATOM      6  C   UNL     1      -1.053  11.187  19.047  0.00  0.00    +0.000 C 
ATOM      7  C   UNL     1       1.474   8.556  17.692  0.00  0.00    +0.000 C 
ATOM      8  C   UNL     1       2.232   7.830  18.753  0.00  0.00    +0.000 C 
ATOM      9  N   UNL     1       1.876   8.123  19.963  0.00  0.00    +0.000 NA
ATOM     10  O   UNL     1       0.869   9.106  19.873  0.00  0.00    +0.000 OA
ENDROOT
BRANCH   8  11
ATOM     11  C   UNL     1       3.280   6.838  18.447  0.00  0.00    +0.000 A 
ATOM     12  C   UNL     1       4.115   7.024  17.343  0.00  0.00    +0.000 A 
ATOM     13  C   UNL     1       5.088   6.072  17.049  0.00  0.00    +0.000 A 
ATOM     14  C   UNL     1       5.189   4.961  17.869  0.00  0.00    +0.000 A 
ATOM     15  N   UNL     1       4.402   4.751  18.946  0.00  0.00    +0.000 NA
ATOM     16  C   UNL     1       3.467   5.697  19.214  0.00  0.00    +0.000 A 
ENDBRANCH   8  11
BRANCH   1  17
ATOM     17  C   UNL     1      -0.699  13.477  19.845  0.00  0.00    +0.000 C 
BRANCH  17  22
ATOM     18 CL   UNL     1      -4.283  12.227  24.558  0.00  0.00    +0.000 Cl
ATOM     19  C   UNL     1      -3.268  12.571  23.212  0.00  0.00    +0.000 A 
ATOM     20  C   UNL     1      -1.885  12.471  23.345  0.00  0.00    +0.000 A 
ATOM     21  C   UNL     1      -1.062  12.762  22.255  0.00  0.00    +0.000 A 
ATOM     22  C   UNL     1      -1.609  13.148  21.018  0.00  0.00    +0.000 A 
ATOM     23  C   UNL     1      -3.005  13.241  20.903  0.00  0.00    +0.000 A 
ATOM     24  C   UNL     1      -3.830  12.955  21.997  0.00  0.00    +0.000 A 
ENDBRANCH  17  22
ENDBRANCH   1  17
TORSDOF 3
ENDMDL
