MODEL 1
REMARK VINA RESULT:      -6.2      0.000      0.000
REMARK  Name = 
REMARK  4 active torsions:
REMARK  status: ('A' for Active; 'I' for Inactive)
REMARK    1  A    between atoms: C_1  and  C_2
REMARK    2  A    between atoms: C_6  and  C_7
REMARK    3  A    between atoms: C_7  and  C_9
REMARK    4  A    between atoms: C_13  and  C_14
REMARK                            x       y       z     vdW  Elec       q    Type
REMARK                         _______ _______ _______ _____ _____    ______ ____
ROOT
ATOM      1  C   UNL     1       4.529   4.015  18.727  0.00  0.00    +0.000 C 
ATOM      2  O   UNL     1       5.422   3.763  19.538  0.00  0.00    +0.000 OA
ENDROOT
BRANCH   1   8
ATOM      3  C   UNL     1       2.227   5.083  20.838  0.00  0.00    +0.000 C 
ATOM      4  C   UNL     1       2.146   3.987  19.821  0.00  0.00    +0.000 A 
ATOM      5  C   UNL     1       0.938   3.231  19.627  0.00  0.00    +0.000 A 
ATOM      6  C   UNL     1       1.027   2.328  18.596  0.00  0.00    +0.000 A 
ATOM      7  S   UNL     1       2.561   2.355  17.864  0.00  0.00    +0.000 S 
ATOM      8  C   UNL     1       3.144   3.573  18.939  0.00  0.00    +0.000 A 
ENDBRANCH   1   8
BRANCH   1   9
ATOM      9  C   UNL     1       4.819   4.744  17.489  0.00  0.00    +0.000 A 
ATOM     10  S   UNL     1       5.588   3.978  16.156  0.00  0.00    +0.000 S 
ATOM     11  C   UNL     1       5.668   5.435  15.273  0.00  0.00    +0.000 A 
ATOM     12  C   UNL     1       4.957   6.437  15.889  0.00  0.00    +0.000 A 
ATOM     13  C   UNL     1       4.408   6.035  17.150  0.00  0.00    +0.000 A 
ATOM     14  C   UNL     1       3.545   6.922  17.991  0.00  0.00    +0.000 C 
ENDBRANCH   1   9
TORSDOF 2
ENDMDL
MODEL 2
REMARK VINA RESULT:      -6.2      0.165      4.404
REMARK  Name = 
REMARK  4 active torsions:
REMARK  status: ('A' for Active; 'I' for Inactive)
REMARK    1  A    between atoms: C_1  and  C_2
REMARK    2  A    between atoms: C_6  and  C_7
REMARK    3  A    between atoms: C_7  and  C_9
REMARK    4  A    between atoms: C_13  and  C_14
REMARK                            x       y       z     vdW  Elec       q    Type
REMARK                         _______ _______ _______ _____ _____    ______ ____
ROOT
ATOM      1  C   UNL     1       4.491   4.007  18.705  0.00  0.00    +0.000 C 
ATOM      2  O   UNL     1       5.360   3.747  19.540  0.00  0.00    +0.000 OA
ENDROOT
BRANCH   1   8
ATOM      3  C   UNL     1       3.505   7.061  17.932  0.00  0.00    +0.000 C 
ATOM      4  C   UNL     1       4.374   6.120  17.156  0.00  0.00    +0.000 A 
ATOM      5  C   UNL     1       4.937   6.493  15.887  0.00  0.00    +0.000 A 
ATOM      6  C   UNL     1       5.772   5.534  15.365  0.00  0.00    +0.000 A 
ATOM      7  S   UNL     1       5.874   4.169  16.374  0.00  0.00    +0.000 S 
ATOM      8  C   UNL     1       4.775   4.836  17.526  0.00  0.00    +0.000 A 
ENDBRANCH   1   8
BRANCH   1   9
ATOM      9  C   UNL     1       3.118   3.524  18.872  0.00  0.00    +0.000 A 
ATOM     10  S   UNL     1       2.546   2.136  18.036  0.00  0.00    +0.000 S 
ATOM     11  C   UNL     1       0.962   2.340  18.632  0.00  0.00    +0.000 A 
ATOM     12  C   UNL     1       0.908   3.320  19.594  0.00  0.00    +0.000 A 
ATOM     13  C   UNL     1       2.166   3.979  19.787  0.00  0.00    +0.000 A 
ATOM     14  C   UNL     1       2.388   5.043  20.817  0.00  0.00    +0.000 C 
ENDBRANCH   1   9
TORSDOF 2
ENDMDL
MODEL 3
REMARK VINA RESULT:      -5.9      1.810      2.033
REMARK  Name = 
REMARK  4 active torsions:
REMARK  status: ('A' for Active; 'I' for Inactive)
REMARK    1  A    between atoms: C_1  and  C_2
REMARK    2  A    between atoms: C_6  and  C_7
REMARK    3  A    between atoms: C_7  and  C_9
REMARK    4  A    between atoms: C_13  and  C_14
REMARK                            x       y       z     vdW  Elec       q    Type
REMARK                         _______ _______ _______ _____ _____    ______ ____
ROOT
ATOM      1  C   UNL     1       2.261   4.478  17.991  0.00  0.00    +0.000 C 
ATOM      2  O   UNL     1       1.266   4.394  17.268  0.00  0.00    +0.000 OA
ENDROOT
BRANCH   1   8
ATOM      3  C   UNL     1       1.588   6.057  20.810  0.00  0.00    +0.000 C 
ATOM      4  C   UNL     1       1.983   4.629  20.594  0.00  0.00    +0.000 A 
ATOM      5  C   UNL     1       2.100   3.708  21.692  0.00  0.00    +0.000 A 
ATOM      6  C   UNL     1       2.389   2.426  21.293  0.00  0.00    +0.000 A 
ATOM      7  S   UNL     1       2.548   2.312  19.604  0.00  0.00    +0.000 S 
ATOM      8  C   UNL     1       2.250   3.997  19.379  0.00  0.00    +0.000 A 
ENDBRANCH   1   8
BRANCH   1   9
ATOM      9  C   UNL     1       3.497   5.095  17.503  0.00  0.00    +0.000 A 
ATOM     10  S   UNL     1       4.699   4.177  16.688  0.00  0.00    +0.000 S 
ATOM     11  C   UNL     1       5.761   5.508  16.603  0.00  0.00    +0.000 A 
ATOM     12  C   UNL     1       5.146   6.670  17.006  0.00  0.00    +0.000 A 
ATOM     13  C   UNL     1       3.810   6.457  17.478  0.00  0.00    +0.000 A 
ATOM     14  C   UNL     1       2.907   7.565  17.919  0.00  0.00    +0.000 C 
ENDBRANCH   1   9
TORSDOF 2
ENDMDL
MODEL 4
REMARK VINA RESULT:      -5.9      1.818      4.727
REMARK  Name = 
REMARK  4 active torsions:
REMARK  status: ('A' for Active; 'I' for Inactive)
REMARK    1  A    between atoms: C_1  and  C_2
REMARK    2  A    between atoms: C_6  and  C_7
REMARK    3  A    between atoms: C_7  and  C_9
REMARK    4  A    between atoms: C_13  and  C_14
REMARK                            x       y       z     vdW  Elec       q    Type
REMARK                         _______ _______ _______ _____ _____    ______ ____
ROOT
ATOM      1  C   UNL     1       2.277   4.471  18.014  0.00  0.00    +0.000 C 
ATOM      2  O   UNL     1       1.265   4.311  17.328  0.00  0.00    +0.000 OA
ENDROOT
BRANCH   1   8
ATOM      3  C   UNL     1       2.997   7.692  17.914  0.00  0.00    +0.000 C 
ATOM      4  C   UNL     1       3.798   6.525  17.425  0.00  0.00    +0.000 A 
ATOM      5  C   UNL     1       5.094   6.702  16.826  0.00  0.00    +0.000 A 
ATOM      6  C   UNL     1       5.712   5.515  16.516  0.00  0.00    +0.000 A 
ATOM      7  S   UNL     1       4.743   4.176  16.916  0.00  0.00    +0.000 S 
ATOM      8  C   UNL     1       3.459   5.173  17.496  0.00  0.00    +0.000 A 
ENDBRANCH   1   8
BRANCH   1   9
ATOM      9  C   UNL     1       2.358   3.934  19.374  0.00  0.00    +0.000 A 
ATOM     10  S   UNL     1       3.065   2.400  19.694  0.00  0.00    +0.000 S 
ATOM     11  C   UNL     1       2.657   2.476  21.347  0.00  0.00    +0.000 A 
ATOM     12  C   UNL     1       2.171   3.715  21.690  0.00  0.00    +0.000 A 
ATOM     13  C   UNL     1       2.045   4.593  20.565  0.00  0.00    +0.000 A 
ATOM     14  C   UNL     1       1.594   6.016  20.679  0.00  0.00    +0.000 C 
ENDBRANCH   1   9
TORSDOF 2
ENDMDL
MODEL 5
REMARK VINA RESULT:      -5.9      1.825      4.868
REMARK  Name = 
REMARK  4 active torsions:
REMARK  status: ('A' for Active; 'I' for Inactive)
REMARK    1  A    between atoms: C_1  and  C_2
REMARK    2  A    between atoms: C_6  and  C_7
REMARK    3  A    between atoms: C_7  and  C_9
REMARK    4  A    between atoms: C_13  and  C_14
REMARK                            x       y       z     vdW  Elec       q    Type
REMARK                         _______ _______ _______ _____ _____    ______ ____
ROOT
ATOM      1  C   UNL     1       3.611   5.468  17.890  0.00  0.00    +0.000 C 
ATOM      2  O   UNL     1       3.163   6.587  17.636  0.00  0.00    +0.000 OA
ENDROOT
BRANCH   1   8
ATOM      3  C   UNL     1       5.260   4.637  15.153  0.00  0.00    +0.000 C 
ATOM      4  C   UNL     1       5.761   4.774  16.557  0.00  0.00    +0.000 A 
ATOM      5  C   UNL     1       7.145   4.559  16.884  0.00  0.00    +0.000 A 
ATOM      6  C   UNL     1       7.433   4.812  18.204  0.00  0.00    +0.000 A 
ATOM      7  S   UNL     1       6.049   5.286  19.072  0.00  0.00    +0.000 S 
ATOM      8  C   UNL     1       5.029   5.138  17.687  0.00  0.00    +0.000 A 
ENDBRANCH   1   8
BRANCH   1   9
ATOM      9  C   UNL     1       2.736   4.397  18.375  0.00  0.00    +0.000 A 
ATOM     10  S   UNL     1       2.683   2.862  17.606  0.00  0.00    +0.000 S 
ATOM     11  C   UNL     1       1.425   2.317  18.619  0.00  0.00    +0.000 A 
ATOM     12  C   UNL     1       1.183   3.202  19.642  0.00  0.00    +0.000 A 
ATOM     13  C   UNL     1       1.978   4.391  19.549  0.00  0.00    +0.000 A 
ATOM     14  C   UNL     1       1.945   5.485  20.569  0.00  0.00    +0.000 C 
ENDBRANCH   1   9
TORSDOF 2
ENDMDL
MODEL 6
REMARK VINA RESULT:      -5.8      2.060      4.974
REMARK  Name = 
REMARK  4 active torsions:
REMARK  status: ('A' for Active; 'I' for Inactive)
REMARK    1  A    between atoms: C_1  and  C_2
REMARK    2  A    between atoms: C_6  and  C_7
REMARK    3  A    between atoms: C_7  and  C_9
REMARK    4  A    between atoms: C_13  and  C_14
REMARK                            x       y       z     vdW  Elec       q    Type
REMARK                         _______ _______ _______ _____ _____    ______ ____
ROOT
ATOM      1  C   UNL     1       2.247   4.318  17.939  0.00  0.00    +0.000 C 
ATOM      2  O   UNL     1       1.324   4.022  17.178  0.00  0.00    +0.000 OA
ENDROOT
BRANCH   1   8
ATOM      3  C   UNL     1       2.720   7.561  18.339  0.00  0.00    +0.000 C 
ATOM      4  C   UNL     1       3.588   6.554  17.651  0.00  0.00    +0.000 A 
ATOM      5  C   UNL     1       4.844   6.926  17.058  0.00  0.00    +0.000 A 
ATOM      6  C   UNL     1       5.538   5.856  16.548  0.00  0.00    +0.000 A 
ATOM      7  S   UNL     1       4.688   4.397  16.751  0.00  0.00    +0.000 S 
ATOM      8  C   UNL     1       3.354   5.185  17.512  0.00  0.00    +0.000 A 
ENDBRANCH   1   8
BRANCH   1   9
ATOM      9  C   UNL     1       2.299   3.786  19.303  0.00  0.00    +0.000 A 
ATOM     10  S   UNL     1       1.473   4.555  20.599  0.00  0.00    +0.000 S 
ATOM     11  C   UNL     1       2.117   3.472  21.748  0.00  0.00    +0.000 A 
ATOM     12  C   UNL     1       2.786   2.435  21.143  0.00  0.00    +0.000 A 
ATOM     13  C   UNL     1       2.851   2.571  19.718  0.00  0.00    +0.000 A 
ATOM     14  C   UNL     1       3.474   1.548  18.822  0.00  0.00    +0.000 C 
ENDBRANCH   1   9
TORSDOF 2
ENDMDL
MODEL 7
REMARK VINA RESULT:      -5.8      1.204      4.640
REMARK  Name = 
REMARK  4 active torsions:
REMARK  status: ('A' for Active; 'I' for Inactive)
REMARK    1  A    between atoms: C_1  and  C_2
REMARK    2  A    between atoms: C_6  and  C_7
REMARK    3  A    between atoms: C_7  and  C_9
REMARK    4  A    between atoms: C_13  and  C_14
REMARK                            x       y       z     vdW  Elec       q    Type
REMARK                         _______ _______ _______ _____ _____    ______ ____
ROOT
ATOM      1  C   UNL     1       4.630   4.250  18.810  0.00  0.00    +0.000 C 
ATOM      2  O   UNL     1       5.557   3.894  19.540  0.00  0.00    +0.000 OA
ENDROOT
BRANCH   1   8
ATOM      3  C   UNL     1       3.684   7.240  17.779  0.00  0.00    +0.000 C 
ATOM      4  C   UNL     1       4.483   6.198  17.060  0.00  0.00    +0.000 A 
ATOM      5  C   UNL     1       4.986   6.421  15.731  0.00  0.00    +0.000 A 
ATOM      6  C   UNL     1       5.765   5.389  15.268  0.00  0.00    +0.000 A 
ATOM      7  S   UNL     1       5.886   4.131  16.405  0.00  0.00    +0.000 S 
ATOM      8  C   UNL     1       4.870   4.945  17.538  0.00  0.00    +0.000 A 
ENDBRANCH   1   8
BRANCH   1   9
ATOM      9  C   UNL     1       3.235   4.023  19.198  0.00  0.00    +0.000 A 
ATOM     10  S   UNL     1       2.445   5.035  20.340  0.00  0.00    +0.000 S 
ATOM     11  C   UNL     1       1.035   4.076  20.323  0.00  0.00    +0.000 A 
ATOM     12  C   UNL     1       1.086   3.124  19.333  0.00  0.00    +0.000 A 
ATOM     13  C   UNL     1       2.335   3.118  18.631  0.00  0.00    +0.000 A 
ATOM     14  C   UNL     1       2.622   2.216  17.471  0.00  0.00    +0.000 C 
ENDBRANCH   1   9
TORSDOF 2
ENDMDL
MODEL 8
REMARK VINA RESULT:      -5.8      1.192      1.741
REMARK  Name = 
REMARK  4 active torsions:
REMARK  status: ('A' for Active; 'I' for Inactive)
REMARK    1  A    between atoms: C_1  and  C_2
REMARK    2  A    between atoms: C_6  and  C_7
REMARK    3  A    between atoms: C_7  and  C_9
REMARK    4  A    between atoms: C_13  and  C_14
REMARK                            x       y       z     vdW  Elec       q    Type
REMARK                         _______ _______ _______ _____ _____    ______ ____
ROOT
ATOM      1  C   UNL     1       4.622   4.351  18.803  0.00  0.00    +0.000 C 
ATOM      2  O   UNL     1       5.542   4.105  19.585  0.00  0.00    +0.000 OA
ENDROOT
BRANCH   1   8
ATOM      3  C   UNL     1       2.575   2.097  17.526  0.00  0.00    +0.000 C 
ATOM      4  C   UNL     1       2.325   3.100  18.609  0.00  0.00    +0.000 A 
ATOM      5  C   UNL     1       1.056   3.177  19.282  0.00  0.00    +0.000 A 
ATOM      6  C   UNL     1       1.041   4.099  20.301  0.00  0.00    +0.000 A 
ATOM      7  S   UNL     1       2.534   4.900  20.450  0.00  0.00    +0.000 S 
ATOM      8  C   UNL     1       3.225   4.032  19.127  0.00  0.00    +0.000 A 
ENDBRANCH   1   8
BRANCH   1   9
ATOM      9  C   UNL     1       4.887   4.947  17.490  0.00  0.00    +0.000 A 
ATOM     10  S   UNL     1       5.602   4.037  16.220  0.00  0.00    +0.000 S 
ATOM     11  C   UNL     1       5.681   5.396  15.194  0.00  0.00    +0.000 A 
ATOM     12  C   UNL     1       5.006   6.469  15.725  0.00  0.00    +0.000 A 
ATOM     13  C   UNL     1       4.488   6.206  17.036  0.00  0.00    +0.000 A 
ATOM     14  C   UNL     1       3.666   7.189  17.808  0.00  0.00    +0.000 C 
ENDBRANCH   1   9
TORSDOF 2
ENDMDL
MODEL 9
REMARK VINA RESULT:      -5.8      1.957      2.344
REMARK  Name = 
REMARK  4 active torsions:
REMARK  status: ('A' for Active; 'I' for Inactive)
REMARK    1  A    between atoms: C_1  and  C_2
REMARK    2  A    between atoms: C_6  and  C_7
REMARK    3  A    between atoms: C_7  and  C_9
REMARK    4  A    between atoms: C_13  and  C_14
REMARK                            x       y       z     vdW  Elec       q    Type
REMARK                         _______ _______ _______ _____ _____    ______ ____
ROOT
ATOM      1  C   UNL     1       2.636   3.723  17.871  0.00  0.00    +0.000 C 
ATOM      2  O   UNL     1       1.897   3.282  16.989  0.00  0.00    +0.000 OA
ENDROOT
BRANCH   1   8
ATOM      3  C   UNL     1       4.647   2.143  19.959  0.00  0.00    +0.000 C 
ATOM      4  C   UNL     1       3.272   2.687  20.195  0.00  0.00    +0.000 A 
ATOM      5  C   UNL     1       2.636   2.587  21.481  0.00  0.00    +0.000 A 
ATOM      6  C   UNL     1       1.415   3.215  21.529  0.00  0.00    +0.000 A 
ATOM      7  S   UNL     1       1.004   3.911  20.033  0.00  0.00    +0.000 S 
ATOM      8  C   UNL     1       2.457   3.359  19.283  0.00  0.00    +0.000 A 
ENDBRANCH   1   8
BRANCH   1   9
ATOM      9  C   UNL     1       3.714   4.664  17.551  0.00  0.00    +0.000 A 
ATOM     10  S   UNL     1       5.121   4.162  16.703  0.00  0.00    +0.000 S 
ATOM     11  C   UNL     1       5.852   5.695  16.863  0.00  0.00    +0.000 A 
ATOM     12  C   UNL     1       4.974   6.620  17.375  0.00  0.00    +0.000 A 
ATOM     13  C   UNL     1       3.707   6.050  17.726  0.00  0.00    +0.000 A 
ATOM     14  C   UNL     1       2.559   6.855  18.250  0.00  0.00    +0.000 C 
ENDBRANCH   1   9
TORSDOF 2
ENDMDL
