MODEL 1
REMARK VINA RESULT:      -7.8      0.000      0.000
REMARK  Name = 
REMARK  5 active torsions:
REMARK  status: ('A' for Active; 'I' for Inactive)
REMARK    1  A    between atoms: C_1  and  C_2
REMARK    2  A    between atoms: C_4  and  C_5
REMARK    3  A    between atoms: N_7  and  C_8
REMARK    4  A    between atoms: C_8  and  C_9
REMARK    5  A    between atoms: C_14  and  C_15
REMARK                            x       y       z     vdW  Elec       q    Type
REMARK                         _______ _______ _______ _____ _____    ______ ____
ROOT
ATOM      1  C   UNL     1       2.430   6.855  19.124  0.00  0.00    +0.000 A 
ATOM      2  N   UNL     1       2.491   7.774  18.206  0.00  0.00    +0.000 NA
ATOM      3  C   UNL     1       1.927   9.018  18.428  0.00  0.00    +0.000 A 
ATOM      4  O   UNL     1       1.866   9.846  17.528  0.00  0.00    +0.000 OA
ATOM      5  C   UNL     1       1.398   9.287  19.776  0.00  0.00    +0.000 A 
ATOM      6  C   UNL     1       0.866  10.505  20.361  0.00  0.00    +0.000 A 
ATOM      7  C   UNL     1       0.408  10.253  21.649  0.00  0.00    +0.000 A 
ATOM      8  S   UNL     1       0.642   8.635  22.150  0.00  0.00    +0.000 S 
ATOM      9  C   UNL     1       1.361   8.243  20.675  0.00  0.00    +0.000 A 
ATOM     10  N   UNL     1       1.860   7.037  20.360  0.00  0.00    +0.000 N 
ATOM     11  H   UNL     1       1.784   6.232  20.976  0.00  0.00    +0.000 HD
ENDROOT
BRANCH   6  12
ATOM     12  C   UNL     1       0.801  11.869  19.814  0.00  0.00    +0.000 A 
ATOM     13  C   UNL     1      -0.259  12.270  18.979  0.00  0.00    +0.000 A 
ATOM     14  C   UNL     1      -0.347  13.586  18.506  0.00  0.00    +0.000 A 
ATOM     15  C   UNL     1       0.639  14.510  18.837  0.00  0.00    +0.000 A 
ATOM     16 CL   UNL     1       0.536  16.124  18.253  0.00  0.00    +0.000 Cl
ATOM     17  C   UNL     1       1.702  14.133  19.650  0.00  0.00    +0.000 A 
ATOM     18  C   UNL     1       1.766  12.828  20.153  0.00  0.00    +0.000 A 
ENDBRANCH   6  12
BRANCH   1  19
ATOM     19  C   UNL     1       3.026   5.486  18.796  0.00  0.00    +0.000 C 
BRANCH  19  26
ATOM     20  C   UNL     1       5.642   5.569  15.197  0.00  0.00    +0.000 C 
ATOM     21  C   UNL     1       5.656   4.459  16.251  0.00  0.00    +0.000 C 
ATOM     22  C   UNL     1       6.883   4.556  17.166  0.00  0.00    +0.000 C 
ATOM     23  C   UNL     1       6.773   5.754  18.113  0.00  0.00    +0.000 C 
ATOM     24  C   UNL     1       7.962   5.798  19.071  0.00  0.00    +0.000 C 
ATOM     25  C   UNL     1       5.447   5.699  18.892  0.00  0.00    +0.000 C 
ATOM     26  N   UNL     1       4.269   5.631  17.998  0.00  0.00    +0.000 NA
ATOM     27  C   UNL     1       4.374   4.461  17.100  0.00  0.00    +0.000 C 
ENDBRANCH  19  26
ENDBRANCH   1  19
TORSDOF 3
ENDMDL
MODEL 2
REMARK VINA RESULT:      -7.2      3.403      8.276
REMARK  Name = 
REMARK  5 active torsions:
REMARK  status: ('A' for Active; 'I' for Inactive)
REMARK    1  A    between atoms: C_1  and  C_2
REMARK    2  A    between atoms: C_4  and  C_5
REMARK    3  A    between atoms: N_7  and  C_8
REMARK    4  A    between atoms: C_8  and  C_9
REMARK    5  A    between atoms: C_14  and  C_15
REMARK                            x       y       z     vdW  Elec       q    Type
REMARK                         _______ _______ _______ _____ _____    ______ ____
ROOT
ATOM      1  C   UNL     1       1.860   7.428  20.084  0.00  0.00    +0.000 A 
ATOM      2  N   UNL     1       2.458   7.933  19.047  0.00  0.00    +0.000 NA
ATOM      3  C   UNL     1       3.399   7.190  18.356  0.00  0.00    +0.000 A 
ATOM      4  O   UNL     1       4.058   7.697  17.457  0.00  0.00    +0.000 OA
ATOM      5  C   UNL     1       3.576   5.784  18.759  0.00  0.00    +0.000 A 
ATOM      6  C   UNL     1       4.372   4.721  18.171  0.00  0.00    +0.000 A 
ATOM      7  C   UNL     1       4.288   3.576  18.953  0.00  0.00    +0.000 A 
ATOM      8  S   UNL     1       3.264   3.754  20.312  0.00  0.00    +0.000 S 
ATOM      9  C   UNL     1       2.910   5.347  19.883  0.00  0.00    +0.000 A 
ATOM     10  N   UNL     1       2.068   6.153  20.550  0.00  0.00    +0.000 N 
ATOM     11  H   UNL     1       1.618   5.880  21.419  0.00  0.00    +0.000 HD
ENDROOT
BRANCH   6  12
ATOM     12  C   UNL     1       5.158   4.703  16.927  0.00  0.00    +0.000 A 
ATOM     13  C   UNL     1       4.575   4.326  15.702  0.00  0.00    +0.000 A 
ATOM     14  C   UNL     1       5.312   4.365  14.511  0.00  0.00    +0.000 A 
ATOM     15  C   UNL     1       6.648   4.750  14.533  0.00  0.00    +0.000 A 
ATOM     16 CL   UNL     1       7.555   4.791  13.073  0.00  0.00    +0.000 Cl
ATOM     17  C   UNL     1       7.248   5.113  15.733  0.00  0.00    +0.000 A 
ATOM     18  C   UNL     1       6.499   5.112  16.916  0.00  0.00    +0.000 A 
ENDBRANCH   6  12
BRANCH   1  19
ATOM     19  C   UNL     1       0.870   8.319  20.835  0.00  0.00    +0.000 C 
BRANCH  19  26
ATOM     20  C   UNL     1       1.833  12.550  19.846  0.00  0.00    +0.000 C 
ATOM     21  C   UNL     1       0.624  12.109  20.675  0.00  0.00    +0.000 C 
ATOM     22  C   UNL     1      -0.681  12.201  19.875  0.00  0.00    +0.000 C 
ATOM     23  C   UNL     1      -0.747  11.114  18.798  0.00  0.00    +0.000 C 
ATOM     24  C   UNL     1      -2.083  11.166  18.058  0.00  0.00    +0.000 C 
ATOM     25  C   UNL     1      -0.526   9.727  19.426  0.00  0.00    +0.000 C 
ATOM     26  N   UNL     1       0.749   9.643  20.174  0.00  0.00    +0.000 NA
ATOM     27  C   UNL     1       0.796  10.683  21.224  0.00  0.00    +0.000 C 
ENDBRANCH  19  26
ENDBRANCH   1  19
TORSDOF 3
ENDMDL
MODEL 3
REMARK VINA RESULT:      -7.1      3.465      8.389
REMARK  Name = 
REMARK  5 active torsions:
REMARK  status: ('A' for Active; 'I' for Inactive)
REMARK    1  A    between atoms: C_1  and  C_2
REMARK    2  A    between atoms: C_4  and  C_5
REMARK    3  A    between atoms: N_7  and  C_8
REMARK    4  A    between atoms: C_8  and  C_9
REMARK    5  A    between atoms: C_14  and  C_15
REMARK                            x       y       z     vdW  Elec       q    Type
REMARK                         _______ _______ _______ _____ _____    ______ ____
ROOT
ATOM      1  C   UNL     1       2.033   7.515  19.818  0.00  0.00    +0.000 A 
ATOM      2  N   UNL     1       2.574   8.000  18.740  0.00  0.00    +0.000 NA
ATOM      3  C   UNL     1       3.493   7.252  18.026  0.00  0.00    +0.000 A 
ATOM      4  O   UNL     1       4.102   7.744  17.084  0.00  0.00    +0.000 OA
ATOM      5  C   UNL     1       3.712   5.861  18.459  0.00  0.00    +0.000 A 
ATOM      6  C   UNL     1       4.498   4.794  17.864  0.00  0.00    +0.000 A 
ATOM      7  C   UNL     1       4.469   3.671  18.680  0.00  0.00    +0.000 A 
ATOM      8  S   UNL     1       3.507   3.871  20.080  0.00  0.00    +0.000 S 
ATOM      9  C   UNL     1       3.107   5.445  19.625  0.00  0.00    +0.000 A 
ATOM     10  N   UNL     1       2.283   6.257  20.308  0.00  0.00    +0.000 N 
ATOM     11  H   UNL     1       1.879   6.002  21.205  0.00  0.00    +0.000 HD
ENDROOT
BRANCH   6  12
ATOM     12  C   UNL     1       5.225   4.753  16.585  0.00  0.00    +0.000 A 
ATOM     13  C   UNL     1       6.540   5.242  16.477  0.00  0.00    +0.000 A 
ATOM     14  C   UNL     1       7.248   5.148  15.272  0.00  0.00    +0.000 A 
ATOM     15  C   UNL     1       6.640   4.592  14.151  0.00  0.00    +0.000 A 
ATOM     16 CL   UNL     1       7.505   4.483  12.669  0.00  0.00    +0.000 Cl
ATOM     17  C   UNL     1       5.337   4.115  14.231  0.00  0.00    +0.000 A 
ATOM     18  C   UNL     1       4.646   4.174  15.447  0.00  0.00    +0.000 A 
ENDBRANCH   6  12
BRANCH   1  19
ATOM     19  C   UNL     1       1.064   8.412  20.590  0.00  0.00    +0.000 C 
BRANCH  19  26
ATOM     20  C   UNL     1       1.923  12.572  19.265  0.00  0.00    +0.000 C 
ATOM     21  C   UNL     1       0.832  12.192  20.269  0.00  0.00    +0.000 C 
ATOM     22  C   UNL     1      -0.567  12.265  19.647  0.00  0.00    +0.000 C 
ATOM     23  C   UNL     1      -0.787  11.127  18.646  0.00  0.00    +0.000 C 
ATOM     24  C   UNL     1      -2.209  11.163  18.089  0.00  0.00    +0.000 C 
ATOM     25  C   UNL     1      -0.496   9.769  19.309  0.00  0.00    +0.000 C 
ATOM     26  N   UNL     1       0.867   9.703  19.884  0.00  0.00    +0.000 NA
ATOM     27  C   UNL     1       1.064  10.793  20.863  0.00  0.00    +0.000 C 
ENDBRANCH  19  26
ENDBRANCH   1  19
TORSDOF 3
ENDMDL
MODEL 4
REMARK VINA RESULT:      -7.1      2.372      3.075
REMARK  Name = 
REMARK  5 active torsions:
REMARK  status: ('A' for Active; 'I' for Inactive)
REMARK    1  A    between atoms: C_1  and  C_2
REMARK    2  A    between atoms: C_4  and  C_5
REMARK    3  A    between atoms: N_7  and  C_8
REMARK    4  A    between atoms: C_8  and  C_9
REMARK    5  A    between atoms: C_14  and  C_15
REMARK                            x       y       z     vdW  Elec       q    Type
REMARK                         _______ _______ _______ _____ _____    ______ ____
ROOT
ATOM      1  C   UNL     1       2.265   6.735  19.569  0.00  0.00    +0.000 A 
ATOM      2  N   UNL     1       1.549   6.837  20.649  0.00  0.00    +0.000 NA
ATOM      3  C   UNL     1       0.952   8.042  20.976  0.00  0.00    +0.000 A 
ATOM      4  O   UNL     1       0.382   8.185  22.051  0.00  0.00    +0.000 OA
ATOM      5  C   UNL     1       1.047   9.131  19.990  0.00  0.00    +0.000 A 
ATOM      6  C   UNL     1       0.439  10.450  19.970  0.00  0.00    +0.000 A 
ATOM      7  C   UNL     1       0.889  11.165  18.867  0.00  0.00    +0.000 A 
ATOM      8  S   UNL     1       1.963  10.279  17.874  0.00  0.00    +0.000 S 
ATOM      9  C   UNL     1       1.844   8.932  18.884  0.00  0.00    +0.000 A 
ATOM     10  N   UNL     1       2.457   7.756  18.671  0.00  0.00    +0.000 N 
ATOM     11  H   UNL     1       3.104   7.604  17.902  0.00  0.00    +0.000 HD
ENDROOT
BRANCH   6  12
ATOM     12  C   UNL     1      -0.549  11.052  20.880  0.00  0.00    +0.000 A 
ATOM     13  C   UNL     1      -0.427  10.924  22.276  0.00  0.00    +0.000 A 
ATOM     14  C   UNL     1      -1.337  11.547  23.140  0.00  0.00    +0.000 A 
ATOM     15  C   UNL     1      -2.399  12.279  22.619  0.00  0.00    +0.000 A 
ATOM     16 CL   UNL     1      -3.521  13.038  23.677  0.00  0.00    +0.000 Cl
ATOM     17  C   UNL     1      -2.547  12.407  21.243  0.00  0.00    +0.000 A 
ATOM     18  C   UNL     1      -1.613  11.817  20.383  0.00  0.00    +0.000 A 
ENDBRANCH   6  12
BRANCH   1  19
ATOM     19  C   UNL     1       2.941   5.391  19.291  0.00  0.00    +0.000 C 
BRANCH  19  26
ATOM     20  C   UNL     1       5.333   5.641  15.547  0.00  0.00    +0.000 C 
ATOM     21  C   UNL     1       5.406   4.482  16.545  0.00  0.00    +0.000 C 
ATOM     22  C   UNL     1       6.687   4.533  17.387  0.00  0.00    +0.000 C 
ATOM     23  C   UNL     1       6.641   5.685  18.395  0.00  0.00    +0.000 C 
ATOM     24  C   UNL     1       7.886   5.680  19.280  0.00  0.00    +0.000 C 
ATOM     25  C   UNL     1       5.364   5.594  19.250  0.00  0.00    +0.000 C 
ATOM     26  N   UNL     1       4.134   5.572  18.427  0.00  0.00    +0.000 NA
ATOM     27  C   UNL     1       4.178   4.446  17.470  0.00  0.00    +0.000 C 
ENDBRANCH  19  26
ENDBRANCH   1  19
TORSDOF 3
ENDMDL
MODEL 5
REMARK VINA RESULT:      -6.9      1.759      2.899
REMARK  Name = 
REMARK  5 active torsions:
REMARK  status: ('A' for Active; 'I' for Inactive)
REMARK    1  A    between atoms: C_1  and  C_2
REMARK    2  A    between atoms: C_4  and  C_5
REMARK    3  A    between atoms: N_7  and  C_8
REMARK    4  A    between atoms: C_8  and  C_9
REMARK    5  A    between atoms: C_14  and  C_15
REMARK                            x       y       z     vdW  Elec       q    Type
REMARK                         _______ _______ _______ _____ _____    ______ ____
ROOT
ATOM      1  C   UNL     1       3.048   7.018  18.523  0.00  0.00    +0.000 A 
ATOM      2  N   UNL     1       2.974   8.038  17.721  0.00  0.00    +0.000 NA
ATOM      3  C   UNL     1       2.196   9.132  18.055  0.00  0.00    +0.000 A 
ATOM      4  O   UNL     1       2.018  10.040  17.254  0.00  0.00    +0.000 OA
ATOM      5  C   UNL     1       1.589   9.142  19.397  0.00  0.00    +0.000 A 
ATOM      6  C   UNL     1       0.837  10.173  20.091  0.00  0.00    +0.000 A 
ATOM      7  C   UNL     1       0.393   9.693  21.317  0.00  0.00    +0.000 A 
ATOM      8  S   UNL     1       0.891   8.090  21.642  0.00  0.00    +0.000 S 
ATOM      9  C   UNL     1       1.709   8.007  20.168  0.00  0.00    +0.000 A 
ATOM     10  N   UNL     1       2.420   6.949  19.742  0.00  0.00    +0.000 N 
ATOM     11  H   UNL     1       2.467   6.075  20.258  0.00  0.00    +0.000 HD
ENDROOT
BRANCH   6  12
ATOM     12  C   UNL     1       0.550  11.562  19.700  0.00  0.00    +0.000 A 
ATOM     13  C   UNL     1      -0.496  11.869  18.811  0.00  0.00    +0.000 A 
ATOM     14  C   UNL     1      -0.801  13.197  18.486  0.00  0.00    +0.000 A 
ATOM     15  C   UNL     1      -0.045  14.234  19.022  0.00  0.00    +0.000 A 
ATOM     16 CL   UNL     1      -0.413  15.865  18.620  0.00  0.00    +0.000 Cl
ATOM     17  C   UNL     1       1.002  13.954  19.892  0.00  0.00    +0.000 A 
ATOM     18  C   UNL     1       1.279  12.628  20.246  0.00  0.00    +0.000 A 
ENDBRANCH   6  12
BRANCH   1  19
ATOM     19  C   UNL     1       3.883   5.819  18.071  0.00  0.00    +0.000 C 
BRANCH  19  26
ATOM     20  C   UNL     1       4.400   2.278  20.717  0.00  0.00    +0.000 C 
ATOM     21  C   UNL     1       4.187   2.203  19.202  0.00  0.00    +0.000 C 
ATOM     22  C   UNL     1       2.766   1.751  18.847  0.00  0.00    +0.000 C 
ATOM     23  C   UNL     1       1.743   2.849  19.156  0.00  0.00    +0.000 C 
ATOM     24  C   UNL     1       0.342   2.418  18.727  0.00  0.00    +0.000 C 
ATOM     25  C   UNL     1       2.145   4.163  18.463  0.00  0.00    +0.000 C 
ATOM     26  N   UNL     1       3.510   4.602  18.834  0.00  0.00    +0.000 NA
ATOM     27  C   UNL     1       4.493   3.545  18.515  0.00  0.00    +0.000 C 
ENDBRANCH  19  26
ENDBRANCH   1  19
TORSDOF 3
ENDMDL
MODEL 6
REMARK VINA RESULT:      -6.9      3.390      8.311
REMARK  Name = 
REMARK  5 active torsions:
REMARK  status: ('A' for Active; 'I' for Inactive)
REMARK    1  A    between atoms: C_1  and  C_2
REMARK    2  A    between atoms: C_4  and  C_5
REMARK    3  A    between atoms: N_7  and  C_8
REMARK    4  A    between atoms: C_8  and  C_9
REMARK    5  A    between atoms: C_14  and  C_15
REMARK                            x       y       z     vdW  Elec       q    Type
REMARK                         _______ _______ _______ _____ _____    ______ ____
ROOT
ATOM      1  C   UNL     1       1.143   8.479  20.196  0.00  0.00    +0.000 A 
ATOM      2  N   UNL     1       1.747   8.783  19.086  0.00  0.00    +0.000 NA
ATOM      3  C   UNL     1       2.640   7.894  18.514  0.00  0.00    +0.000 A 
ATOM      4  O   UNL     1       3.308   8.219  17.540  0.00  0.00    +0.000 OA
ATOM      5  C   UNL     1       2.756   6.563  19.133  0.00  0.00    +0.000 A 
ATOM      6  C   UNL     1       3.491   5.382  18.716  0.00  0.00    +0.000 A 
ATOM      7  C   UNL     1       3.365   4.381  19.671  0.00  0.00    +0.000 A 
ATOM      8  S   UNL     1       2.373   4.822  20.993  0.00  0.00    +0.000 S 
ATOM      9  C   UNL     1       2.089   6.343  20.319  0.00  0.00    +0.000 A 
ATOM     10  N   UNL     1       1.297   7.285  20.856  0.00  0.00    +0.000 N 
ATOM     11  H   UNL     1       0.849   7.176  21.762  0.00  0.00    +0.000 HD
ENDROOT
BRANCH   6  12
ATOM     12  C   UNL     1       4.254   5.127  17.484  0.00  0.00    +0.000 A 
ATOM     13  C   UNL     1       5.176   6.068  16.989  0.00  0.00    +0.000 A 
ATOM     14  C   UNL     1       5.942   5.797  15.848  0.00  0.00    +0.000 A 
ATOM     15  C   UNL     1       5.773   4.595  15.168  0.00  0.00    +0.000 A 
ATOM     16 CL   UNL     1       6.706   4.263  13.763  0.00  0.00    +0.000 Cl
ATOM     17  C   UNL     1       4.857   3.657  15.630  0.00  0.00    +0.000 A 
ATOM     18  C   UNL     1       4.123   3.914  16.794  0.00  0.00    +0.000 A 
ENDBRANCH   6  12
BRANCH   1  19
ATOM     19  C   UNL     1       0.209   9.526  20.803  0.00  0.00    +0.000 C 
BRANCH  19  26
ATOM     20  C   UNL     1      -0.490  13.329  18.600  0.00  0.00    +0.000 C 
ATOM     21  C   UNL     1      -1.547  12.612  19.445  0.00  0.00    +0.000 C 
ATOM     22  C   UNL     1      -2.585  11.896  18.572  0.00  0.00    +0.000 C 
ATOM     23  C   UNL     1      -1.980  10.666  17.890  0.00  0.00    +0.000 C 
ATOM     24  C   UNL     1      -3.041   9.917  17.085  0.00  0.00    +0.000 C 
ATOM     25  C   UNL     1      -1.334   9.740  18.935  0.00  0.00    +0.000 C 
ATOM     26  N   UNL     1      -0.315  10.436  19.754  0.00  0.00    +0.000 NA
ATOM     27  C   UNL     1      -0.912  11.610  20.424  0.00  0.00    +0.000 C 
ENDBRANCH  19  26
ENDBRANCH   1  19
TORSDOF 3
ENDMDL
MODEL 7
REMARK VINA RESULT:      -6.7      5.245      9.698
REMARK  Name = 
REMARK  5 active torsions:
REMARK  status: ('A' for Active; 'I' for Inactive)
REMARK    1  A    between atoms: C_1  and  C_2
REMARK    2  A    between atoms: C_4  and  C_5
REMARK    3  A    between atoms: N_7  and  C_8
REMARK    4  A    between atoms: C_8  and  C_9
REMARK    5  A    between atoms: C_14  and  C_15
REMARK                            x       y       z     vdW  Elec       q    Type
REMARK                         _______ _______ _______ _____ _____    ______ ____
ROOT
ATOM      1  C   UNL     1      -3.197  11.718  18.772  0.00  0.00    +0.000 A 
ATOM      2  N   UNL     1      -2.803  10.780  17.963  0.00  0.00    +0.000 NA
ATOM      3  C   UNL     1      -1.540  10.231  18.097  0.00  0.00    +0.000 A 
ATOM      4  O   UNL     1      -1.111   9.440  17.266  0.00  0.00    +0.000 OA
ATOM      5  C   UNL     1      -0.742  10.651  19.261  0.00  0.00    +0.000 A 
ATOM      6  C   UNL     1       0.542  10.182  19.751  0.00  0.00    +0.000 A 
ATOM      7  C   UNL     1       0.938  10.940  20.847  0.00  0.00    +0.000 A 
ATOM      8  S   UNL     1      -0.199  12.135  21.295  0.00  0.00    +0.000 S 
ATOM      9  C   UNL     1      -1.239  11.665  20.052  0.00  0.00    +0.000 A 
ATOM     10  N   UNL     1      -2.445  12.204  19.813  0.00  0.00    +0.000 N 
ATOM     11  H   UNL     1      -2.806  12.998  20.335  0.00  0.00    +0.000 HD
ENDROOT
BRANCH   6  12
ATOM     12  C   UNL     1       1.382   9.065  19.290  0.00  0.00    +0.000 A 
ATOM     13  C   UNL     1       2.014   9.099  18.033  0.00  0.00    +0.000 A 
ATOM     14  C   UNL     1       2.858   8.059  17.623  0.00  0.00    +0.000 A 
ATOM     15  C   UNL     1       3.058   6.958  18.450  0.00  0.00    +0.000 A 
ATOM     16 CL   UNL     1       4.088   5.678  17.944  0.00  0.00    +0.000 Cl
ATOM     17  C   UNL     1       2.433   6.898  19.690  0.00  0.00    +0.000 A 
ATOM     18  C   UNL     1       1.622   7.957  20.114  0.00  0.00    +0.000 A 
ENDBRANCH   6  12
BRANCH   1  19
ATOM     19  C   UNL     1      -4.583  12.319  18.538  0.00  0.00    +0.000 C 
BRANCH  19  26
ATOM     20  C   UNL     1      -7.748  10.213  20.851  0.00  0.00    +0.000 C 
ATOM     21  C   UNL     1      -7.911  11.603  20.230  0.00  0.00    +0.000 C 
ATOM     22  C   UNL     1      -7.851  12.711  21.288  0.00  0.00    +0.000 C 
ATOM     23  C   UNL     1      -6.430  12.881  21.832  0.00  0.00    +0.000 C 
ATOM     24  C   UNL     1      -6.366  14.037  22.828  0.00  0.00    +0.000 C 
ATOM     25  C   UNL     1      -5.439  13.102  20.676  0.00  0.00    +0.000 C 
ATOM     26  N   UNL     1      -5.488  12.013  19.674  0.00  0.00    +0.000 NA
ATOM     27  C   UNL     1      -6.859  11.869  19.140  0.00  0.00    +0.000 C 
ENDBRANCH  19  26
ENDBRANCH   1  19
TORSDOF 3
ENDMDL
MODEL 8
REMARK VINA RESULT:      -6.6      3.730      8.542
REMARK  Name = 
REMARK  5 active torsions:
REMARK  status: ('A' for Active; 'I' for Inactive)
REMARK    1  A    between atoms: C_1  and  C_2
REMARK    2  A    between atoms: C_4  and  C_5
REMARK    3  A    between atoms: N_7  and  C_8
REMARK    4  A    between atoms: C_8  and  C_9
REMARK    5  A    between atoms: C_14  and  C_15
REMARK                            x       y       z     vdW  Elec       q    Type
REMARK                         _______ _______ _______ _____ _____    ______ ____
ROOT
ATOM      1  C   UNL     1       0.667  10.228  19.186  0.00  0.00    +0.000 A 
ATOM      2  N   UNL     1       1.360  10.096  18.094  0.00  0.00    +0.000 NA
ATOM      3  C   UNL     1       2.179   8.995  17.918  0.00  0.00    +0.000 A 
ATOM      4  O   UNL     1       2.930   8.923  16.954  0.00  0.00    +0.000 OA
ATOM      5  C   UNL     1       2.115   7.937  18.940  0.00  0.00    +0.000 A 
ATOM      6  C   UNL     1       2.737   6.626  18.990  0.00  0.00    +0.000 A 
ATOM      7  C   UNL     1       2.450   6.009  20.201  0.00  0.00    +0.000 A 
ATOM      8  S   UNL     1       1.444   6.944  21.220  0.00  0.00    +0.000 S 
ATOM      9  C   UNL     1       1.364   8.177  20.071  0.00  0.00    +0.000 A 
ATOM     10  N   UNL     1       0.653   9.309  20.206  0.00  0.00    +0.000 N 
ATOM     11  H   UNL     1       0.148   9.542  21.056  0.00  0.00    +0.000 HD
ENDROOT
BRANCH   6  12
ATOM     12  C   UNL     1       3.532   5.915  17.976  0.00  0.00    +0.000 A 
ATOM     13  C   UNL     1       4.633   6.529  17.351  0.00  0.00    +0.000 A 
ATOM     14  C   UNL     1       5.422   5.830  16.428  0.00  0.00    +0.000 A 
ATOM     15  C   UNL     1       5.102   4.517  16.096  0.00  0.00    +0.000 A 
ATOM     16 CL   UNL     1       6.064   3.660  14.958  0.00  0.00    +0.000 Cl
ATOM     17  C   UNL     1       4.011   3.895  16.691  0.00  0.00    +0.000 A 
ATOM     18  C   UNL     1       3.249   4.583  17.642  0.00  0.00    +0.000 A 
ENDBRANCH   6  12
BRANCH   1  19
ATOM     19  C   UNL     1      -0.177  11.493  19.342  0.00  0.00    +0.000 C 
BRANCH  19  26
ATOM     20  C   UNL     1      -3.779   9.520  17.628  0.00  0.00    +0.000 C 
ATOM     21  C   UNL     1      -3.343  10.953  17.309  0.00  0.00    +0.000 C 
ATOM     22  C   UNL     1      -4.226  11.988  18.015  0.00  0.00    +0.000 C 
ATOM     23  C   UNL     1      -3.956  12.009  19.523  0.00  0.00    +0.000 C 
ATOM     24  C   UNL     1      -4.784  13.095  20.206  0.00  0.00    +0.000 C 
ATOM     25  C   UNL     1      -2.455  12.216  19.793  0.00  0.00    +0.000 C 
ATOM     26  N   UNL     1      -1.615  11.195  19.126  0.00  0.00    +0.000 NA
ATOM     27  C   UNL     1      -1.868  11.195  17.670  0.00  0.00    +0.000 C 
ENDBRANCH  19  26
ENDBRANCH   1  19
TORSDOF 3
ENDMDL
MODEL 9
REMARK VINA RESULT:      -6.6      4.133      9.060
REMARK  Name = 
REMARK  5 active torsions:
REMARK  status: ('A' for Active; 'I' for Inactive)
REMARK    1  A    between atoms: C_1  and  C_2
REMARK    2  A    between atoms: C_4  and  C_5
REMARK    3  A    between atoms: N_7  and  C_8
REMARK    4  A    between atoms: C_8  and  C_9
REMARK    5  A    between atoms: C_14  and  C_15
REMARK                            x       y       z     vdW  Elec       q    Type
REMARK                         _______ _______ _______ _____ _____    ______ ____
ROOT
ATOM      1  C   UNL     1       0.767   9.558  21.488  0.00  0.00    +0.000 A 
ATOM      2  N   UNL     1       0.829   8.301  21.814  0.00  0.00    +0.000 NA
ATOM      3  C   UNL     1       1.235   7.360  20.884  0.00  0.00    +0.000 A 
ATOM      4  O   UNL     1       1.177   6.164  21.140  0.00  0.00    +0.000 OA
ATOM      5  C   UNL     1       1.718   7.861  19.586  0.00  0.00    +0.000 A 
ATOM      6  C   UNL     1       2.319   7.162  18.464  0.00  0.00    +0.000 A 
ATOM      7  C   UNL     1       2.539   8.047  17.415  0.00  0.00    +0.000 A 
ATOM      8  S   UNL     1       2.084   9.656  17.776  0.00  0.00    +0.000 S 
ATOM      9  C   UNL     1       1.595   9.209  19.328  0.00  0.00    +0.000 A 
ATOM     10  N   UNL     1       1.118  10.054  20.257  0.00  0.00    +0.000 N 
ATOM     11  H   UNL     1       0.952  11.039  20.070  0.00  0.00    +0.000 HD
ENDROOT
BRANCH   6  12
ATOM     12  C   UNL     1       2.727   5.754  18.332  0.00  0.00    +0.000 A 
ATOM     13  C   UNL     1       4.009   5.327  18.724  0.00  0.00    +0.000 A 
ATOM     14  C   UNL     1       4.374   3.976  18.650  0.00  0.00    +0.000 A 
ATOM     15  C   UNL     1       3.472   3.040  18.154  0.00  0.00    +0.000 A 
ATOM     16 CL   UNL     1       3.920   1.383  18.056  0.00  0.00    +0.000 Cl
ATOM     17  C   UNL     1       2.205   3.442  17.748  0.00  0.00    +0.000 A 
ATOM     18  C   UNL     1       1.830   4.786  17.861  0.00  0.00    +0.000 A 
ENDBRANCH   6  12
BRANCH   1  19
ATOM     19  C   UNL     1       0.260  10.540  22.545  0.00  0.00    +0.000 C 
BRANCH  19  26
ATOM     20  C   UNL     1      -2.633  12.500  19.790  0.00  0.00    +0.000 C 
ATOM     21  C   UNL     1      -1.872  13.225  20.904  0.00  0.00    +0.000 C 
ATOM     22  C   UNL     1      -2.776  13.537  22.103  0.00  0.00    +0.000 C 
ATOM     23  C   UNL     1      -3.131  12.263  22.875  0.00  0.00    +0.000 C 
ATOM     24  C   UNL     1      -3.967  12.594  24.109  0.00  0.00    +0.000 C 
ATOM     25  C   UNL     1      -1.851  11.505  23.270  0.00  0.00    +0.000 C 
ATOM     26  N   UNL     1      -1.000  11.186  22.101  0.00  0.00    +0.000 NA
ATOM     27  C   UNL     1      -0.646  12.423  21.373  0.00  0.00    +0.000 C 
ENDBRANCH  19  26
ENDBRANCH   1  19
TORSDOF 3
ENDMDL
