MODEL 1
REMARK VINA RESULT:      -7.5      0.000      0.000
REMARK  Name = 
REMARK  5 active torsions:
REMARK  status: ('A' for Active; 'I' for Inactive)
REMARK    1  A    between atoms: C_2  and  C_3
REMARK    2  A    between atoms: C_6  and  N_7
REMARK    3  A    between atoms: C_10  and  C_11
REMARK    4  A    between atoms: C_11  and  C_12
REMARK    5  A    between atoms: N_22  and  N_23
REMARK                            x       y       z     vdW  Elec       q    Type
REMARK                         _______ _______ _______ _____ _____    ______ ____
ROOT
ATOM      1  N   UNL     1       2.326   7.851  19.246  0.00  0.00    +0.000 N 
ATOM      2  C   UNL     1       2.790   6.535  19.362  0.00  0.00    +0.000 A 
ATOM      3  N   UNL     1       3.983   6.287  18.835  0.00  0.00    +0.000 NA
ATOM      4  C   UNL     1       4.467   5.060  19.048  0.00  0.00    +0.000 A 
ATOM      5  N   UNL     1       3.811   4.090  19.683  0.00  0.00    +0.000 NA
ATOM      6  C   UNL     1       2.610   4.420  20.136  0.00  0.00    +0.000 A 
ATOM      7  N   UNL     1       1.863   3.422  20.798  0.00  0.00    +0.000 N 
ATOM      8  N   UNL     1       2.077   5.627  20.011  0.00  0.00    +0.000 NA
ATOM      9  H   UNL     1       3.004   8.394  18.728  0.00  0.00    +0.000 HD
ATOM     10  H   UNL     1       2.280   2.523  20.558  0.00  0.00    +0.000 HD
ENDROOT
BRANCH   1  14
ATOM     11  C   UNL     1      -0.277  10.082  21.723  0.00  0.00    +0.000 A 
ATOM     12  C   UNL     1      -0.203  10.333  20.350  0.00  0.00    +0.000 A 
ATOM     13  C   UNL     1       0.649   9.572  19.541  0.00  0.00    +0.000 A 
ATOM     14  C   UNL     1       1.454   8.558  20.087  0.00  0.00    +0.000 A 
ATOM     15  C   UNL     1       1.348   8.318  21.463  0.00  0.00    +0.000 A 
ATOM     16  C   UNL     1       0.500   9.070  22.277  0.00  0.00    +0.000 A 
BRANCH  11  18
ATOM     17  N   UNL     1      -1.856  11.478  23.229  0.00  0.00    +0.000 NA
ATOM     18  C   UNL     1      -1.147  10.850  22.554  0.00  0.00    +0.000 C 
ENDBRANCH  11  18
ENDBRANCH   1  14
BRANCH   7  19
ATOM     19  N   UNL     1       0.441   3.506  20.765  0.00  0.00    +0.000 NA
ATOM     20  H   UNL     1       0.140   4.264  21.391  0.00  0.00    +0.000 HD
ATOM     21  H   UNL     1       0.046   2.658  21.179  0.00  0.00    +0.000 HD
ENDBRANCH   7  19
BRANCH   4  22
ATOM     22  C   UNL     1       5.891   4.780  18.616  0.00  0.00    +0.000 C 
BRANCH  22  23
ATOM     23  C   UNL     1       6.088   4.786  17.114  0.00  0.00    +0.000 A 
ATOM     24  C   UNL     1       5.494   3.804  16.297  0.00  0.00    +0.000 A 
ATOM     25 CL   UNL     1       4.394   2.623  16.920  0.00  0.00    +0.000 Cl
ATOM     26  C   UNL     1       5.754   3.749  14.922  0.00  0.00    +0.000 A 
ATOM     27  C   UNL     1       6.594   4.685  14.327  0.00  0.00    +0.000 A 
ATOM     28  C   UNL     1       7.161   5.688  15.106  0.00  0.00    +0.000 A 
ATOM     29  C   UNL     1       6.916   5.737  16.486  0.00  0.00    +0.000 A 
ATOM     30 CL   UNL     1       7.670   7.027  17.359  0.00  0.00    +0.000 Cl
ENDBRANCH  22  23
ENDBRANCH   4  22
TORSDOF 5
ENDMDL
MODEL 2
REMARK VINA RESULT:      -7.5      4.323      8.939
REMARK  Name = 
REMARK  5 active torsions:
REMARK  status: ('A' for Active; 'I' for Inactive)
REMARK    1  A    between atoms: C_2  and  C_3
REMARK    2  A    between atoms: C_6  and  N_7
REMARK    3  A    between atoms: C_10  and  C_11
REMARK    4  A    between atoms: C_11  and  C_12
REMARK    5  A    between atoms: N_22  and  N_23
REMARK                            x       y       z     vdW  Elec       q    Type
REMARK                         _______ _______ _______ _____ _____    ______ ____
ROOT
ATOM      1  N   UNL     1       1.853   8.849  18.822  0.00  0.00    +0.000 N 
ATOM      2  C   UNL     1       0.947   9.655  19.520  0.00  0.00    +0.000 A 
ATOM      3  N   UNL     1       0.314  10.578  18.806  0.00  0.00    +0.000 NA
ATOM      4  C   UNL     1      -0.631  11.266  19.454  0.00  0.00    +0.000 A 
ATOM      5  N   UNL     1      -0.914  11.124  20.748  0.00  0.00    +0.000 NA
ATOM      6  C   UNL     1      -0.200  10.209  21.387  0.00  0.00    +0.000 A 
ATOM      7  N   UNL     1      -0.445  10.032  22.766  0.00  0.00    +0.000 N 
ATOM      8  N   UNL     1       0.719   9.449  20.809  0.00  0.00    +0.000 NA
ATOM      9  H   UNL     1       1.887   9.151  17.857  0.00  0.00    +0.000 HD
ATOM     10  H   UNL     1      -0.948  10.857  23.091  0.00  0.00    +0.000 HD
ENDROOT
BRANCH   1  14
ATOM     11  C   UNL     1       3.040   4.849  19.513  0.00  0.00    +0.000 A 
ATOM     12  C   UNL     1       3.466   5.536  18.373  0.00  0.00    +0.000 A 
ATOM     13  C   UNL     1       3.079   6.867  18.169  0.00  0.00    +0.000 A 
ATOM     14  C   UNL     1       2.252   7.531  19.089  0.00  0.00    +0.000 A 
ATOM     15  C   UNL     1       1.854   6.822  20.231  0.00  0.00    +0.000 A 
ATOM     16  C   UNL     1       2.235   5.497  20.444  0.00  0.00    +0.000 A 
BRANCH  11  18
ATOM     17  N   UNL     1       3.754   2.389  19.905  0.00  0.00    +0.000 NA
ATOM     18  C   UNL     1       3.433   3.494  19.730  0.00  0.00    +0.000 C 
ENDBRANCH  11  18
ENDBRANCH   1  14
BRANCH   7  19
ATOM     19  N   UNL     1       0.617   9.555  23.587  0.00  0.00    +0.000 NA
ATOM     20  H   UNL     1       0.918   8.636  23.237  0.00  0.00    +0.000 HD
ATOM     21  H   UNL     1       0.255   9.367  24.526  0.00  0.00    +0.000 HD
ENDBRANCH   7  19
BRANCH   4  22
ATOM     22  C   UNL     1      -1.496  12.209  18.644  0.00  0.00    +0.000 C 
BRANCH  22  23
ATOM     23  C   UNL     1      -2.948  11.789  18.561  0.00  0.00    +0.000 A 
ATOM     24  C   UNL     1      -3.386  10.868  17.588  0.00  0.00    +0.000 A 
ATOM     25 CL   UNL     1      -2.290  10.052  16.526  0.00  0.00    +0.000 Cl
ATOM     26  C   UNL     1      -4.743  10.553  17.445  0.00  0.00    +0.000 A 
ATOM     27  C   UNL     1      -5.691  11.130  18.283  0.00  0.00    +0.000 A 
ATOM     28  C   UNL     1      -5.279  12.011  19.277  0.00  0.00    +0.000 A 
ATOM     29  C   UNL     1      -3.923  12.342  19.414  0.00  0.00    +0.000 A 
ATOM     30 CL   UNL     1      -3.521  13.446  20.684  0.00  0.00    +0.000 Cl
ENDBRANCH  22  23
ENDBRANCH   4  22
TORSDOF 5
ENDMDL
MODEL 3
REMARK VINA RESULT:      -7.4      4.333      9.008
REMARK  Name = 
REMARK  5 active torsions:
REMARK  status: ('A' for Active; 'I' for Inactive)
REMARK    1  A    between atoms: C_2  and  C_3
REMARK    2  A    between atoms: C_6  and  N_7
REMARK    3  A    between atoms: C_10  and  C_11
REMARK    4  A    between atoms: C_11  and  C_12
REMARK    5  A    between atoms: N_22  and  N_23
REMARK                            x       y       z     vdW  Elec       q    Type
REMARK                         _______ _______ _______ _____ _____    ______ ____
ROOT
ATOM      1  N   UNL     1       1.808   8.869  18.850  0.00  0.00    +0.000 N 
ATOM      2  C   UNL     1       0.909   9.689  19.542  0.00  0.00    +0.000 A 
ATOM      3  N   UNL     1       0.293  10.619  18.823  0.00  0.00    +0.000 NA
ATOM      4  C   UNL     1      -0.645  11.323  19.465  0.00  0.00    +0.000 A 
ATOM      5  N   UNL     1      -0.936  11.187  20.758  0.00  0.00    +0.000 NA
ATOM      6  C   UNL     1      -0.239  10.263  21.402  0.00  0.00    +0.000 A 
ATOM      7  N   UNL     1      -0.493  10.093  22.780  0.00  0.00    +0.000 N 
ATOM      8  N   UNL     1       0.672   9.489  20.830  0.00  0.00    +0.000 NA
ATOM      9  H   UNL     1       1.850   9.168  17.885  0.00  0.00    +0.000 HD
ATOM     10  H   UNL     1      -0.985  10.926  23.101  0.00  0.00    +0.000 HD
ENDROOT
BRANCH   1  14
ATOM     11  C   UNL     1       2.931   4.853  19.555  0.00  0.00    +0.000 A 
ATOM     12  C   UNL     1       3.351   5.523  18.403  0.00  0.00    +0.000 A 
ATOM     13  C   UNL     1       2.986   6.859  18.194  0.00  0.00    +0.000 A 
ATOM     14  C   UNL     1       2.186   7.545  19.122  0.00  0.00    +0.000 A 
ATOM     15  C   UNL     1       1.793   6.854  20.276  0.00  0.00    +0.000 A 
ATOM     16  C   UNL     1       2.153   5.524  20.493  0.00  0.00    +0.000 A 
BRANCH  11  18
ATOM     17  N   UNL     1       3.603   2.383  19.960  0.00  0.00    +0.000 NA
ATOM     18  C   UNL     1       3.303   3.493  19.778  0.00  0.00    +0.000 C 
ENDBRANCH  11  18
ENDBRANCH   1  14
BRANCH   7  19
ATOM     19  N   UNL     1       0.558   9.603  23.608  0.00  0.00    +0.000 NA
ATOM     20  H   UNL     1       1.130  10.398  23.921  0.00  0.00    +0.000 HD
ATOM     21  H   UNL     1       1.194   9.036  23.042  0.00  0.00    +0.000 HD
ENDBRANCH   7  19
BRANCH   4  22
ATOM     22  C   UNL     1      -1.492  12.276  18.649  0.00  0.00    +0.000 C 
BRANCH  22  23
ATOM     23  C   UNL     1      -2.941  11.854  18.523  0.00  0.00    +0.000 A 
ATOM     24  C   UNL     1      -3.924  12.347  19.404  0.00  0.00    +0.000 A 
ATOM     25 CL   UNL     1      -3.580  13.564  20.585  0.00  0.00    +0.000 Cl
ATOM     26  C   UNL     1      -5.244  11.884  19.352  0.00  0.00    +0.000 A 
ATOM     27  C   UNL     1      -5.620  10.936  18.406  0.00  0.00    +0.000 A 
ATOM     28  C   UNL     1      -4.677  10.463  17.500  0.00  0.00    +0.000 A 
ATOM     29  C   UNL     1      -3.351  10.912  17.558  0.00  0.00    +0.000 A 
ATOM     30 CL   UNL     1      -2.262  10.260  16.383  0.00  0.00    +0.000 Cl
ENDBRANCH  22  23
ENDBRANCH   4  22
TORSDOF 5
ENDMDL
MODEL 4
REMARK VINA RESULT:      -7.3      3.094      4.629
REMARK  Name = 
REMARK  5 active torsions:
REMARK  status: ('A' for Active; 'I' for Inactive)
REMARK    1  A    between atoms: C_2  and  C_3
REMARK    2  A    between atoms: C_6  and  N_7
REMARK    3  A    between atoms: C_10  and  C_11
REMARK    4  A    between atoms: C_11  and  C_12
REMARK    5  A    between atoms: N_22  and  N_23
REMARK                            x       y       z     vdW  Elec       q    Type
REMARK                         _______ _______ _______ _____ _____    ______ ____
ROOT
ATOM      1  N   UNL     1       1.556  10.522  17.707  0.00  0.00    +0.000 N 
ATOM      2  C   UNL     1       1.798   9.315  18.375  0.00  0.00    +0.000 A 
ATOM      3  N   UNL     1       2.418   8.374  17.674  0.00  0.00    +0.000 NA
ATOM      4  C   UNL     1       2.746   7.269  18.350  0.00  0.00    +0.000 A 
ATOM      5  N   UNL     1       2.438   7.047  19.627  0.00  0.00    +0.000 NA
ATOM      6  C   UNL     1       1.782   8.026  20.231  0.00  0.00    +0.000 A 
ATOM      7  N   UNL     1       1.412   7.834  21.579  0.00  0.00    +0.000 N 
ATOM      8  N   UNL     1       1.462   9.173  19.648  0.00  0.00    +0.000 NA
ATOM      9  H   UNL     1       1.885  10.442  16.754  0.00  0.00    +0.000 HD
ATOM     10  H   UNL     1       1.475   6.834  21.769  0.00  0.00    +0.000 HD
ENDROOT
BRANCH   1  14
ATOM     11  C   UNL     1       1.114  14.440  19.237  0.00  0.00    +0.000 A 
ATOM     12  C   UNL     1       0.012  13.589  19.117  0.00  0.00    +0.000 A 
ATOM     13  C   UNL     1       0.179  12.288  18.626  0.00  0.00    +0.000 A 
ATOM     14  C   UNL     1       1.443  11.817  18.235  0.00  0.00    +0.000 A 
ATOM     15  C   UNL     1       2.532  12.686  18.381  0.00  0.00    +0.000 A 
ATOM     16  C   UNL     1       2.376  13.983  18.871  0.00  0.00    +0.000 A 
BRANCH  11  18
ATOM     17  N   UNL     1       0.824  16.848  20.150  0.00  0.00    +0.000 NA
ATOM     18  C   UNL     1       0.953  15.766  19.740  0.00  0.00    +0.000 C 
ENDBRANCH  11  18
ENDBRANCH   1  14
BRANCH   7  19
ATOM     19  N   UNL     1       0.261   8.515  22.070  0.00  0.00    +0.000 NA
ATOM     20  H   UNL     1       0.566   9.367  22.561  0.00  0.00    +0.000 HD
ATOM     21  H   UNL     1      -0.181   7.946  22.796  0.00  0.00    +0.000 HD
ENDBRANCH   7  19
BRANCH   4  22
ATOM     22  C   UNL     1       3.602   6.239  17.643  0.00  0.00    +0.000 C 
BRANCH  22  23
ATOM     23  C   UNL     1       3.584   4.874  18.299  0.00  0.00    +0.000 A 
ATOM     24  C   UNL     1       4.688   4.406  19.040  0.00  0.00    +0.000 A 
ATOM     25 CL   UNL     1       6.066   5.399  19.373  0.00  0.00    +0.000 Cl
ATOM     26  C   UNL     1       4.714   3.108  19.563  0.00  0.00    +0.000 A 
ATOM     27  C   UNL     1       3.631   2.254  19.380  0.00  0.00    +0.000 A 
ATOM     28  C   UNL     1       2.514   2.706  18.686  0.00  0.00    +0.000 A 
ATOM     29  C   UNL     1       2.490   3.999  18.146  0.00  0.00    +0.000 A 
ATOM     30 CL   UNL     1       1.050   4.459  17.304  0.00  0.00    +0.000 Cl
ENDBRANCH  22  23
ENDBRANCH   4  22
TORSDOF 5
ENDMDL
MODEL 5
REMARK VINA RESULT:      -7.3      0.113      1.798
REMARK  Name = 
REMARK  5 active torsions:
REMARK  status: ('A' for Active; 'I' for Inactive)
REMARK    1  A    between atoms: C_2  and  C_3
REMARK    2  A    between atoms: C_6  and  N_7
REMARK    3  A    between atoms: C_10  and  C_11
REMARK    4  A    between atoms: C_11  and  C_12
REMARK    5  A    between atoms: N_22  and  N_23
REMARK                            x       y       z     vdW  Elec       q    Type
REMARK                         _______ _______ _______ _____ _____    ______ ____
ROOT
ATOM      1  N   UNL     1       2.334   7.918  19.298  0.00  0.00    +0.000 N 
ATOM      2  C   UNL     1       2.783   6.595  19.391  0.00  0.00    +0.000 A 
ATOM      3  N   UNL     1       3.985   6.348  18.886  0.00  0.00    +0.000 NA
ATOM      4  C   UNL     1       4.453   5.111  19.078  0.00  0.00    +0.000 A 
ATOM      5  N   UNL     1       3.772   4.132  19.672  0.00  0.00    +0.000 NA
ATOM      6  C   UNL     1       2.565   4.462  20.105  0.00  0.00    +0.000 A 
ATOM      7  N   UNL     1       1.793   3.456  20.723  0.00  0.00    +0.000 N 
ATOM      8  N   UNL     1       2.046   5.677  19.999  0.00  0.00    +0.000 NA
ATOM      9  H   UNL     1       3.030   8.467  18.811  0.00  0.00    +0.000 HD
ATOM     10  H   UNL     1       2.206   2.559  20.470  0.00  0.00    +0.000 HD
ENDROOT
BRANCH   1  14
ATOM     11  C   UNL     1      -0.315  10.108  21.762  0.00  0.00    +0.000 A 
ATOM     12  C   UNL     1      -0.290  10.309  20.379  0.00  0.00    +0.000 A 
ATOM     13  C   UNL     1       0.579   9.562  19.575  0.00  0.00    +0.000 A 
ATOM     14  C   UNL     1       1.449   8.612  20.136  0.00  0.00    +0.000 A 
ATOM     15  C   UNL     1       1.391   8.420  21.523  0.00  0.00    +0.000 A 
ATOM     16  C   UNL     1       0.527   9.158  22.331  0.00  0.00    +0.000 A 
BRANCH  11  18
ATOM     17  N   UNL     1      -1.922  11.480  23.262  0.00  0.00    +0.000 NA
ATOM     18  C   UNL     1      -1.201  10.863  22.588  0.00  0.00    +0.000 C 
ENDBRANCH  11  18
ENDBRANCH   1  14
BRANCH   7  19
ATOM     19  N   UNL     1       0.373   3.554  20.659  0.00  0.00    +0.000 NA
ATOM     20  H   UNL     1       0.010   3.722  21.606  0.00  0.00    +0.000 HD
ATOM     21  H   UNL     1      -0.015   2.646  20.392  0.00  0.00    +0.000 HD
ENDBRANCH   7  19
BRANCH   4  22
ATOM     22  C   UNL     1       5.884   4.828  18.672  0.00  0.00    +0.000 C 
BRANCH  22  23
ATOM     23  C   UNL     1       6.098   4.778  17.174  0.00  0.00    +0.000 A 
ATOM     24  C   UNL     1       6.872   5.754  16.515  0.00  0.00    +0.000 A 
ATOM     25 CL   UNL     1       7.742   6.980  17.373  0.00  0.00    +0.000 Cl
ATOM     26  C   UNL     1       6.991   5.767  15.120  0.00  0.00    +0.000 A 
ATOM     27  C   UNL     1       6.359   4.794  14.352  0.00  0.00    +0.000 A 
ATOM     28  C   UNL     1       5.623   3.797  14.982  0.00  0.00    +0.000 A 
ATOM     29  C   UNL     1       5.488   3.789  16.377  0.00  0.00    +0.000 A 
ATOM     30 CL   UNL     1       4.551   2.504  17.056  0.00  0.00    +0.000 Cl
ENDBRANCH  22  23
ENDBRANCH   4  22
TORSDOF 5
ENDMDL
MODEL 6
REMARK VINA RESULT:      -7.3      4.131      8.762
REMARK  Name = 
REMARK  5 active torsions:
REMARK  status: ('A' for Active; 'I' for Inactive)
REMARK    1  A    between atoms: C_2  and  C_3
REMARK    2  A    between atoms: C_6  and  N_7
REMARK    3  A    between atoms: C_10  and  C_11
REMARK    4  A    between atoms: C_11  and  C_12
REMARK    5  A    between atoms: N_22  and  N_23
REMARK                            x       y       z     vdW  Elec       q    Type
REMARK                         _______ _______ _______ _____ _____    ______ ____
ROOT
ATOM      1  N   UNL     1       2.223   8.169  17.830  0.00  0.00    +0.000 N 
ATOM      2  C   UNL     1       1.537   9.063  18.660  0.00  0.00    +0.000 A 
ATOM      3  N   UNL     1       0.901  10.056  18.050  0.00  0.00    +0.000 NA
ATOM      4  C   UNL     1       0.157  10.839  18.838  0.00  0.00    +0.000 A 
ATOM      5  N   UNL     1       0.076  10.717  20.162  0.00  0.00    +0.000 NA
ATOM      6  C   UNL     1       0.780   9.723  20.684  0.00  0.00    +0.000 A 
ATOM      7  N   UNL     1       0.745   9.562  22.086  0.00  0.00    +0.000 N 
ATOM      8  N   UNL     1       1.502   8.872  19.970  0.00  0.00    +0.000 NA
ATOM      9  H   UNL     1       2.131   8.474  16.870  0.00  0.00    +0.000 HD
ATOM     10  H   UNL     1       0.397  10.435  22.481  0.00  0.00    +0.000 HD
ENDROOT
BRANCH   1  14
ATOM     11  C   UNL     1       3.192   4.091  18.395  0.00  0.00    +0.000 A 
ATOM     12  C   UNL     1       4.189   5.070  18.383  0.00  0.00    +0.000 A 
ATOM     13  C   UNL     1       3.850   6.418  18.215  0.00  0.00    +0.000 A 
ATOM     14  C   UNL     1       2.513   6.812  18.040  0.00  0.00    +0.000 A 
ATOM     15  C   UNL     1       1.533   5.811  18.072  0.00  0.00    +0.000 A 
ATOM     16  C   UNL     1       1.861   4.466  18.241  0.00  0.00    +0.000 A 
BRANCH  11  18
ATOM     17  N   UNL     1       3.807   1.594  18.714  0.00  0.00    +0.000 NA
ATOM     18  C   UNL     1       3.529   2.715  18.571  0.00  0.00    +0.000 C 
ENDBRANCH  11  18
ENDBRANCH   1  14
BRANCH   7  19
ATOM     19  N   UNL     1       1.869   8.964  22.727  0.00  0.00    +0.000 NA
ATOM     20  H   UNL     1       2.703   9.532  22.530  0.00  0.00    +0.000 HD
ATOM     21  H   UNL     1       2.063   8.060  22.288  0.00  0.00    +0.000 HD
ENDBRANCH   7  19
BRANCH   4  22
ATOM     22  C   UNL     1      -0.720  11.878  18.172  0.00  0.00    +0.000 C 
BRANCH  22  23
ATOM     23  C   UNL     1      -2.199  11.692  18.437  0.00  0.00    +0.000 A 
ATOM     24  C   UNL     1      -2.977  10.820  17.649  0.00  0.00    +0.000 A 
ATOM     25 CL   UNL     1      -2.283   9.803  16.433  0.00  0.00    +0.000 Cl
ATOM     26  C   UNL     1      -4.362  10.721  17.828  0.00  0.00    +0.000 A 
ATOM     27  C   UNL     1      -5.000  11.471  18.811  0.00  0.00    +0.000 A 
ATOM     28  C   UNL     1      -4.248  12.309  19.628  0.00  0.00    +0.000 A 
ATOM     29  C   UNL     1      -2.863  12.423  19.442  0.00  0.00    +0.000 A 
ATOM     30 CL   UNL     1      -2.025  13.492  20.513  0.00  0.00    +0.000 Cl
ENDBRANCH  22  23
ENDBRANCH   4  22
TORSDOF 5
ENDMDL
MODEL 7
REMARK VINA RESULT:      -7.3      1.505      2.247
REMARK  Name = 
REMARK  5 active torsions:
REMARK  status: ('A' for Active; 'I' for Inactive)
REMARK    1  A    between atoms: C_2  and  C_3
REMARK    2  A    between atoms: C_6  and  N_7
REMARK    3  A    between atoms: C_10  and  C_11
REMARK    4  A    between atoms: C_11  and  C_12
REMARK    5  A    between atoms: N_22  and  N_23
REMARK                            x       y       z     vdW  Elec       q    Type
REMARK                         _______ _______ _______ _____ _____    ______ ____
ROOT
ATOM      1  N   UNL     1       2.350   7.498  19.115  0.00  0.00    +0.000 N 
ATOM      2  C   UNL     1       2.862   6.204  19.271  0.00  0.00    +0.000 A 
ATOM      3  N   UNL     1       3.990   5.939  18.623  0.00  0.00    +0.000 NA
ATOM      4  C   UNL     1       4.531   4.742  18.867  0.00  0.00    +0.000 A 
ATOM      5  N   UNL     1       3.983   3.811  19.648  0.00  0.00    +0.000 NA
ATOM      6  C   UNL     1       2.837   4.152  20.217  0.00  0.00    +0.000 A 
ATOM      7  N   UNL     1       2.203   3.194  21.038  0.00  0.00    +0.000 N 
ATOM      8  N   UNL     1       2.259   5.335  20.068  0.00  0.00    +0.000 NA
ATOM      9  H   UNL     1       2.946   8.012  18.480  0.00  0.00    +0.000 HD
ATOM     10  H   UNL     1       2.614   2.288  20.816  0.00  0.00    +0.000 HD
ENDROOT
BRANCH   1  14
ATOM     11  C   UNL     1       0.014   9.866  21.726  0.00  0.00    +0.000 A 
ATOM     12  C   UNL     1       0.048  10.131  20.355  0.00  0.00    +0.000 A 
ATOM     13  C   UNL     1       0.811   9.325  19.501  0.00  0.00    +0.000 A 
ATOM     14  C   UNL     1       1.565   8.251  20.000  0.00  0.00    +0.000 A 
ATOM     15  C   UNL     1       1.500   7.999  21.377  0.00  0.00    +0.000 A 
ATOM     16  C   UNL     1       0.741   8.795  22.235  0.00  0.00    +0.000 A 
BRANCH  11  18
ATOM     17  N   UNL     1      -1.398  11.345  23.318  0.00  0.00    +0.000 NA
ATOM     18  C   UNL     1      -0.765  10.681  22.603  0.00  0.00    +0.000 C 
ENDBRANCH  11  18
ENDBRANCH   1  14
BRANCH   7  19
ATOM     19  N   UNL     1       0.786   3.248  21.171  0.00  0.00    +0.000 NA
ATOM     20  H   UNL     1       0.428   2.290  21.286  0.00  0.00    +0.000 HD
ATOM     21  H   UNL     1       0.378   3.571  20.290  0.00  0.00    +0.000 HD
ENDBRANCH   7  19
BRANCH   4  22
ATOM     22  C   UNL     1       5.900   4.457  18.287  0.00  0.00    +0.000 C 
BRANCH  22  23
ATOM     23  C   UNL     1       6.732   5.698  18.039  0.00  0.00    +0.000 A 
ATOM     24  C   UNL     1       7.676   6.143  18.985  0.00  0.00    +0.000 A 
ATOM     25 CL   UNL     1       8.054   5.240  20.412  0.00  0.00    +0.000 Cl
ATOM     26  C   UNL     1       8.376   7.343  18.804  0.00  0.00    +0.000 A 
ATOM     27  C   UNL     1       8.165   8.114  17.665  0.00  0.00    +0.000 A 
ATOM     28  C   UNL     1       7.268   7.675  16.698  0.00  0.00    +0.000 A 
ATOM     29  C   UNL     1       6.553   6.483  16.883  0.00  0.00    +0.000 A 
ATOM     30 CL   UNL     1       5.464   6.030  15.617  0.00  0.00    +0.000 Cl
ENDBRANCH  22  23
ENDBRANCH   4  22
TORSDOF 5
ENDMDL
MODEL 8
REMARK VINA RESULT:      -7.3      3.066      4.410
REMARK  Name = 
REMARK  5 active torsions:
REMARK  status: ('A' for Active; 'I' for Inactive)
REMARK    1  A    between atoms: C_2  and  C_3
REMARK    2  A    between atoms: C_6  and  N_7
REMARK    3  A    between atoms: C_10  and  C_11
REMARK    4  A    between atoms: C_11  and  C_12
REMARK    5  A    between atoms: N_22  and  N_23
REMARK                            x       y       z     vdW  Elec       q    Type
REMARK                         _______ _______ _______ _____ _____    ______ ____
ROOT
ATOM      1  N   UNL     1       1.616  10.495  17.680  0.00  0.00    +0.000 N 
ATOM      2  C   UNL     1       1.831   9.287  18.354  0.00  0.00    +0.000 A 
ATOM      3  N   UNL     1       2.463   8.341  17.670  0.00  0.00    +0.000 NA
ATOM      4  C   UNL     1       2.764   7.233  18.355  0.00  0.00    +0.000 A 
ATOM      5  N   UNL     1       2.417   7.013  19.623  0.00  0.00    +0.000 NA
ATOM      6  C   UNL     1       1.752   7.998  20.208  0.00  0.00    +0.000 A 
ATOM      7  N   UNL     1       1.343   7.808  21.545  0.00  0.00    +0.000 N 
ATOM      8  N   UNL     1       1.458   9.147  19.617  0.00  0.00    +0.000 NA
ATOM      9  H   UNL     1       1.972  10.413  16.737  0.00  0.00    +0.000 HD
ATOM     10  H   UNL     1       1.393   6.808  21.737  0.00  0.00    +0.000 HD
ENDROOT
BRANCH   1  14
ATOM     11  C   UNL     1       1.153  14.409  19.214  0.00  0.00    +0.000 A 
ATOM     12  C   UNL     1       0.092  13.500  19.237  0.00  0.00    +0.000 A 
ATOM     13  C   UNL     1       0.268  12.201  18.743  0.00  0.00    +0.000 A 
ATOM     14  C   UNL     1       1.498  11.791  18.205  0.00  0.00    +0.000 A 
ATOM     15  C   UNL     1       2.549  12.719  18.209  0.00  0.00    +0.000 A 
ATOM     16  C   UNL     1       2.383  14.013  18.701  0.00  0.00    +0.000 A 
BRANCH  11  18
ATOM     17  N   UNL     1       0.842  16.812  20.132  0.00  0.00    +0.000 NA
ATOM     18  C   UNL     1       0.982  15.733  19.720  0.00  0.00    +0.000 C 
ENDBRANCH  11  18
ENDBRANCH   1  14
BRANCH   7  19
ATOM     19  N   UNL     1       0.184   8.498  22.004  0.00  0.00    +0.000 NA
ATOM     20  H   UNL     1      -0.646   8.078  21.566  0.00  0.00    +0.000 HD
ATOM     21  H   UNL     1       0.203   9.458  21.651  0.00  0.00    +0.000 HD
ENDBRANCH   7  19
BRANCH   4  22
ATOM     22  C   UNL     1       3.630   6.197  17.673  0.00  0.00    +0.000 C 
BRANCH  22  23
ATOM     23  C   UNL     1       3.615   4.842  18.349  0.00  0.00    +0.000 A 
ATOM     24  C   UNL     1       2.483   4.005  18.279  0.00  0.00    +0.000 A 
ATOM     25 CL   UNL     1       1.104   4.393  17.309  0.00  0.00    +0.000 Cl
ATOM     26  C   UNL     1       2.429   2.796  18.984  0.00  0.00    +0.000 A 
ATOM     27  C   UNL     1       3.510   2.384  19.757  0.00  0.00    +0.000 A 
ATOM     28  C   UNL     1       4.653   3.174  19.810  0.00  0.00    +0.000 A 
ATOM     29  C   UNL     1       4.706   4.392  19.119  0.00  0.00    +0.000 A 
ATOM     30 CL   UNL     1       6.176   5.294  19.253  0.00  0.00    +0.000 Cl
ENDBRANCH  22  23
ENDBRANCH   4  22
TORSDOF 5
ENDMDL
MODEL 9
REMARK VINA RESULT:      -7.3      4.667      9.416
REMARK  Name = 
REMARK  5 active torsions:
REMARK  status: ('A' for Active; 'I' for Inactive)
REMARK    1  A    between atoms: C_2  and  C_3
REMARK    2  A    between atoms: C_6  and  N_7
REMARK    3  A    between atoms: C_10  and  C_11
REMARK    4  A    between atoms: C_11  and  C_12
REMARK    5  A    between atoms: N_22  and  N_23
REMARK                            x       y       z     vdW  Elec       q    Type
REMARK                         _______ _______ _______ _____ _____    ______ ____
ROOT
ATOM      1  N   UNL     1       1.351   9.860  19.106  0.00  0.00    +0.000 N 
ATOM      2  C   UNL     1       0.407  10.421  19.974  0.00  0.00    +0.000 A 
ATOM      3  N   UNL     1      -0.347  11.390  19.469  0.00  0.00    +0.000 NA
ATOM      4  C   UNL     1      -1.320  11.842  20.266  0.00  0.00    +0.000 A 
ATOM      5  N   UNL     1      -1.523  11.431  21.517  0.00  0.00    +0.000 NA
ATOM      6  C   UNL     1      -0.693  10.492  21.946  0.00  0.00    +0.000 A 
ATOM      7  N   UNL     1      -0.850  10.035  23.272  0.00  0.00    +0.000 N 
ATOM      8  N   UNL     1       0.265   9.954  21.205  0.00  0.00    +0.000 NA
ATOM      9  H   UNL     1       1.307  10.339  18.216  0.00  0.00    +0.000 HD
ATOM     10  H   UNL     1      -1.413  10.727  23.766  0.00  0.00    +0.000 HD
ENDROOT
BRANCH   1  14
ATOM     11  C   UNL     1       2.939   5.941  18.983  0.00  0.00    +0.000 A 
ATOM     12  C   UNL     1       3.111   6.819  17.909  0.00  0.00    +0.000 A 
ATOM     13  C   UNL     1       2.596   8.119  17.974  0.00  0.00    +0.000 A 
ATOM     14  C   UNL     1       1.889   8.563  19.103  0.00  0.00    +0.000 A 
ATOM     15  C   UNL     1       1.745   7.668  20.171  0.00  0.00    +0.000 A 
ATOM     16  C   UNL     1       2.256   6.371  20.117  0.00  0.00    +0.000 A 
BRANCH  11  18
ATOM     17  N   UNL     1       3.893   3.534  18.883  0.00  0.00    +0.000 NA
ATOM     18  C   UNL     1       3.465   4.615  18.927  0.00  0.00    +0.000 C 
ENDBRANCH  11  18
ENDBRANCH   1  14
BRANCH   7  19
ATOM     19  N   UNL     1       0.293   9.526  23.954  0.00  0.00    +0.000 NA
ATOM     20  H   UNL     1       0.392  10.022  24.850  0.00  0.00    +0.000 HD
ATOM     21  H   UNL     1       1.135   9.774  23.429  0.00  0.00    +0.000 HD
ENDBRANCH   7  19
BRANCH   4  22
ATOM     22  C   UNL     1      -2.311  12.824  19.679  0.00  0.00    +0.000 C 
BRANCH  22  23
ATOM     23  C   UNL     1      -3.667  12.220  19.377  0.00  0.00    +0.000 A 
ATOM     24  C   UNL     1      -3.907  11.536  18.168  0.00  0.00    +0.000 A 
ATOM     25 CL   UNL     1      -2.651  11.214  17.022  0.00  0.00    +0.000 Cl
ATOM     26  C   UNL     1      -5.184  11.062  17.843  0.00  0.00    +0.000 A 
ATOM     27  C   UNL     1      -6.245  11.240  18.725  0.00  0.00    +0.000 A 
ATOM     28  C   UNL     1      -6.024  11.876  19.942  0.00  0.00    +0.000 A 
ATOM     29  C   UNL     1      -4.751  12.366  20.264  0.00  0.00    +0.000 A 
ATOM     30 CL   UNL     1      -4.588  13.140  21.803  0.00  0.00    +0.000 Cl
ENDBRANCH  22  23
ENDBRANCH   4  22
TORSDOF 5
ENDMDL
