MODEL 1
REMARK VINA RESULT:      -7.7      0.000      0.000
REMARK  Name = 
REMARK  4 active torsions:
REMARK  status: ('A' for Active; 'I' for Inactive)
REMARK    1  A    between atoms: N_1  and  C_2
REMARK    2  A    between atoms: C_7  and  N_8
REMARK    3  A    between atoms: C_11  and  O_12
REMARK    4  A    between atoms: C_20  and  C_21
REMARK                            x       y       z     vdW  Elec       q    Type
REMARK                         _______ _______ _______ _____ _____    ______ ____
ROOT
ATOM      1  C   UNL     1       1.589   7.261  20.089  0.00  0.00    +0.000 C 
ATOM      2  C   UNL     1       1.586   8.730  20.511  0.00  0.00    +0.000 C 
ATOM      3  N   UNL     1       1.465   9.640  19.392  0.00  0.00    +0.000 N 
ATOM      4  C   UNL     1       0.429  10.598  19.427  0.00  0.00    +0.000 A 
ATOM      5  C   UNL     1       0.676  11.905  19.082  0.00  0.00    +0.000 A 
ATOM      6  C   UNL     1      -0.364  12.804  19.168  0.00  0.00    +0.000 A 
ATOM      7  N   UNL     1      -1.606  12.384  19.459  0.00  0.00    +0.000 NA
ATOM      8  C   UNL     1      -1.760  11.083  19.742  0.00  0.00    +0.000 A 
ATOM      9  N   UNL     1      -0.786  10.168  19.802  0.00  0.00    +0.000 NA
ATOM     10  C   UNL     1       2.272   9.512  18.276  0.00  0.00    +0.000 C 
ATOM     11  O   UNL     1       2.638  10.434  17.545  0.00  0.00    +0.000 OA
ATOM     12  C   UNL     1       2.431   8.075  17.823  0.00  0.00    +0.000 C 
ATOM     13  C   UNL     1       2.623   7.060  18.952  0.00  0.00    +0.000 C 
ENDROOT
BRANCH  13  14
ATOM     14  C   UNL     1       2.558   5.643  18.396  0.00  0.00    +0.000 A 
ATOM     15  C   UNL     1       1.478   4.789  18.693  0.00  0.00    +0.000 A 
ATOM     16  C   UNL     1       1.463   3.486  18.205  0.00  0.00    +0.000 A 
ATOM     17  F   UNL     1       0.427   2.690  18.499  0.00  0.00    +0.000 F 
ATOM     18  C   UNL     1       2.512   3.016  17.425  0.00  0.00    +0.000 A 
ATOM     19  F   UNL     1       2.495   1.758  16.965  0.00  0.00    +0.000 F 
ATOM     20  C   UNL     1       3.586   3.841  17.119  0.00  0.00    +0.000 A 
ATOM     21  C   UNL     1       3.601   5.145  17.605  0.00  0.00    +0.000 A 
ATOM     22  F   UNL     1       4.645   5.930  17.304  0.00  0.00    +0.000 F 
ENDBRANCH  13  14
BRANCH   6  23
ATOM     23  N   UNL     1      -0.145  14.147  18.937  0.00  0.00    +0.000 N 
ATOM     24  C   UNL     1       1.188  14.635  18.573  0.00  0.00    +0.000 C 
ATOM     25  C   UNL     1       1.196  16.109  18.988  0.00  0.00    +0.000 C 
ATOM     26  C   UNL     1      -0.279  16.446  19.170  0.00  0.00    +0.000 C 
ATOM     27  C   UNL     1      -0.857  15.143  19.737  0.00  0.00    +0.000 C 
BRANCH  26  28
ATOM     28  O   UNL     1      -0.853  16.732  17.889  0.00  0.00    +0.000 OA
ATOM     29  H   UNL     1      -0.126  17.101  17.348  0.00  0.00    +0.000 HD
ENDBRANCH  26  28
ENDBRANCH   6  23
BRANCH   1  30
ATOM     30  N   UNL     1       1.889   6.388  21.237  0.00  0.00    +0.000 NA
ATOM     31  H   UNL     1       2.866   6.093  21.210  0.00  0.00    +0.000 HD
ATOM     32  H   UNL     1       1.331   5.533  21.194  0.00  0.00    +0.000 HD
ENDBRANCH   1  30
TORSDOF 4
ENDMDL
MODEL 2
REMARK VINA RESULT:      -7.4      3.909      6.204
REMARK  Name = 
REMARK  4 active torsions:
REMARK  status: ('A' for Active; 'I' for Inactive)
REMARK    1  A    between atoms: N_1  and  C_2
REMARK    2  A    between atoms: C_7  and  N_8
REMARK    3  A    between atoms: C_11  and  O_12
REMARK    4  A    between atoms: C_20  and  C_21
REMARK                            x       y       z     vdW  Elec       q    Type
REMARK                         _______ _______ _______ _____ _____    ______ ____
ROOT
ATOM      1  C   UNL     1       5.928   4.968  17.482  0.00  0.00    +0.000 C 
ATOM      2  C   UNL     1       5.440   5.726  18.716  0.00  0.00    +0.000 C 
ATOM      3  N   UNL     1       4.238   6.493  18.471  0.00  0.00    +0.000 N 
ATOM      4  C   UNL     1       3.130   6.279  19.319  0.00  0.00    +0.000 A 
ATOM      5  C   UNL     1       2.421   7.343  19.821  0.00  0.00    +0.000 A 
ATOM      6  C   UNL     1       1.371   7.076  20.672  0.00  0.00    +0.000 A 
ATOM      7  N   UNL     1       0.981   5.811  20.897  0.00  0.00    +0.000 NA
ATOM      8  C   UNL     1       1.708   4.838  20.331  0.00  0.00    +0.000 A 
ATOM      9  N   UNL     1       2.812   5.004  19.595  0.00  0.00    +0.000 NA
ATOM     10  C   UNL     1       4.139   7.336  17.377  0.00  0.00    +0.000 C 
ATOM     11  O   UNL     1       3.467   8.367  17.325  0.00  0.00    +0.000 OA
ATOM     12  C   UNL     1       4.690   6.723  16.106  0.00  0.00    +0.000 C 
ATOM     13  C   UNL     1       5.995   5.943  16.280  0.00  0.00    +0.000 C 
ENDROOT
BRANCH  13  14
ATOM     14  C   UNL     1       6.335   5.202  14.992  0.00  0.00    +0.000 A 
ATOM     15  C   UNL     1       7.418   5.597  14.184  0.00  0.00    +0.000 A 
ATOM     16  C   UNL     1       7.681   4.928  12.993  0.00  0.00    +0.000 A 
ATOM     17  F   UNL     1       8.717   5.321  12.239  0.00  0.00    +0.000 F 
ATOM     18  C   UNL     1       6.879   3.869  12.589  0.00  0.00    +0.000 A 
ATOM     19  F   UNL     1       7.134   3.234  11.437  0.00  0.00    +0.000 F 
ATOM     20  C   UNL     1       5.807   3.461  13.371  0.00  0.00    +0.000 A 
ATOM     21  C   UNL     1       5.543   4.128  14.564  0.00  0.00    +0.000 A 
ATOM     22  F   UNL     1       4.504   3.726  15.308  0.00  0.00    +0.000 F 
ENDBRANCH  13  14
BRANCH   6  23
ATOM     23  N   UNL     1       0.694   8.108  21.289  0.00  0.00    +0.000 N 
ATOM     24  C   UNL     1      -0.226   8.958  20.529  0.00  0.00    +0.000 C 
ATOM     25  C   UNL     1      -0.293  10.270  21.314  0.00  0.00    +0.000 C 
ATOM     26  C   UNL     1       0.269   9.907  22.683  0.00  0.00    +0.000 C 
ATOM     27  C   UNL     1       1.357   8.880  22.340  0.00  0.00    +0.000 C 
BRANCH  26  28
ATOM     28  O   UNL     1      -0.764   9.299  23.466  0.00  0.00    +0.000 OA
ATOM     29  H   UNL     1      -0.962   8.446  23.029  0.00  0.00    +0.000 HD
ENDBRANCH  26  28
ENDBRANCH   6  23
BRANCH   1  30
ATOM     30  N   UNL     1       7.241   4.348  17.735  0.00  0.00    +0.000 NA
ATOM     31  H   UNL     1       7.255   3.917  18.660  0.00  0.00    +0.000 HD
ATOM     32  H   UNL     1       7.978   5.056  17.738  0.00  0.00    +0.000 HD
ENDBRANCH   1  30
TORSDOF 4
ENDMDL
MODEL 3
REMARK VINA RESULT:      -7.4      5.395      9.541
REMARK  Name = 
REMARK  4 active torsions:
REMARK  status: ('A' for Active; 'I' for Inactive)
REMARK    1  A    between atoms: N_1  and  C_2
REMARK    2  A    between atoms: C_7  and  N_8
REMARK    3  A    between atoms: C_11  and  O_12
REMARK    4  A    between atoms: C_20  and  C_21
REMARK                            x       y       z     vdW  Elec       q    Type
REMARK                         _______ _______ _______ _____ _____    ______ ____
ROOT
ATOM      1  C   UNL     1      -0.500  13.027  21.600  0.00  0.00    +0.000 C 
ATOM      2  C   UNL     1       0.741  12.220  21.219  0.00  0.00    +0.000 C 
ATOM      3  N   UNL     1       0.513  10.791  21.231  0.00  0.00    +0.000 N 
ATOM      4  C   UNL     1       0.829  10.061  20.065  0.00  0.00    +0.000 A 
ATOM      5  C   UNL     1       1.511   8.870  20.152  0.00  0.00    +0.000 A 
ATOM      6  C   UNL     1       1.823   8.218  18.980  0.00  0.00    +0.000 A 
ATOM      7  N   UNL     1       1.361   8.671  17.804  0.00  0.00    +0.000 NA
ATOM      8  C   UNL     1       0.669   9.819  17.821  0.00  0.00    +0.000 A 
ATOM      9  N   UNL     1       0.427  10.579  18.894  0.00  0.00    +0.000 NA
ATOM     10  C   UNL     1      -0.091  10.173  22.312  0.00  0.00    +0.000 C 
ATOM     11  O   UNL     1       0.113   9.015  22.682  0.00  0.00    +0.000 OA
ATOM     12  C   UNL     1      -1.283  10.941  22.843  0.00  0.00    +0.000 C 
ATOM     13  C   UNL     1      -1.093  12.458  22.914  0.00  0.00    +0.000 C 
ENDROOT
BRANCH  13  14
ATOM     14  C   UNL     1      -2.415  13.134  23.256  0.00  0.00    +0.000 A 
ATOM     15  C   UNL     1      -3.621  12.730  22.653  0.00  0.00    +0.000 A 
ATOM     16  C   UNL     1      -4.809  13.390  22.954  0.00  0.00    +0.000 A 
ATOM     17  F   UNL     1      -5.945  12.989  22.369  0.00  0.00    +0.000 F 
ATOM     18  C   UNL     1      -4.814  14.454  23.846  0.00  0.00    +0.000 A 
ATOM     19  F   UNL     1      -5.959  15.091  24.125  0.00  0.00    +0.000 F 
ATOM     20  C   UNL     1      -3.636  14.870  24.454  0.00  0.00    +0.000 A 
ATOM     21  C   UNL     1      -2.449  14.208  24.155  0.00  0.00    +0.000 A 
ATOM     22  F   UNL     1      -1.319  14.620  24.746  0.00  0.00    +0.000 F 
ENDBRANCH  13  14
BRANCH   6  23
ATOM     23  N   UNL     1       2.598   7.076  19.004  0.00  0.00    +0.000 N 
ATOM     24  C   UNL     1       3.038   6.445  17.756  0.00  0.00    +0.000 C 
ATOM     25  C   UNL     1       3.306   4.984  18.126  0.00  0.00    +0.000 C 
ATOM     26  C   UNL     1       3.400   5.002  19.646  0.00  0.00    +0.000 C 
ATOM     27  C   UNL     1       2.367   6.067  20.037  0.00  0.00    +0.000 C 
BRANCH  26  28
ATOM     28  O   UNL     1       4.716   5.418  20.027  0.00  0.00    +0.000 OA
ATOM     29  H   UNL     1       5.149   5.720  19.203  0.00  0.00    +0.000 HD
ENDBRANCH  26  28
ENDBRANCH   6  23
BRANCH   1  30
ATOM     30  N   UNL     1      -0.171  14.456  21.743  0.00  0.00    +0.000 NA
ATOM     31  H   UNL     1      -0.996  14.980  22.037  0.00  0.00    +0.000 HD
ATOM     32  H   UNL     1       0.114  14.851  20.845  0.00  0.00    +0.000 HD
ENDBRANCH   1  30
TORSDOF 4
ENDMDL
MODEL 4
REMARK VINA RESULT:      -7.3      4.380      6.386
REMARK  Name = 
REMARK  4 active torsions:
REMARK  status: ('A' for Active; 'I' for Inactive)
REMARK    1  A    between atoms: N_1  and  C_2
REMARK    2  A    between atoms: C_7  and  N_8
REMARK    3  A    between atoms: C_11  and  O_12
REMARK    4  A    between atoms: C_20  and  C_21
REMARK                            x       y       z     vdW  Elec       q    Type
REMARK                         _______ _______ _______ _____ _____    ______ ____
ROOT
ATOM      1  C   UNL     1       6.100   4.686  16.973  0.00  0.00    +0.000 C 
ATOM      2  C   UNL     1       5.698   5.410  18.257  0.00  0.00    +0.000 C 
ATOM      3  N   UNL     1       4.490   6.194  18.111  0.00  0.00    +0.000 N 
ATOM      4  C   UNL     1       3.436   5.962  19.021  0.00  0.00    +0.000 A 
ATOM      5  C   UNL     1       2.770   7.017  19.599  0.00  0.00    +0.000 A 
ATOM      6  C   UNL     1       1.774   6.732  20.506  0.00  0.00    +0.000 A 
ATOM      7  N   UNL     1       1.387   5.463  20.718  0.00  0.00    +0.000 NA
ATOM      8  C   UNL     1       2.067   4.502  20.079  0.00  0.00    +0.000 A 
ATOM      9  N   UNL     1       3.124   4.682  19.279  0.00  0.00    +0.000 NA
ATOM     10  C   UNL     1       4.330   7.070  17.051  0.00  0.00    +0.000 C 
ATOM     11  O   UNL     1       3.666   8.107  17.073  0.00  0.00    +0.000 OA
ATOM     12  C   UNL     1       4.794   6.491  15.731  0.00  0.00    +0.000 C 
ATOM     13  C   UNL     1       6.100   5.697  15.798  0.00  0.00    +0.000 C 
ENDROOT
BRANCH  13  14
ATOM     14  C   UNL     1       6.351   4.993  14.470  0.00  0.00    +0.000 A 
ATOM     15  C   UNL     1       5.415   4.089  13.932  0.00  0.00    +0.000 A 
ATOM     16  C   UNL     1       5.687   3.430  12.738  0.00  0.00    +0.000 A 
ATOM     17  F   UNL     1       4.783   2.574  12.243  0.00  0.00    +0.000 F 
ATOM     18  C   UNL     1       6.883   3.653  12.068  0.00  0.00    +0.000 A 
ATOM     19  F   UNL     1       7.142   3.009  10.922  0.00  0.00    +0.000 F 
ATOM     20  C   UNL     1       7.821   4.541  12.579  0.00  0.00    +0.000 A 
ATOM     21  C   UNL     1       7.549   5.203  13.773  0.00  0.00    +0.000 A 
ATOM     22  F   UNL     1       8.462   6.055  14.257  0.00  0.00    +0.000 F 
ENDBRANCH  13  14
BRANCH   6  23
ATOM     23  N   UNL     1       1.146   7.750  21.195  0.00  0.00    +0.000 N 
ATOM     24  C   UNL     1      -0.313   7.780  21.319  0.00  0.00    +0.000 C 
ATOM     25  C   UNL     1      -0.659   9.251  21.566  0.00  0.00    +0.000 C 
ATOM     26  C   UNL     1       0.668   9.875  21.981  0.00  0.00    +0.000 C 
ATOM     27  C   UNL     1       1.685   9.108  21.124  0.00  0.00    +0.000 C 
BRANCH  26  28
ATOM     28  O   UNL     1       0.891   9.616  23.371  0.00  0.00    +0.000 OA
ATOM     29  H   UNL     1       0.978   8.644  23.451  0.00  0.00    +0.000 HD
ENDBRANCH  26  28
ENDBRANCH   6  23
BRANCH   1  30
ATOM     30  N   UNL     1       7.420   4.050  17.124  0.00  0.00    +0.000 NA
ATOM     31  H   UNL     1       7.319   3.123  17.539  0.00  0.00    +0.000 HD
ATOM     32  H   UNL     1       8.008   4.588  17.763  0.00  0.00    +0.000 HD
ENDBRANCH   1  30
TORSDOF 4
ENDMDL
MODEL 5
REMARK VINA RESULT:      -7.1      3.321      4.501
REMARK  Name = 
REMARK  4 active torsions:
REMARK  status: ('A' for Active; 'I' for Inactive)
REMARK    1  A    between atoms: N_1  and  C_2
REMARK    2  A    between atoms: C_7  and  N_8
REMARK    3  A    between atoms: C_11  and  O_12
REMARK    4  A    between atoms: C_20  and  C_21
REMARK                            x       y       z     vdW  Elec       q    Type
REMARK                         _______ _______ _______ _____ _____    ______ ____
ROOT
ATOM      1  C   UNL     1       1.642   9.377  18.629  0.00  0.00    +0.000 C 
ATOM      2  C   UNL     1       0.457  10.254  19.030  0.00  0.00    +0.000 C 
ATOM      3  N   UNL     1       0.198  10.240  20.454  0.00  0.00    +0.000 N 
ATOM      4  C   UNL     1       0.141  11.478  21.129  0.00  0.00    +0.000 A 
ATOM      5  C   UNL     1      -0.860  11.731  22.036  0.00  0.00    +0.000 A 
ATOM      6  C   UNL     1      -0.887  12.969  22.639  0.00  0.00    +0.000 A 
ATOM      7  N   UNL     1       0.109  13.847  22.438  0.00  0.00    +0.000 NA
ATOM      8  C   UNL     1       1.065  13.497  21.567  0.00  0.00    +0.000 A 
ATOM      9  N   UNL     1       1.103  12.371  20.847  0.00  0.00    +0.000 NA
ATOM     10  C   UNL     1       0.112   9.048  21.152  0.00  0.00    +0.000 C 
ATOM     11  O   UNL     1      -0.573   8.854  22.158  0.00  0.00    +0.000 OA
ATOM     12  C   UNL     1       1.185   8.053  20.761  0.00  0.00    +0.000 C 
ATOM     13  C   UNL     1       1.472   7.972  19.260  0.00  0.00    +0.000 C 
ENDROOT
BRANCH  13  14
ATOM     14  C   UNL     1       2.701   7.107  19.010  0.00  0.00    +0.000 A 
ATOM     15  C   UNL     1       3.626   7.423  17.997  0.00  0.00    +0.000 A 
ATOM     16  C   UNL     1       4.719   6.594  17.764  0.00  0.00    +0.000 A 
ATOM     17  F   UNL     1       5.586   6.914  16.795  0.00  0.00    +0.000 F 
ATOM     18  C   UNL     1       4.905   5.448  18.525  0.00  0.00    +0.000 A 
ATOM     19  F   UNL     1       5.955   4.649  18.291  0.00  0.00    +0.000 F 
ATOM     20  C   UNL     1       4.007   5.116  19.531  0.00  0.00    +0.000 A 
ATOM     21  C   UNL     1       2.914   5.946  19.766  0.00  0.00    +0.000 A 
ATOM     22  F   UNL     1       2.054   5.614  20.737  0.00  0.00    +0.000 F 
ENDBRANCH  13  14
BRANCH   6  23
ATOM     23  N   UNL     1      -1.929  13.314  23.475  0.00  0.00    +0.000 N 
ATOM     24  C   UNL     1      -3.010  12.365  23.754  0.00  0.00    +0.000 C 
ATOM     25  C   UNL     1      -4.203  13.233  24.162  0.00  0.00    +0.000 C 
ATOM     26  C   UNL     1      -3.580  14.584  24.487  0.00  0.00    +0.000 C 
ATOM     27  C   UNL     1      -2.440  14.685  23.465  0.00  0.00    +0.000 C 
BRANCH  26  28
ATOM     28  O   UNL     1      -3.055  14.548  25.819  0.00  0.00    +0.000 OA
ATOM     29  H   UNL     1      -3.694  15.044  26.370  0.00  0.00    +0.000 HD
ENDBRANCH  26  28
ENDBRANCH   6  23
BRANCH   1  30
ATOM     30  N   UNL     1       1.753   9.288  17.162  0.00  0.00    +0.000 NA
ATOM     31  H   UNL     1       1.076   8.617  16.797  0.00  0.00    +0.000 HD
ATOM     32  H   UNL     1       2.675   8.940  16.892  0.00  0.00    +0.000 HD
ENDBRANCH   1  30
TORSDOF 4
ENDMDL
MODEL 6
REMARK VINA RESULT:      -7.0      4.036      5.540
REMARK  Name = 
REMARK  4 active torsions:
REMARK  status: ('A' for Active; 'I' for Inactive)
REMARK    1  A    between atoms: N_1  and  C_2
REMARK    2  A    between atoms: C_7  and  N_8
REMARK    3  A    between atoms: C_11  and  O_12
REMARK    4  A    between atoms: C_20  and  C_21
REMARK                            x       y       z     vdW  Elec       q    Type
REMARK                         _______ _______ _______ _____ _____    ______ ____
ROOT
ATOM      1  C   UNL     1       0.495  11.407  20.980  0.00  0.00    +0.000 C 
ATOM      2  C   UNL     1      -0.410  12.625  21.161  0.00  0.00    +0.000 C 
ATOM      3  N   UNL     1      -1.784  12.369  20.786  0.00  0.00    +0.000 N 
ATOM      4  C   UNL     1      -2.792  12.649  21.734  0.00  0.00    +0.000 A 
ATOM      5  C   UNL     1      -3.937  13.309  21.359  0.00  0.00    +0.000 A 
ATOM      6  C   UNL     1      -4.871  13.587  22.333  0.00  0.00    +0.000 A 
ATOM      7  N   UNL     1      -4.717  13.113  23.579  0.00  0.00    +0.000 NA
ATOM      8  C   UNL     1      -3.587  12.444  23.843  0.00  0.00    +0.000 A 
ATOM      9  N   UNL     1      -2.575  12.237  22.993  0.00  0.00    +0.000 NA
ATOM     10  C   UNL     1      -2.096  11.773  19.577  0.00  0.00    +0.000 C 
ATOM     11  O   UNL     1      -3.128  11.961  18.930  0.00  0.00    +0.000 OA
ATOM     12  C   UNL     1      -1.191  10.606  19.241  0.00  0.00    +0.000 C 
ATOM     13  C   UNL     1       0.290  10.827  19.557  0.00  0.00    +0.000 C 
ENDROOT
BRANCH  13  14
ATOM     14  C   UNL     1       1.061   9.525  19.380  0.00  0.00    +0.000 A 
ATOM     15  C   UNL     1       1.031   8.516  20.362  0.00  0.00    +0.000 A 
ATOM     16  C   UNL     1       1.776   7.353  20.192  0.00  0.00    +0.000 A 
ATOM     17  F   UNL     1       1.733   6.406  21.139  0.00  0.00    +0.000 F 
ATOM     18  C   UNL     1       2.557   7.178  19.058  0.00  0.00    +0.000 A 
ATOM     19  F   UNL     1       3.279   6.060  18.905  0.00  0.00    +0.000 F 
ATOM     20  C   UNL     1       2.601   8.159  18.075  0.00  0.00    +0.000 A 
ATOM     21  C   UNL     1       1.855   9.322  18.243  0.00  0.00    +0.000 A 
ATOM     22  F   UNL     1       1.908  10.261  17.289  0.00  0.00    +0.000 F 
ENDBRANCH  13  14
BRANCH   6  23
ATOM     23  N   UNL     1      -5.988  14.340  22.032  0.00  0.00    +0.000 N 
ATOM     24  C   UNL     1      -7.181  13.712  21.460  0.00  0.00    +0.000 C 
ATOM     25  C   UNL     1      -7.910  14.843  20.727  0.00  0.00    +0.000 C 
ATOM     26  C   UNL     1      -7.287  16.110  21.298  0.00  0.00    +0.000 C 
ATOM     27  C   UNL     1      -5.825  15.700  21.517  0.00  0.00    +0.000 C 
BRANCH  26  28
ATOM     28  O   UNL     1      -7.913  16.416  22.549  0.00  0.00    +0.000 OA
ATOM     29  H   UNL     1      -8.689  16.970  22.330  0.00  0.00    +0.000 HD
ENDBRANCH  26  28
ENDBRANCH   6  23
BRANCH   1  30
ATOM     30  N   UNL     1       1.906  11.766  21.205  0.00  0.00    +0.000 NA
ATOM     31  H   UNL     1       2.513  11.215  20.597  0.00  0.00    +0.000 HD
ATOM     32  H   UNL     1       2.185  11.545  22.163  0.00  0.00    +0.000 HD
ENDBRANCH   1  30
TORSDOF 4
ENDMDL
MODEL 7
REMARK VINA RESULT:      -6.9      3.586      4.810
REMARK  Name = 
REMARK  4 active torsions:
REMARK  status: ('A' for Active; 'I' for Inactive)
REMARK    1  A    between atoms: N_1  and  C_2
REMARK    2  A    between atoms: C_7  and  N_8
REMARK    3  A    between atoms: C_11  and  O_12
REMARK    4  A    between atoms: C_20  and  C_21
REMARK                            x       y       z     vdW  Elec       q    Type
REMARK                         _______ _______ _______ _____ _____    ______ ____
ROOT
ATOM      1  C   UNL     1       0.542  10.022  19.087  0.00  0.00    +0.000 C 
ATOM      2  C   UNL     1      -0.443  10.982  19.753  0.00  0.00    +0.000 C 
ATOM      3  N   UNL     1      -0.114  11.263  21.134  0.00  0.00    +0.000 N 
ATOM      4  C   UNL     1       0.018  12.613  21.522  0.00  0.00    +0.000 A 
ATOM      5  C   UNL     1      -0.555  13.063  22.688  0.00  0.00    +0.000 A 
ATOM      6  C   UNL     1      -0.424  14.398  22.999  0.00  0.00    +0.000 A 
ATOM      7  N   UNL     1       0.348  15.200  22.248  0.00  0.00    +0.000 NA
ATOM      8  C   UNL     1       0.902  14.664  21.152  0.00  0.00    +0.000 A 
ATOM      9  N   UNL     1       0.727  13.414  20.710  0.00  0.00    +0.000 NA
ATOM     10  C   UNL     1       0.165  10.240  22.025  0.00  0.00    +0.000 C 
ATOM     11  O   UNL     1      -0.049  10.267  23.237  0.00  0.00    +0.000 OA
ATOM     12  C   UNL     1       1.060   9.169  21.435  0.00  0.00    +0.000 C 
ATOM     13  C   UNL     1       0.732   8.779  19.992  0.00  0.00    +0.000 C 
ENDROOT
BRANCH  13  14
ATOM     14  C   UNL     1       1.817   7.861  19.441  0.00  0.00    +0.000 A 
ATOM     15  C   UNL     1       2.530   8.189  18.273  0.00  0.00    +0.000 A 
ATOM     16  C   UNL     1       3.488   7.315  17.770  0.00  0.00    +0.000 A 
ATOM     17  F   UNL     1       4.155   7.646  16.656  0.00  0.00    +0.000 F 
ATOM     18  C   UNL     1       3.747   6.111  18.412  0.00  0.00    +0.000 A 
ATOM     19  F   UNL     1       4.665   5.269  17.918  0.00  0.00    +0.000 F 
ATOM     20  C   UNL     1       3.057   5.767  19.567  0.00  0.00    +0.000 A 
ATOM     21  C   UNL     1       2.099   6.642  20.072  0.00  0.00    +0.000 A 
ATOM     22  F   UNL     1       1.439   6.297  21.185  0.00  0.00    +0.000 F 
ENDBRANCH  13  14
BRANCH   6  23
ATOM     23  N   UNL     1      -1.070  14.924  24.099  0.00  0.00    +0.000 N 
ATOM     24  C   UNL     1      -2.429  14.497  24.443  0.00  0.00    +0.000 C 
ATOM     25  C   UNL     1      -3.011  15.652  25.262  0.00  0.00    +0.000 C 
ATOM     26  C   UNL     1      -1.788  16.462  25.674  0.00  0.00    +0.000 C 
ATOM     27  C   UNL     1      -0.868  16.328  24.453  0.00  0.00    +0.000 C 
BRANCH  26  28
ATOM     28  O   UNL     1      -1.188  15.850  26.821  0.00  0.00    +0.000 OA
ATOM     29  H   UNL     1      -1.930  15.503  27.356  0.00  0.00    +0.000 HD
ENDBRANCH  26  28
ENDBRANCH   6  23
BRANCH   1  30
ATOM     30  N   UNL     1       0.068   9.634  17.747  0.00  0.00    +0.000 NA
ATOM     31  H   UNL     1       0.771   9.061  17.277  0.00  0.00    +0.000 HD
ATOM     32  H   UNL     1      -0.068  10.459  17.160  0.00  0.00    +0.000 HD
ENDBRANCH   1  30
TORSDOF 4
ENDMDL
MODEL 8
REMARK VINA RESULT:      -6.9      4.518      9.240
REMARK  Name = 
REMARK  4 active torsions:
REMARK  status: ('A' for Active; 'I' for Inactive)
REMARK    1  A    between atoms: N_1  and  C_2
REMARK    2  A    between atoms: C_7  and  N_8
REMARK    3  A    between atoms: C_11  and  O_12
REMARK    4  A    between atoms: C_20  and  C_21
REMARK                            x       y       z     vdW  Elec       q    Type
REMARK                         _______ _______ _______ _____ _____    ______ ____
ROOT
ATOM      1  C   UNL     1      -0.777  11.634  19.648  0.00  0.00    +0.000 C 
ATOM      2  C   UNL     1      -0.417  10.437  18.769  0.00  0.00    +0.000 C 
ATOM      3  N   UNL     1       1.010  10.275  18.589  0.00  0.00    +0.000 N 
ATOM      4  C   UNL     1       1.579   9.023  18.907  0.00  0.00    +0.000 A 
ATOM      5  C   UNL     1       2.490   8.437  18.060  0.00  0.00    +0.000 A 
ATOM      6  C   UNL     1       2.986   7.199  18.403  0.00  0.00    +0.000 A 
ATOM      7  N   UNL     1       2.683   6.647  19.589  0.00  0.00    +0.000 NA
ATOM      8  C   UNL     1       1.819   7.311  20.368  0.00  0.00    +0.000 A 
ATOM      9  N   UNL     1       1.195   8.454  20.060  0.00  0.00    +0.000 NA
ATOM     10  C   UNL     1       1.809  11.341  18.216  0.00  0.00    +0.000 C 
ATOM     11  O   UNL     1       2.846  11.264  17.557  0.00  0.00    +0.000 OA
ATOM     12  C   UNL     1       1.472  12.620  18.956  0.00  0.00    +0.000 C 
ATOM     13  C   UNL     1      -0.024  12.887  19.133  0.00  0.00    +0.000 C 
ENDROOT
BRANCH  13  14
ATOM     14  C   UNL     1      -0.235  14.074  20.065  0.00  0.00    +0.000 A 
ATOM     15  C   UNL     1      -0.251  13.913  21.464  0.00  0.00    +0.000 A 
ATOM     16  C   UNL     1      -0.485  15.007  22.291  0.00  0.00    +0.000 A 
ATOM     17  F   UNL     1      -0.497  14.832  23.619  0.00  0.00    +0.000 F 
ATOM     18  C   UNL     1      -0.707  16.265  21.746  0.00  0.00    +0.000 A 
ATOM     19  F   UNL     1      -0.940  17.313  22.547  0.00  0.00    +0.000 F 
ATOM     20  C   UNL     1      -0.694  16.448  20.369  0.00  0.00    +0.000 A 
ATOM     21  C   UNL     1      -0.459  15.354  19.541  0.00  0.00    +0.000 A 
ATOM     22  F   UNL     1      -0.451  15.543  18.215  0.00  0.00    +0.000 F 
ENDBRANCH  13  14
BRANCH   6  23
ATOM     23  N   UNL     1       3.819   6.518  17.538  0.00  0.00    +0.000 N 
ATOM     24  C   UNL     1       3.673   5.074  17.341  0.00  0.00    +0.000 C 
ATOM     25  C   UNL     1       5.047   4.600  16.857  0.00  0.00    +0.000 C 
ATOM     26  C   UNL     1       5.742   5.882  16.417  0.00  0.00    +0.000 C 
ATOM     27  C   UNL     1       5.224   6.913  17.428  0.00  0.00    +0.000 C 
BRANCH  26  28
ATOM     28  O   UNL     1       5.308   6.217  15.094  0.00  0.00    +0.000 OA
ATOM     29  H   UNL     1       5.850   6.986  14.822  0.00  0.00    +0.000 HD
ENDBRANCH  26  28
ENDBRANCH   6  23
BRANCH   1  30
ATOM     30  N   UNL     1      -2.233  11.858  19.656  0.00  0.00    +0.000 NA
ATOM     31  H   UNL     1      -2.468  12.670  19.084  0.00  0.00    +0.000 HD
ATOM     32  H   UNL     1      -2.559  12.069  20.601  0.00  0.00    +0.000 HD
ENDBRANCH   1  30
TORSDOF 4
ENDMDL
MODEL 9
REMARK VINA RESULT:      -6.9      5.412      9.599
REMARK  Name = 
REMARK  4 active torsions:
REMARK  status: ('A' for Active; 'I' for Inactive)
REMARK    1  A    between atoms: N_1  and  C_2
REMARK    2  A    between atoms: C_7  and  N_8
REMARK    3  A    between atoms: C_11  and  O_12
REMARK    4  A    between atoms: C_20  and  C_21
REMARK                            x       y       z     vdW  Elec       q    Type
REMARK                         _______ _______ _______ _____ _____    ______ ____
ROOT
ATOM      1  C   UNL     1      -0.267  13.069  21.520  0.00  0.00    +0.000 C 
ATOM      2  C   UNL     1       0.939  12.190  21.193  0.00  0.00    +0.000 C 
ATOM      3  N   UNL     1       0.626  10.778  21.189  0.00  0.00    +0.000 N 
ATOM      4  C   UNL     1       0.949  10.031  20.036  0.00  0.00    +0.000 A 
ATOM      5  C   UNL     1       1.554   8.802  20.149  0.00  0.00    +0.000 A 
ATOM      6  C   UNL     1       1.879   8.133  18.990  0.00  0.00    +0.000 A 
ATOM      7  N   UNL     1       1.499   8.615  17.795  0.00  0.00    +0.000 NA
ATOM      8  C   UNL     1       0.877   9.801  17.785  0.00  0.00    +0.000 A 
ATOM      9  N   UNL     1       0.633  10.574  18.850  0.00  0.00    +0.000 NA
ATOM     10  C   UNL     1      -0.063  10.195  22.239  0.00  0.00    +0.000 C 
ATOM     11  O   UNL     1       0.054   9.027  22.613  0.00  0.00    +0.000 OA
ATOM     12  C   UNL     1      -1.230  11.033  22.719  0.00  0.00    +0.000 C 
ATOM     13  C   UNL     1      -0.952  12.536  22.804  0.00  0.00    +0.000 C 
ENDROOT
BRANCH  13  14
ATOM     14  C   UNL     1      -2.246  13.290  23.089  0.00  0.00    +0.000 A 
ATOM     15  C   UNL     1      -2.363  14.150  24.197  0.00  0.00    +0.000 A 
ATOM     16  C   UNL     1      -3.568  14.795  24.456  0.00  0.00    +0.000 A 
ATOM     17  F   UNL     1      -3.658  15.610  25.515  0.00  0.00    +0.000 F 
ATOM     18  C   UNL     1      -4.665  14.594  23.628  0.00  0.00    +0.000 A 
ATOM     19  F   UNL     1      -5.825  15.212  23.888  0.00  0.00    +0.000 F 
ATOM     20  C   UNL     1      -4.572  13.751  22.529  0.00  0.00    +0.000 A 
ATOM     21  C   UNL     1      -3.366  13.106  22.268  0.00  0.00    +0.000 A 
ATOM     22  F   UNL     1      -3.290  12.293  21.205  0.00  0.00    +0.000 F 
ENDBRANCH  13  14
BRANCH   6  23
ATOM     23  N   UNL     1       2.583   6.947  19.043  0.00  0.00    +0.000 N 
ATOM     24  C   UNL     1       2.927   6.226  17.815  0.00  0.00    +0.000 C 
ATOM     25  C   UNL     1       3.121   4.771  18.252  0.00  0.00    +0.000 C 
ATOM     26  C   UNL     1       3.282   4.861  19.765  0.00  0.00    +0.000 C 
ATOM     27  C   UNL     1       2.335   6.009  20.138  0.00  0.00    +0.000 C 
BRANCH  26  28
ATOM     28  O   UNL     1       4.637   5.212  20.069  0.00  0.00    +0.000 OA
ATOM     29  H   UNL     1       5.149   4.380  20.004  0.00  0.00    +0.000 HD
ENDBRANCH  26  28
ENDBRANCH   6  23
BRANCH   1  30
ATOM     30  N   UNL     1       0.140  14.476  21.684  0.00  0.00    +0.000 NA
ATOM     31  H   UNL     1       1.042  14.636  21.233  0.00  0.00    +0.000 HD
ATOM     32  H   UNL     1       0.270  14.700  22.672  0.00  0.00    +0.000 HD
ENDBRANCH   1  30
TORSDOF 4
ENDMDL
