MODEL 1
REMARK VINA RESULT:      -8.4      0.000      0.000
REMARK  Name = 
REMARK  10 active torsions:
REMARK  status: ('A' for Active; 'I' for Inactive)
REMARK    1  A    between atoms: C_1  and  O_2
REMARK    2  A    between atoms: O_2  and  C_3
REMARK    3  A    between atoms: C_3  and  C_5
REMARK    4  A    between atoms: C_10  and  O_11
REMARK    5  A    between atoms: O_11  and  C_12
REMARK    6  A    between atoms: C_12  and  C_13
REMARK    7  A    between atoms: C_15  and  C_16
REMARK    8  A    between atoms: C_20  and  O_21
REMARK    9  A    between atoms: O_21  and  C_22
REMARK   10  A    between atoms: C_25  and  C_26
REMARK                            x       y       z     vdW  Elec       q    Type
REMARK                         _______ _______ _______ _____ _____    ______ ____
ROOT
ATOM      1  C   UNL     1       6.369   4.976  17.869  0.00  0.00    +0.000 A 
ATOM      2  O   UNL     1       6.143   4.370  16.659  0.00  0.00    +0.000 OA
ATOM      3  C   UNL     1       6.988   5.013  15.792  0.00  0.00    +0.000 A 
ATOM      4  N   UNL     1       7.733   5.942  16.363  0.00  0.00    +0.000 NA
ATOM      5  C   UNL     1       7.335   5.939  17.680  0.00  0.00    +0.000 A 
ATOM      6  C   UNL     1       7.847   6.943  18.637  0.00  0.00    +0.000 C 
ENDROOT
BRANCH   3   7
ATOM      7  C   UNL     1       6.893   4.650  14.377  0.00  0.00    +0.000 A 
ATOM      8  C   UNL     1       7.751   5.272  13.456  0.00  0.00    +0.000 A 
ATOM      9  C   UNL     1       7.670   4.981  12.094  0.00  0.00    +0.000 A 
ATOM     10  C   UNL     1       6.722   4.068  11.639  0.00  0.00    +0.000 A 
ATOM     11  C   UNL     1       5.854   3.437  12.533  0.00  0.00    +0.000 A 
ATOM     12  C   UNL     1       5.946   3.725  13.899  0.00  0.00    +0.000 A 
BRANCH  11  13
ATOM     13  O   UNL     1       4.965   2.580  11.944  0.00  0.00    +0.000 OA
ATOM     14  C   UNL     1       3.958   3.152  11.121  0.00  0.00    +0.000 C 
ENDBRANCH  11  13
ENDBRANCH   3   7
BRANCH   1  15
ATOM     15  C   UNL     1       5.435   4.649  18.970  0.00  0.00    +0.000 C 
BRANCH  15  16
ATOM     16  O   UNL     1       4.619   3.520  18.624  0.00  0.00    +0.000 OA
BRANCH  16  22
ATOM     17  C   UNL     1       2.254   3.813  19.094  0.00  0.00    +0.000 A 
ATOM     18  C   UNL     1       1.165   3.561  19.963  0.00  0.00    +0.000 A 
ATOM     19  C   UNL     1       1.322   2.872  21.164  0.00  0.00    +0.000 A 
ATOM     20  C   UNL     1       2.581   2.429  21.532  0.00  0.00    +0.000 A 
ATOM     21  C   UNL     1       3.668   2.660  20.690  0.00  0.00    +0.000 A 
ATOM     22  C   UNL     1       3.530   3.322  19.450  0.00  0.00    +0.000 A 
BRANCH  17  23
ATOM     23  C   UNL     1       1.888   4.595  17.872  0.00  0.00    +0.000 C 
ATOM     24  O   UNL     1       0.941   4.284  17.164  0.00  0.00    +0.000 OA
BRANCH  23  26
ATOM     25  C   UNL     1       2.461   6.754  18.567  0.00  0.00    +0.000 C 
ATOM     26  O   UNL     1       2.682   5.671  17.657  0.00  0.00    +0.000 OA
ENDBRANCH  23  26
ENDBRANCH  17  23
ENDBRANCH  16  22
ENDBRANCH  15  16
ENDBRANCH   1  15
TORSDOF 7
ENDMDL
MODEL 2
REMARK VINA RESULT:      -8.2      1.405      2.735
REMARK  Name = 
REMARK  10 active torsions:
REMARK  status: ('A' for Active; 'I' for Inactive)
REMARK    1  A    between atoms: C_1  and  O_2
REMARK    2  A    between atoms: O_2  and  C_3
REMARK    3  A    between atoms: C_3  and  C_5
REMARK    4  A    between atoms: C_10  and  O_11
REMARK    5  A    between atoms: O_11  and  C_12
REMARK    6  A    between atoms: C_12  and  C_13
REMARK    7  A    between atoms: C_15  and  C_16
REMARK    8  A    between atoms: C_20  and  O_21
REMARK    9  A    between atoms: O_21  and  C_22
REMARK   10  A    between atoms: C_25  and  C_26
REMARK                            x       y       z     vdW  Elec       q    Type
REMARK                         _______ _______ _______ _____ _____    ______ ____
ROOT
ATOM      1  C   UNL     1       5.817   4.369  17.947  0.00  0.00    +0.000 A 
ATOM      2  O   UNL     1       5.658   4.018  16.630  0.00  0.00    +0.000 OA
ATOM      3  C   UNL     1       6.761   4.535  16.002  0.00  0.00    +0.000 A 
ATOM      4  N   UNL     1       7.599   5.151  16.817  0.00  0.00    +0.000 NA
ATOM      5  C   UNL     1       7.000   5.066  18.053  0.00  0.00    +0.000 A 
ATOM      6  C   UNL     1       7.568   5.759  19.229  0.00  0.00    +0.000 C 
ENDROOT
BRANCH   3   7
ATOM      7  C   UNL     1       6.818   4.411  14.545  0.00  0.00    +0.000 A 
ATOM      8  C   UNL     1       7.690   5.242  13.825  0.00  0.00    +0.000 A 
ATOM      9  C   UNL     1       7.750   5.180  12.433  0.00  0.00    +0.000 A 
ATOM     10  C   UNL     1       6.930   4.289  11.745  0.00  0.00    +0.000 A 
ATOM     11  C   UNL     1       6.050   3.454  12.437  0.00  0.00    +0.000 A 
ATOM     12  C   UNL     1       6.001   3.512  13.834  0.00  0.00    +0.000 A 
BRANCH  11  13
ATOM     13  O   UNL     1       5.294   2.644  11.633  0.00  0.00    +0.000 OA
ATOM     14  C   UNL     1       4.031   3.142  11.213  0.00  0.00    +0.000 C 
ENDBRANCH  11  13
ENDBRANCH   3   7
BRANCH   1  15
ATOM     15  C   UNL     1       4.664   4.144  18.847  0.00  0.00    +0.000 C 
BRANCH  15  16
ATOM     16  O   UNL     1       3.441   4.547  18.215  0.00  0.00    +0.000 OA
BRANCH  16  22
ATOM     17  C   UNL     1       2.117   5.665  19.918  0.00  0.00    +0.000 A 
ATOM     18  C   UNL     1       1.586   6.879  20.417  0.00  0.00    +0.000 A 
ATOM     19  C   UNL     1       1.770   8.093  19.759  0.00  0.00    +0.000 A 
ATOM     20  C   UNL     1       2.483   8.120  18.573  0.00  0.00    +0.000 A 
ATOM     21  C   UNL     1       3.021   6.938  18.063  0.00  0.00    +0.000 A 
ATOM     22  C   UNL     1       2.880   5.701  18.730  0.00  0.00    +0.000 A 
BRANCH  17  23
ATOM     23  C   UNL     1       1.781   4.467  20.749  0.00  0.00    +0.000 C 
ATOM     24  O   UNL     1       2.413   4.182  21.757  0.00  0.00    +0.000 OA
BRANCH  23  26
ATOM     25  C   UNL     1       1.056   2.543  19.635  0.00  0.00    +0.000 C 
ATOM     26  O   UNL     1       0.716   3.769  20.291  0.00  0.00    +0.000 OA
ENDBRANCH  23  26
ENDBRANCH  17  23
ENDBRANCH  16  22
ENDBRANCH  15  16
ENDBRANCH   1  15
TORSDOF 7
ENDMDL
MODEL 3
REMARK VINA RESULT:      -7.9      3.087      7.638
REMARK  Name = 
REMARK  10 active torsions:
REMARK  status: ('A' for Active; 'I' for Inactive)
REMARK    1  A    between atoms: C_1  and  O_2
REMARK    2  A    between atoms: O_2  and  C_3
REMARK    3  A    between atoms: C_3  and  C_5
REMARK    4  A    between atoms: C_10  and  O_11
REMARK    5  A    between atoms: O_11  and  C_12
REMARK    6  A    between atoms: C_12  and  C_13
REMARK    7  A    between atoms: C_15  and  C_16
REMARK    8  A    between atoms: C_20  and  O_21
REMARK    9  A    between atoms: O_21  and  C_22
REMARK   10  A    between atoms: C_25  and  C_26
REMARK                            x       y       z     vdW  Elec       q    Type
REMARK                         _______ _______ _______ _____ _____    ______ ____
ROOT
ATOM      1  C   UNL     1       3.474   4.726  19.839  0.00  0.00    +0.000 A 
ATOM      2  O   UNL     1       3.405   6.005  19.348  0.00  0.00    +0.000 OA
ATOM      3  C   UNL     1       2.289   6.539  19.939  0.00  0.00    +0.000 A 
ATOM      4  N   UNL     1       1.679   5.713  20.770  0.00  0.00    +0.000 NA
ATOM      5  C   UNL     1       2.414   4.552  20.702  0.00  0.00    +0.000 A 
ATOM      6  C   UNL     1       1.974   3.324  21.397  0.00  0.00    +0.000 C 
ENDROOT
BRANCH   3   7
ATOM      7  C   UNL     1       1.890   7.883  19.517  0.00  0.00    +0.000 A 
ATOM      8  C   UNL     1       2.183   8.300  18.210  0.00  0.00    +0.000 A 
ATOM      9  C   UNL     1       1.851   9.585  17.779  0.00  0.00    +0.000 A 
ATOM     10  C   UNL     1       1.230  10.469  18.657  0.00  0.00    +0.000 A 
ATOM     11  C   UNL     1       0.931  10.080  19.965  0.00  0.00    +0.000 A 
ATOM     12  C   UNL     1       1.256   8.788  20.390  0.00  0.00    +0.000 A 
BRANCH  11  13
ATOM     13  O   UNL     1       0.338  11.055  20.720  0.00  0.00    +0.000 OA
ATOM     14  C   UNL     1       0.698  12.402  20.443  0.00  0.00    +0.000 C 
ENDBRANCH  11  13
ENDBRANCH   3   7
BRANCH   1  15
ATOM     15  C   UNL     1       4.455   3.815  19.208  0.00  0.00    +0.000 C 
BRANCH  15  16
ATOM     16  O   UNL     1       5.644   4.528  18.839  0.00  0.00    +0.000 OA
BRANCH  16  22
ATOM     17  C   UNL     1       6.739   5.626  16.968  0.00  0.00    +0.000 A 
ATOM     18  C   UNL     1       6.912   5.713  15.566  0.00  0.00    +0.000 A 
ATOM     19  C   UNL     1       6.197   4.910  14.680  0.00  0.00    +0.000 A 
ATOM     20  C   UNL     1       5.277   4.004  15.179  0.00  0.00    +0.000 A 
ATOM     21  C   UNL     1       5.092   3.895  16.557  0.00  0.00    +0.000 A 
ATOM     22  C   UNL     1       5.831   4.670  17.477  0.00  0.00    +0.000 A 
BRANCH  17  23
ATOM     23  C   UNL     1       7.572   6.594  17.747  0.00  0.00    +0.000 C 
ATOM     24  O   UNL     1       7.927   6.366  18.895  0.00  0.00    +0.000 OA
BRANCH  23  26
ATOM     25  C   UNL     1       7.908   8.908  17.832  0.00  0.00    +0.000 C 
ATOM     26  O   UNL     1       7.903   7.708  17.051  0.00  0.00    +0.000 OA
ENDBRANCH  23  26
ENDBRANCH  17  23
ENDBRANCH  16  22
ENDBRANCH  15  16
ENDBRANCH   1  15
TORSDOF 7
ENDMDL
MODEL 4
REMARK VINA RESULT:      -7.9      2.607      7.301
REMARK  Name = 
REMARK  10 active torsions:
REMARK  status: ('A' for Active; 'I' for Inactive)
REMARK    1  A    between atoms: C_1  and  O_2
REMARK    2  A    between atoms: O_2  and  C_3
REMARK    3  A    between atoms: C_3  and  C_5
REMARK    4  A    between atoms: C_10  and  O_11
REMARK    5  A    between atoms: O_11  and  C_12
REMARK    6  A    between atoms: C_12  and  C_13
REMARK    7  A    between atoms: C_15  and  C_16
REMARK    8  A    between atoms: C_20  and  O_21
REMARK    9  A    between atoms: O_21  and  C_22
REMARK   10  A    between atoms: C_25  and  C_26
REMARK                            x       y       z     vdW  Elec       q    Type
REMARK                         _______ _______ _______ _____ _____    ______ ____
ROOT
ATOM      1  C   UNL     1       4.081   4.590  19.021  0.00  0.00    +0.000 A 
ATOM      2  O   UNL     1       3.800   5.880  19.396  0.00  0.00    +0.000 OA
ATOM      3  C   UNL     1       2.626   6.174  18.752  0.00  0.00    +0.000 A 
ATOM      4  N   UNL     1       2.144   5.174  18.036  0.00  0.00    +0.000 NA
ATOM      5  C   UNL     1       3.071   4.167  18.187  0.00  0.00    +0.000 A 
ATOM      6  C   UNL     1       2.961   2.905  17.425  0.00  0.00    +0.000 C 
ENDROOT
BRANCH   3   7
ATOM      7  C   UNL     1       2.123   7.544  18.875  0.00  0.00    +0.000 A 
ATOM      8  C   UNL     1       2.233   8.409  17.777  0.00  0.00    +0.000 A 
ATOM      9  C   UNL     1       1.799   9.732  17.862  0.00  0.00    +0.000 A 
ATOM     10  C   UNL     1       1.257  10.204  19.056  0.00  0.00    +0.000 A 
ATOM     11  C   UNL     1       1.140   9.365  20.165  0.00  0.00    +0.000 A 
ATOM     12  C   UNL     1       1.567   8.036  20.071  0.00  0.00    +0.000 A 
BRANCH  11  13
ATOM     13  O   UNL     1       0.607   9.967  21.273  0.00  0.00    +0.000 OA
ATOM     14  C   UNL     1       0.779   9.305  22.519  0.00  0.00    +0.000 C 
ENDBRANCH  11  13
ENDBRANCH   3   7
BRANCH   1  15
ATOM     15  C   UNL     1       5.416   4.062  19.380  0.00  0.00    +0.000 C 
BRANCH  15  16
ATOM     16  O   UNL     1       6.328   4.200  18.281  0.00  0.00    +0.000 OA
BRANCH  16  22
ATOM     17  C   UNL     1       6.540   6.293  17.066  0.00  0.00    +0.000 A 
ATOM     18  C   UNL     1       7.121   7.582  16.993  0.00  0.00    +0.000 A 
ATOM     19  C   UNL     1       8.040   8.034  17.938  0.00  0.00    +0.000 A 
ATOM     20  C   UNL     1       8.411   7.197  18.977  0.00  0.00    +0.000 A 
ATOM     21  C   UNL     1       7.848   5.925  19.074  0.00  0.00    +0.000 A 
ATOM     22  C   UNL     1       6.887   5.457  18.151  0.00  0.00    +0.000 A 
BRANCH  17  23
ATOM     23  C   UNL     1       5.604   5.983  15.941  0.00  0.00    +0.000 C 
ATOM     24  O   UNL     1       4.960   6.856  15.375  0.00  0.00    +0.000 OA
BRANCH  23  26
ATOM     25  C   UNL     1       6.510   4.298  14.595  0.00  0.00    +0.000 C 
ATOM     26  O   UNL     1       5.570   4.671  15.608  0.00  0.00    +0.000 OA
ENDBRANCH  23  26
ENDBRANCH  17  23
ENDBRANCH  16  22
ENDBRANCH  15  16
ENDBRANCH   1  15
TORSDOF 7
ENDMDL
MODEL 5
REMARK VINA RESULT:      -7.9      3.469      5.954
REMARK  Name = 
REMARK  10 active torsions:
REMARK  status: ('A' for Active; 'I' for Inactive)
REMARK    1  A    between atoms: C_1  and  O_2
REMARK    2  A    between atoms: O_2  and  C_3
REMARK    3  A    between atoms: C_3  and  C_5
REMARK    4  A    between atoms: C_10  and  O_11
REMARK    5  A    between atoms: O_11  and  C_12
REMARK    6  A    between atoms: C_12  and  C_13
REMARK    7  A    between atoms: C_15  and  C_16
REMARK    8  A    between atoms: C_20  and  O_21
REMARK    9  A    between atoms: O_21  and  C_22
REMARK   10  A    between atoms: C_25  and  C_26
REMARK                            x       y       z     vdW  Elec       q    Type
REMARK                         _______ _______ _______ _____ _____    ______ ____
ROOT
ATOM      1  C   UNL     1       2.302   5.056  20.040  0.00  0.00    +0.000 A 
ATOM      2  O   UNL     1       3.025   5.479  18.953  0.00  0.00    +0.000 OA
ATOM      3  C   UNL     1       3.902   4.455  18.706  0.00  0.00    +0.000 A 
ATOM      4  N   UNL     1       3.768   3.428  19.526  0.00  0.00    +0.000 NA
ATOM      5  C   UNL     1       2.764   3.807  20.389  0.00  0.00    +0.000 A 
ATOM      6  C   UNL     1       2.400   2.973  21.554  0.00  0.00    +0.000 C 
ENDROOT
BRANCH   3   7
ATOM      7  C   UNL     1       4.894   4.667  17.651  0.00  0.00    +0.000 A 
ATOM      8  C   UNL     1       4.938   3.774  16.570  0.00  0.00    +0.000 A 
ATOM      9  C   UNL     1       5.890   3.919  15.560  0.00  0.00    +0.000 A 
ATOM     10  C   UNL     1       6.816   4.957  15.629  0.00  0.00    +0.000 A 
ATOM     11  C   UNL     1       6.797   5.858  16.697  0.00  0.00    +0.000 A 
ATOM     12  C   UNL     1       5.834   5.714  17.701  0.00  0.00    +0.000 A 
BRANCH  11  13
ATOM     13  O   UNL     1       7.774   6.814  16.644  0.00  0.00    +0.000 OA
ATOM     14  C   UNL     1       7.677   7.895  17.561  0.00  0.00    +0.000 C 
ENDBRANCH  11  13
ENDBRANCH   3   7
BRANCH   1  15
ATOM     15  C   UNL     1       1.418   6.051  20.688  0.00  0.00    +0.000 C 
BRANCH  15  16
ATOM     16  O   UNL     1       2.075   7.322  20.793  0.00  0.00    +0.000 OA
BRANCH  16  22
ATOM     17  C   UNL     1       0.524   9.170  20.511  0.00  0.00    +0.000 A 
ATOM     18  C   UNL     1       0.019  10.192  19.671  0.00  0.00    +0.000 A 
ATOM     19  C   UNL     1       0.463  10.361  18.362  0.00  0.00    +0.000 A 
ATOM     20  C   UNL     1       1.420   9.499  17.854  0.00  0.00    +0.000 A 
ATOM     21  C   UNL     1       1.937   8.487  18.663  0.00  0.00    +0.000 A 
ATOM     22  C   UNL     1       1.532   8.318  20.005  0.00  0.00    +0.000 A 
BRANCH  17  23
ATOM     23  C   UNL     1      -0.103   9.132  21.869  0.00  0.00    +0.000 C 
ATOM     24  O   UNL     1      -0.795   8.193  22.236  0.00  0.00    +0.000 OA
BRANCH  23  26
ATOM     25  C   UNL     1      -0.951  10.942  23.083  0.00  0.00    +0.000 C 
ATOM     26  O   UNL     1       0.193  10.209  22.635  0.00  0.00    +0.000 OA
ENDBRANCH  23  26
ENDBRANCH  17  23
ENDBRANCH  16  22
ENDBRANCH  15  16
ENDBRANCH   1  15
TORSDOF 7
ENDMDL
MODEL 6
REMARK VINA RESULT:      -7.9      1.243      1.514
REMARK  Name = 
REMARK  10 active torsions:
REMARK  status: ('A' for Active; 'I' for Inactive)
REMARK    1  A    between atoms: C_1  and  O_2
REMARK    2  A    between atoms: O_2  and  C_3
REMARK    3  A    between atoms: C_3  and  C_5
REMARK    4  A    between atoms: C_10  and  O_11
REMARK    5  A    between atoms: O_11  and  C_12
REMARK    6  A    between atoms: C_12  and  C_13
REMARK    7  A    between atoms: C_15  and  C_16
REMARK    8  A    between atoms: C_20  and  O_21
REMARK    9  A    between atoms: O_21  and  C_22
REMARK   10  A    between atoms: C_25  and  C_26
REMARK                            x       y       z     vdW  Elec       q    Type
REMARK                         _______ _______ _______ _____ _____    ______ ____
ROOT
ATOM      1  C   UNL     1       6.453   4.845  17.666  0.00  0.00    +0.000 A 
ATOM      2  O   UNL     1       6.240   4.237  16.455  0.00  0.00    +0.000 OA
ATOM      3  C   UNL     1       6.983   4.973  15.568  0.00  0.00    +0.000 A 
ATOM      4  N   UNL     1       7.655   5.962  16.127  0.00  0.00    +0.000 NA
ATOM      5  C   UNL     1       7.312   5.902  17.458  0.00  0.00    +0.000 A 
ATOM      6  C   UNL     1       7.760   6.937  18.413  0.00  0.00    +0.000 C 
ENDROOT
BRANCH   3   7
ATOM      7  C   UNL     1       6.869   4.622  14.151  0.00  0.00    +0.000 A 
ATOM      8  C   UNL     1       7.702   5.263  13.222  0.00  0.00    +0.000 A 
ATOM      9  C   UNL     1       7.602   4.984  11.859  0.00  0.00    +0.000 A 
ATOM     10  C   UNL     1       6.658   4.064  11.411  0.00  0.00    +0.000 A 
ATOM     11  C   UNL     1       5.813   3.414  12.313  0.00  0.00    +0.000 A 
ATOM     12  C   UNL     1       5.924   3.690  13.680  0.00  0.00    +0.000 A 
BRANCH  11  13
ATOM     13  O   UNL     1       4.925   2.552  11.731  0.00  0.00    +0.000 OA
ATOM     14  C   UNL     1       3.827   3.122  11.031  0.00  0.00    +0.000 C 
ENDBRANCH  11  13
ENDBRANCH   3   7
BRANCH   1  15
ATOM     15  C   UNL     1       5.600   4.412  18.795  0.00  0.00    +0.000 C 
BRANCH  15  16
ATOM     16  O   UNL     1       4.504   5.320  18.980  0.00  0.00    +0.000 OA
BRANCH  16  22
ATOM     17  C   UNL     1       2.268   5.540  19.905  0.00  0.00    +0.000 A 
ATOM     18  C   UNL     1       1.105   4.896  20.392  0.00  0.00    +0.000 A 
ATOM     19  C   UNL     1       1.015   3.510  20.496  0.00  0.00    +0.000 A 
ATOM     20  C   UNL     1       2.097   2.730  20.125  0.00  0.00    +0.000 A 
ATOM     21  C   UNL     1       3.253   3.340  19.637  0.00  0.00    +0.000 A 
ATOM     22  C   UNL     1       3.356   4.741  19.486  0.00  0.00    +0.000 A 
BRANCH  17  23
ATOM     23  C   UNL     1       2.181   7.033  19.902  0.00  0.00    +0.000 C 
ATOM     24  O   UNL     1       1.591   7.649  20.778  0.00  0.00    +0.000 OA
BRANCH  23  26
ATOM     25  C   UNL     1       1.974   8.061  17.811  0.00  0.00    +0.000 C 
ATOM     26  O   UNL     1       2.832   7.613  18.866  0.00  0.00    +0.000 OA
ENDBRANCH  23  26
ENDBRANCH  17  23
ENDBRANCH  16  22
ENDBRANCH  15  16
ENDBRANCH   1  15
TORSDOF 7
ENDMDL
MODEL 7
REMARK VINA RESULT:      -7.8      3.594      5.964
REMARK  Name = 
REMARK  10 active torsions:
REMARK  status: ('A' for Active; 'I' for Inactive)
REMARK    1  A    between atoms: C_1  and  O_2
REMARK    2  A    between atoms: O_2  and  C_3
REMARK    3  A    between atoms: C_3  and  C_5
REMARK    4  A    between atoms: C_10  and  O_11
REMARK    5  A    between atoms: O_11  and  C_12
REMARK    6  A    between atoms: C_12  and  C_13
REMARK    7  A    between atoms: C_15  and  C_16
REMARK    8  A    between atoms: C_20  and  O_21
REMARK    9  A    between atoms: O_21  and  C_22
REMARK   10  A    between atoms: C_25  and  C_26
REMARK                            x       y       z     vdW  Elec       q    Type
REMARK                         _______ _______ _______ _____ _____    ______ ____
ROOT
ATOM      1  C   UNL     1       2.105   5.641  19.807  0.00  0.00    +0.000 A 
ATOM      2  O   UNL     1       3.130   6.010  18.974  0.00  0.00    +0.000 OA
ATOM      3  C   UNL     1       3.484   4.852  18.332  0.00  0.00    +0.000 A 
ATOM      4  N   UNL     1       2.751   3.808  18.673  0.00  0.00    +0.000 NA
ATOM      5  C   UNL     1       1.881   4.294  19.623  0.00  0.00    +0.000 A 
ATOM      6  C   UNL     1       0.969   3.394  20.360  0.00  0.00    +0.000 C 
ENDROOT
BRANCH   3   7
ATOM      7  C   UNL     1       4.645   4.911  17.442  0.00  0.00    +0.000 A 
ATOM      8  C   UNL     1       4.893   3.834  16.577  0.00  0.00    +0.000 A 
ATOM      9  C   UNL     1       6.008   3.834  15.738  0.00  0.00    +0.000 A 
ATOM     10  C   UNL     1       6.891   4.910  15.763  0.00  0.00    +0.000 A 
ATOM     11  C   UNL     1       6.669   5.993  16.617  0.00  0.00    +0.000 A 
ATOM     12  C   UNL     1       5.544   5.993  17.449  0.00  0.00    +0.000 A 
BRANCH  11  13
ATOM     13  O   UNL     1       7.625   6.969  16.549  0.00  0.00    +0.000 OA
ATOM     14  C   UNL     1       7.827   7.765  17.709  0.00  0.00    +0.000 C 
ENDBRANCH  11  13
ENDBRANCH   3   7
BRANCH   1  15
ATOM     15  C   UNL     1       1.656   6.637  20.805  0.00  0.00    +0.000 C 
BRANCH  15  16
ATOM     16  O   UNL     1       1.853   7.971  20.314  0.00  0.00    +0.000 OA
BRANCH  16  22
ATOM     17  C   UNL     1       0.456   9.946  20.090  0.00  0.00    +0.000 A 
ATOM     18  C   UNL     1      -0.408  10.878  20.713  0.00  0.00    +0.000 A 
ATOM     19  C   UNL     1      -0.688  10.832  22.077  0.00  0.00    +0.000 A 
ATOM     20  C   UNL     1      -0.097   9.852  22.857  0.00  0.00    +0.000 A 
ATOM     21  C   UNL     1       0.753   8.918  22.266  0.00  0.00    +0.000 A 
ATOM     22  C   UNL     1       1.024   8.921  20.879  0.00  0.00    +0.000 A 
BRANCH  17  23
ATOM     23  C   UNL     1       0.656  10.184  18.627  0.00  0.00    +0.000 C 
ATOM     24  O   UNL     1      -0.245  10.021  17.815  0.00  0.00    +0.000 OA
BRANCH  23  26
ATOM     25  C   UNL     1       2.054  12.037  18.344  0.00  0.00    +0.000 C 
ATOM     26  O   UNL     1       1.900  10.614  18.311  0.00  0.00    +0.000 OA
ENDBRANCH  23  26
ENDBRANCH  17  23
ENDBRANCH  16  22
ENDBRANCH  15  16
ENDBRANCH   1  15
TORSDOF 7
ENDMDL
MODEL 8
REMARK VINA RESULT:      -7.8      5.035      8.486
REMARK  Name = 
REMARK  10 active torsions:
REMARK  status: ('A' for Active; 'I' for Inactive)
REMARK    1  A    between atoms: C_1  and  O_2
REMARK    2  A    between atoms: O_2  and  C_3
REMARK    3  A    between atoms: C_3  and  C_5
REMARK    4  A    between atoms: C_10  and  O_11
REMARK    5  A    between atoms: O_11  and  C_12
REMARK    6  A    between atoms: C_12  and  C_13
REMARK    7  A    between atoms: C_15  and  C_16
REMARK    8  A    between atoms: C_20  and  O_21
REMARK    9  A    between atoms: O_21  and  C_22
REMARK   10  A    between atoms: C_25  and  C_26
REMARK                            x       y       z     vdW  Elec       q    Type
REMARK                         _______ _______ _______ _____ _____    ______ ____
ROOT
ATOM      1  C   UNL     1       1.232   9.303  18.648  0.00  0.00    +0.000 A 
ATOM      2  O   UNL     1       0.278   9.739  17.764  0.00  0.00    +0.000 OA
ATOM      3  C   UNL     1      -0.766  10.141  18.557  0.00  0.00    +0.000 A 
ATOM      4  N   UNL     1      -0.531  10.017  19.850  0.00  0.00    +0.000 NA
ATOM      5  C   UNL     1       0.730   9.470  19.920  0.00  0.00    +0.000 A 
ATOM      6  C   UNL     1       1.313   9.050  21.212  0.00  0.00    +0.000 C 
ENDROOT
BRANCH   3   7
ATOM      7  C   UNL     1      -1.993  10.563  17.880  0.00  0.00    +0.000 A 
ATOM      8  C   UNL     1      -2.888  11.405  18.557  0.00  0.00    +0.000 A 
ATOM      9  C   UNL     1      -4.086  11.803  17.963  0.00  0.00    +0.000 A 
ATOM     10  C   UNL     1      -4.403  11.352  16.683  0.00  0.00    +0.000 A 
ATOM     11  C   UNL     1      -3.532  10.510  15.989  0.00  0.00    +0.000 A 
ATOM     12  C   UNL     1      -2.328  10.123  16.585  0.00  0.00    +0.000 A 
BRANCH  11  13
ATOM     13  O   UNL     1      -3.981  10.134  14.752  0.00  0.00    +0.000 OA
ATOM     14  C   UNL     1      -3.002   9.894  13.750  0.00  0.00    +0.000 C 
ENDBRANCH  11  13
ENDBRANCH   3   7
BRANCH   1  15
ATOM     15  C   UNL     1       2.400   8.592  18.082  0.00  0.00    +0.000 C 
BRANCH  15  16
ATOM     16  O   UNL     1       2.450   7.240  18.558  0.00  0.00    +0.000 OA
BRANCH  16  22
ATOM     17  C   UNL     1       3.057   5.032  17.745  0.00  0.00    +0.000 A 
ATOM     18  C   UNL     1       3.961   4.237  17.000  0.00  0.00    +0.000 A 
ATOM     19  C   UNL     1       5.104   4.772  16.409  0.00  0.00    +0.000 A 
ATOM     20  C   UNL     1       5.377   6.121  16.561  0.00  0.00    +0.000 A 
ATOM     21  C   UNL     1       4.499   6.926  17.286  0.00  0.00    +0.000 A 
ATOM     22  C   UNL     1       3.315   6.416  17.863  0.00  0.00    +0.000 A 
BRANCH  17  23
ATOM     23  C   UNL     1       1.911   4.267  18.327  0.00  0.00    +0.000 C 
ATOM     24  O   UNL     1       1.072   3.722  17.623  0.00  0.00    +0.000 OA
BRANCH  23  26
ATOM     25  C   UNL     1       1.052   3.230  20.240  0.00  0.00    +0.000 C 
ATOM     26  O   UNL     1       1.918   4.224  19.680  0.00  0.00    +0.000 OA
ENDBRANCH  23  26
ENDBRANCH  17  23
ENDBRANCH  16  22
ENDBRANCH  15  16
ENDBRANCH   1  15
TORSDOF 7
ENDMDL
MODEL 9
REMARK VINA RESULT:      -7.7      2.965      7.662
REMARK  Name = 
REMARK  10 active torsions:
REMARK  status: ('A' for Active; 'I' for Inactive)
REMARK    1  A    between atoms: C_1  and  O_2
REMARK    2  A    between atoms: O_2  and  C_3
REMARK    3  A    between atoms: C_3  and  C_5
REMARK    4  A    between atoms: C_10  and  O_11
REMARK    5  A    between atoms: O_11  and  C_12
REMARK    6  A    between atoms: C_12  and  C_13
REMARK    7  A    between atoms: C_15  and  C_16
REMARK    8  A    between atoms: C_20  and  O_21
REMARK    9  A    between atoms: O_21  and  C_22
REMARK   10  A    between atoms: C_25  and  C_26
REMARK                            x       y       z     vdW  Elec       q    Type
REMARK                         _______ _______ _______ _____ _____    ______ ____
ROOT
ATOM      1  C   UNL     1       3.353   4.361  19.857  0.00  0.00    +0.000 A 
ATOM      2  O   UNL     1       3.327   5.732  19.808  0.00  0.00    +0.000 OA
ATOM      3  C   UNL     1       2.076   6.066  20.259  0.00  0.00    +0.000 A 
ATOM      4  N   UNL     1       1.339   5.027  20.607  0.00  0.00    +0.000 NA
ATOM      5  C   UNL     1       2.134   3.936  20.339  0.00  0.00    +0.000 A 
ATOM      6  C   UNL     1       1.616   2.559  20.471  0.00  0.00    +0.000 C 
ENDROOT
BRANCH   3   7
ATOM      7  C   UNL     1       1.710   7.483  20.217  0.00  0.00    +0.000 A 
ATOM      8  C   UNL     1       1.052   8.047  21.321  0.00  0.00    +0.000 A 
ATOM      9  C   UNL     1       0.653   9.384  21.309  0.00  0.00    +0.000 A 
ATOM     10  C   UNL     1       0.903  10.169  20.185  0.00  0.00    +0.000 A 
ATOM     11  C   UNL     1       1.553   9.631  19.072  0.00  0.00    +0.000 A 
ATOM     12  C   UNL     1       1.959   8.292  19.093  0.00  0.00    +0.000 A 
BRANCH  11  13
ATOM     13  O   UNL     1       1.715  10.510  18.036  0.00  0.00    +0.000 OA
ATOM     14  C   UNL     1       1.898  11.879  18.367  0.00  0.00    +0.000 C 
ENDBRANCH  11  13
ENDBRANCH   3   7
BRANCH   1  15
ATOM     15  C   UNL     1       4.503   3.687  19.214  0.00  0.00    +0.000 C 
BRANCH  15  16
ATOM     16  O   UNL     1       5.520   4.638  18.869  0.00  0.00    +0.000 OA
BRANCH  16  22
ATOM     17  C   UNL     1       6.735   5.655  17.027  0.00  0.00    +0.000 A 
ATOM     18  C   UNL     1       7.016   5.666  15.639  0.00  0.00    +0.000 A 
ATOM     19  C   UNL     1       6.392   4.794  14.750  0.00  0.00    +0.000 A 
ATOM     20  C   UNL     1       5.455   3.893  15.229  0.00  0.00    +0.000 A 
ATOM     21  C   UNL     1       5.164   3.859  16.593  0.00  0.00    +0.000 A 
ATOM     22  C   UNL     1       5.811   4.706  17.520  0.00  0.00    +0.000 A 
BRANCH  17  23
ATOM     23  C   UNL     1       7.482   6.689  17.807  0.00  0.00    +0.000 C 
ATOM     24  O   UNL     1       7.974   6.444  18.900  0.00  0.00    +0.000 OA
BRANCH  23  26
ATOM     25  C   UNL     1       8.190   8.913  17.960  0.00  0.00    +0.000 C 
ATOM     26  O   UNL     1       7.574   7.884  17.178  0.00  0.00    +0.000 OA
ENDBRANCH  23  26
ENDBRANCH  17  23
ENDBRANCH  16  22
ENDBRANCH  15  16
ENDBRANCH   1  15
TORSDOF 7
ENDMDL
