MODEL 1
REMARK VINA RESULT:      -8.5      0.000      0.000
REMARK  Name = 
REMARK  6 active torsions:
REMARK  status: ('A' for Active; 'I' for Inactive)
REMARK    1  A    between atoms: C_1  and  C_2
REMARK    2  A    between atoms: C_6  and  C_7
REMARK    3  A    between atoms: C_8  and  N_9
REMARK    4  A    between atoms: C_14  and  C_15
REMARK    5  A    between atoms: N_25  and  N_26
REMARK    6  A    between atoms: N_29  and  N_30
REMARK                            x       y       z     vdW  Elec       q    Type
REMARK                         _______ _______ _______ _____ _____    ______ ____
ROOT
ATOM      1  N   UNL     1       0.150  10.377  20.019  0.00  0.00    +0.000 N 
ATOM      2  C   UNL     1       0.554  11.290  20.989  0.00  0.00    +0.000 C 
ATOM      3  O   UNL     1       1.260  11.071  21.965  0.00  0.00    +0.000 OA
ATOM      4  C   UNL     1       0.142  12.738  20.738  0.00  0.00    +0.000 C 
ATOM      5  O   UNL     1       0.879  13.654  21.084  0.00  0.00    +0.000 OA
ATOM      6  C   UNL     1      -1.134  12.972  20.005  0.00  0.00    +0.000 C 
ATOM      7  C   UNL     1      -1.314  11.993  18.903  0.00  0.00    +0.000 C 
ATOM      8  N   UNL     1      -1.592  12.418  17.700  0.00  0.00    +0.000 NA
ATOM      9  C   UNL     1      -0.985  10.554  19.228  0.00  0.00    +0.000 C 
ATOM     10  O   UNL     1      -1.670   9.683  18.706  0.00  0.00    +0.000 OA
ENDROOT
BRANCH   6  11
ATOM     11  C   UNL     1      -2.263  12.862  20.966  0.00  0.00    +0.000 A 
ATOM     12  N   UNL     1      -2.112  12.594  22.243  0.00  0.00    +0.000 NA
ATOM     13  C   UNL     1      -3.351  12.621  22.874  0.00  0.00    +0.000 A 
ATOM     14  C   UNL     1      -3.586  12.407  24.246  0.00  0.00    +0.000 A 
ATOM     15  C   UNL     1      -4.890  12.487  24.749  0.00  0.00    +0.000 A 
ATOM     16  C   UNL     1      -5.958  12.769  23.903  0.00  0.00    +0.000 A 
ATOM     17  C   UNL     1      -5.753  12.974  22.536  0.00  0.00    +0.000 A 
ATOM     18  C   UNL     1      -4.441  12.897  22.044  0.00  0.00    +0.000 A 
ATOM     19  S   UNL     1      -3.874  13.111  20.434  0.00  0.00    +0.000 S 
ENDBRANCH   6  11
BRANCH   1  27
ATOM     20  C   UNL     1      -0.324   8.201  21.881  0.00  0.00    +0.000 C 
ATOM     21  C   UNL     1       0.697   8.119  20.776  0.00  0.00    +0.000 A 
ATOM     22  C   UNL     1       1.462   6.947  20.699  0.00  0.00    +0.000 A 
ATOM     23  C   UNL     1       2.364   6.761  19.662  0.00  0.00    +0.000 A 
ATOM     24  C   UNL     1       2.503   7.746  18.685  0.00  0.00    +0.000 A 
ATOM     25  C   UNL     1       1.783   8.955  18.748  0.00  0.00    +0.000 A 
ATOM     26  C   UNL     1       2.051   9.960  17.661  0.00  0.00    +0.000 C 
ATOM     27  C   UNL     1       0.882   9.158  19.817  0.00  0.00    +0.000 A 
ENDBRANCH   1  27
BRANCH   8  28
ATOM     28  N   UNL     1      -1.751  11.474  16.719  0.00  0.00    +0.000 N 
ATOM     29  C   UNL     1      -2.993  11.125  16.230  0.00  0.00    +0.000 C 
ATOM     30  O   UNL     1      -3.140  10.368  15.269  0.00  0.00    +0.000 OA
ATOM     31  N   UNL     1      -4.038  11.783  16.860  0.00  0.00    +0.000 N 
ATOM     32  H   UNL     1      -0.938  11.100  16.218  0.00  0.00    +0.000 HD
ATOM     33  H   UNL     1      -3.816  12.119  17.795  0.00  0.00    +0.000 HD
BRANCH  31  34
ATOM     34  N   UNL     1      -5.375  11.512  16.503  0.00  0.00    +0.000 NA
ATOM     35  H   UNL     1      -5.901  11.398  17.381  0.00  0.00    +0.000 HD
ATOM     36  H   UNL     1      -5.399  10.585  16.072  0.00  0.00    +0.000 HD
ENDBRANCH  31  34
ENDBRANCH   8  28
TORSDOF 4
ENDMDL
MODEL 2
REMARK VINA RESULT:      -8.4      0.203      1.554
REMARK  Name = 
REMARK  6 active torsions:
REMARK  status: ('A' for Active; 'I' for Inactive)
REMARK    1  A    between atoms: C_1  and  C_2
REMARK    2  A    between atoms: C_6  and  C_7
REMARK    3  A    between atoms: C_8  and  N_9
REMARK    4  A    between atoms: C_14  and  C_15
REMARK    5  A    between atoms: N_25  and  N_26
REMARK    6  A    between atoms: N_29  and  N_30
REMARK                            x       y       z     vdW  Elec       q    Type
REMARK                         _______ _______ _______ _____ _____    ______ ____
ROOT
ATOM      1  N   UNL     1       0.204  10.468  19.987  0.00  0.00    +0.000 N 
ATOM      2  C   UNL     1       0.591  11.405  20.942  0.00  0.00    +0.000 C 
ATOM      3  O   UNL     1       1.312  11.219  21.913  0.00  0.00    +0.000 OA
ATOM      4  C   UNL     1       0.134  12.837  20.676  0.00  0.00    +0.000 C 
ATOM      5  O   UNL     1       0.847  13.779  21.003  0.00  0.00    +0.000 OA
ATOM      6  C   UNL     1      -1.155  13.025  19.954  0.00  0.00    +0.000 C 
ATOM      7  C   UNL     1      -1.318  12.027  18.866  0.00  0.00    +0.000 C 
ATOM      8  N   UNL     1      -1.620  12.429  17.661  0.00  0.00    +0.000 NA
ATOM      9  C   UNL     1      -0.943  10.602  19.206  0.00  0.00    +0.000 C 
ATOM     10  O   UNL     1      -1.607   9.705  18.701  0.00  0.00    +0.000 OA
ENDROOT
BRANCH   6  11
ATOM     11  C   UNL     1      -2.271  12.894  20.928  0.00  0.00    +0.000 A 
ATOM     12  N   UNL     1      -2.101  12.630  22.203  0.00  0.00    +0.000 NA
ATOM     13  C   UNL     1      -3.333  12.633  22.848  0.00  0.00    +0.000 A 
ATOM     14  C   UNL     1      -3.548  12.417  24.223  0.00  0.00    +0.000 A 
ATOM     15  C   UNL     1      -4.847  12.472  24.741  0.00  0.00    +0.000 A 
ATOM     16  C   UNL     1      -5.931  12.731  23.907  0.00  0.00    +0.000 A 
ATOM     17  C   UNL     1      -5.745  12.939  22.537  0.00  0.00    +0.000 A 
ATOM     18  C   UNL     1      -4.437  12.887  22.030  0.00  0.00    +0.000 A 
ATOM     19  S   UNL     1      -3.893  13.110  20.414  0.00  0.00    +0.000 S 
ENDBRANCH   6  11
BRANCH   1  27
ATOM     20  C   UNL     1       2.063  10.410  17.759  0.00  0.00    +0.000 C 
ATOM     21  C   UNL     1       1.829   9.221  18.656  0.00  0.00    +0.000 A 
ATOM     22  C   UNL     1       2.522   8.042  18.347  0.00  0.00    +0.000 A 
ATOM     23  C   UNL     1       2.424   6.932  19.171  0.00  0.00    +0.000 A 
ATOM     24  C   UNL     1       1.636   6.993  20.319  0.00  0.00    +0.000 A 
ATOM     25  C   UNL     1       0.892   8.145  20.644  0.00  0.00    +0.000 A 
ATOM     26  C   UNL     1       0.043   8.076  21.884  0.00  0.00    +0.000 C 
ATOM     27  C   UNL     1       0.970   9.270  19.793  0.00  0.00    +0.000 A 
ENDBRANCH   1  27
BRANCH   8  28
ATOM     28  N   UNL     1      -1.761  11.467  16.694  0.00  0.00    +0.000 N 
ATOM     29  C   UNL     1      -2.995  11.100  16.197  0.00  0.00    +0.000 C 
ATOM     30  O   UNL     1      -3.125  10.327  15.247  0.00  0.00    +0.000 OA
ATOM     31  N   UNL     1      -4.052  11.759  16.806  0.00  0.00    +0.000 N 
ATOM     32  H   UNL     1      -0.939  11.093  16.207  0.00  0.00    +0.000 HD
ATOM     33  H   UNL     1      -3.842  12.111  17.738  0.00  0.00    +0.000 HD
BRANCH  31  34
ATOM     34  N   UNL     1      -5.383  11.471  16.440  0.00  0.00    +0.000 NA
ATOM     35  H   UNL     1      -5.338  10.853  15.618  0.00  0.00    +0.000 HD
ATOM     36  H   UNL     1      -5.799  12.335  16.083  0.00  0.00    +0.000 HD
ENDBRANCH  31  34
ENDBRANCH   8  28
TORSDOF 4
ENDMDL
MODEL 3
REMARK VINA RESULT:      -8.4      0.709      1.097
REMARK  Name = 
REMARK  6 active torsions:
REMARK  status: ('A' for Active; 'I' for Inactive)
REMARK    1  A    between atoms: C_1  and  C_2
REMARK    2  A    between atoms: C_6  and  C_7
REMARK    3  A    between atoms: C_8  and  N_9
REMARK    4  A    between atoms: C_14  and  C_15
REMARK    5  A    between atoms: N_25  and  N_26
REMARK    6  A    between atoms: N_29  and  N_30
REMARK                            x       y       z     vdW  Elec       q    Type
REMARK                         _______ _______ _______ _____ _____    ______ ____
ROOT
ATOM      1  N   UNL     1       0.231  10.391  20.020  0.00  0.00    +0.000 N 
ATOM      2  C   UNL     1       0.712  11.331  20.929  0.00  0.00    +0.000 C 
ATOM      3  O   UNL     1       1.466  11.131  21.872  0.00  0.00    +0.000 OA
ATOM      4  C   UNL     1       0.321  12.778  20.643  0.00  0.00    +0.000 C 
ATOM      5  O   UNL     1       1.099  13.687  20.910  0.00  0.00    +0.000 OA
ATOM      6  C   UNL     1      -0.988  13.018  19.974  0.00  0.00    +0.000 C 
ATOM      7  C   UNL     1      -1.254  12.001  18.923  0.00  0.00    +0.000 C 
ATOM      8  N   UNL     1      -1.589  12.387  17.721  0.00  0.00    +0.000 NA
ATOM      9  C   UNL     1      -0.942  10.568  19.287  0.00  0.00    +0.000 C 
ATOM     10  O   UNL     1      -1.676   9.696  18.839  0.00  0.00    +0.000 OA
ENDROOT
BRANCH   6  11
ATOM     11  C   UNL     1      -2.062  12.975  20.999  0.00  0.00    +0.000 A 
ATOM     12  N   UNL     1      -3.343  13.071  20.720  0.00  0.00    +0.000 NA
ATOM     13  C   UNL     1      -4.085  12.935  21.888  0.00  0.00    +0.000 A 
ATOM     14  C   UNL     1      -5.490  12.956  21.983  0.00  0.00    +0.000 A 
ATOM     15  C   UNL     1      -6.106  12.784  23.228  0.00  0.00    +0.000 A 
ATOM     16  C   UNL     1      -5.341  12.600  24.376  0.00  0.00    +0.000 A 
ATOM     17  C   UNL     1      -3.945  12.586  24.310  0.00  0.00    +0.000 A 
ATOM     18  C   UNL     1      -3.339  12.754  23.055  0.00  0.00    +0.000 A 
ATOM     19  S   UNL     1      -1.667  12.771  22.655  0.00  0.00    +0.000 S 
ENDBRANCH   6  11
BRANCH   1  27
ATOM     20  C   UNL     1      -0.285   8.261  21.923  0.00  0.00    +0.000 C 
ATOM     21  C   UNL     1       0.717   8.129  20.804  0.00  0.00    +0.000 A 
ATOM     22  C   UNL     1       1.443   6.932  20.735  0.00  0.00    +0.000 A 
ATOM     23  C   UNL     1       2.323   6.701  19.689  0.00  0.00    +0.000 A 
ATOM     24  C   UNL     1       2.479   7.666  18.695  0.00  0.00    +0.000 A 
ATOM     25  C   UNL     1       1.799   8.899  18.748  0.00  0.00    +0.000 A 
ATOM     26  C   UNL     1       2.084   9.878  17.642  0.00  0.00    +0.000 C 
ATOM     27  C   UNL     1       0.921   9.147  19.827  0.00  0.00    +0.000 A 
ENDBRANCH   1  27
BRANCH   8  28
ATOM     28  N   UNL     1      -1.826  11.410  16.790  0.00  0.00    +0.000 N 
ATOM     29  C   UNL     1      -3.099  11.110  16.348  0.00  0.00    +0.000 C 
ATOM     30  O   UNL     1      -3.313  10.319  15.427  0.00  0.00    +0.000 OA
ATOM     31  N   UNL     1      -4.088  11.853  16.972  0.00  0.00    +0.000 N 
ATOM     32  H   UNL     1      -1.049  10.968  16.287  0.00  0.00    +0.000 HD
ATOM     33  H   UNL     1      -3.823  12.218  17.884  0.00  0.00    +0.000 HD
BRANCH  31  34
ATOM     34  N   UNL     1      -5.447  11.643  16.660  0.00  0.00    +0.000 NA
ATOM     35  H   UNL     1      -5.584  10.624  16.597  0.00  0.00    +0.000 HD
ATOM     36  H   UNL     1      -5.601  11.977  15.706  0.00  0.00    +0.000 HD
ENDBRANCH  31  34
ENDBRANCH   8  28
TORSDOF 4
ENDMDL
MODEL 4
REMARK VINA RESULT:      -8.2      0.742      1.906
REMARK  Name = 
REMARK  6 active torsions:
REMARK  status: ('A' for Active; 'I' for Inactive)
REMARK    1  A    between atoms: C_1  and  C_2
REMARK    2  A    between atoms: C_6  and  C_7
REMARK    3  A    between atoms: C_8  and  N_9
REMARK    4  A    between atoms: C_14  and  C_15
REMARK    5  A    between atoms: N_25  and  N_26
REMARK    6  A    between atoms: N_29  and  N_30
REMARK                            x       y       z     vdW  Elec       q    Type
REMARK                         _______ _______ _______ _____ _____    ______ ____
ROOT
ATOM      1  N   UNL     1       0.301  10.536  19.971  0.00  0.00    +0.000 N 
ATOM      2  C   UNL     1       0.762  11.509  20.854  0.00  0.00    +0.000 C 
ATOM      3  O   UNL     1       1.540  11.354  21.786  0.00  0.00    +0.000 OA
ATOM      4  C   UNL     1       0.310  12.935  20.552  0.00  0.00    +0.000 C 
ATOM      5  O   UNL     1       1.057  13.877  20.789  0.00  0.00    +0.000 OA
ATOM      6  C   UNL     1      -1.019  13.113  19.904  0.00  0.00    +0.000 C 
ATOM      7  C   UNL     1      -1.265  12.069  18.876  0.00  0.00    +0.000 C 
ATOM      8  N   UNL     1      -1.638  12.421  17.675  0.00  0.00    +0.000 NA
ATOM      9  C   UNL     1      -0.891  10.655  19.257  0.00  0.00    +0.000 C 
ATOM     10  O   UNL     1      -1.600   9.748  18.838  0.00  0.00    +0.000 OA
ENDROOT
BRANCH   6  11
ATOM     11  C   UNL     1      -2.072  13.046  20.950  0.00  0.00    +0.000 A 
ATOM     12  N   UNL     1      -3.360  13.107  20.697  0.00  0.00    +0.000 NA
ATOM     13  C   UNL     1      -4.076  12.957  21.879  0.00  0.00    +0.000 A 
ATOM     14  C   UNL     1      -5.479  12.941  22.001  0.00  0.00    +0.000 A 
ATOM     15  C   UNL     1      -6.066  12.758  23.259  0.00  0.00    +0.000 A 
ATOM     16  C   UNL     1      -5.274  12.600  24.392  0.00  0.00    +0.000 A 
ATOM     17  C   UNL     1      -3.880  12.623  24.299  0.00  0.00    +0.000 A 
ATOM     18  C   UNL     1      -3.302  12.801  23.032  0.00  0.00    +0.000 A 
ATOM     19  S   UNL     1      -1.639  12.861  22.600  0.00  0.00    +0.000 S 
ENDBRANCH   6  11
BRANCH   1  27
ATOM     20  C   UNL     1       2.096  10.384  17.695  0.00  0.00    +0.000 C 
ATOM     21  C   UNL     1       1.861   9.222  18.627  0.00  0.00    +0.000 A 
ATOM     22  C   UNL     1       2.519   8.021  18.327  0.00  0.00    +0.000 A 
ATOM     23  C   UNL     1       2.419   6.932  19.181  0.00  0.00    +0.000 A 
ATOM     24  C   UNL     1       1.665   7.039  20.348  0.00  0.00    +0.000 A 
ATOM     25  C   UNL     1       0.956   8.214  20.665  0.00  0.00    +0.000 A 
ATOM     26  C   UNL     1       0.141   8.193  21.929  0.00  0.00    +0.000 C 
ATOM     27  C   UNL     1       1.035   9.316  19.785  0.00  0.00    +0.000 A 
ENDBRANCH   1  27
BRANCH   8  28
ATOM     28  N   UNL     1      -1.853  11.420  16.764  0.00  0.00    +0.000 N 
ATOM     29  C   UNL     1      -3.119  11.083  16.329  0.00  0.00    +0.000 C 
ATOM     30  O   UNL     1      -3.317  10.269  15.425  0.00  0.00    +0.000 OA
ATOM     31  N   UNL     1      -4.125  11.818  16.938  0.00  0.00    +0.000 N 
ATOM     32  H   UNL     1      -1.067  10.985  16.270  0.00  0.00    +0.000 HD
ATOM     33  H   UNL     1      -3.867  12.207  17.843  0.00  0.00    +0.000 HD
BRANCH  31  34
ATOM     34  N   UNL     1      -5.479  11.572  16.632  0.00  0.00    +0.000 NA
ATOM     35  H   UNL     1      -6.024  12.334  17.059  0.00  0.00    +0.000 HD
ATOM     36  H   UNL     1      -5.766  10.737  17.149  0.00  0.00    +0.000 HD
ENDBRANCH  31  34
ENDBRANCH   8  28
TORSDOF 4
ENDMDL
MODEL 5
REMARK VINA RESULT:      -8.0      1.084      1.901
REMARK  Name = 
REMARK  6 active torsions:
REMARK  status: ('A' for Active; 'I' for Inactive)
REMARK    1  A    between atoms: C_1  and  C_2
REMARK    2  A    between atoms: C_6  and  C_7
REMARK    3  A    between atoms: C_8  and  N_9
REMARK    4  A    between atoms: C_14  and  C_15
REMARK    5  A    between atoms: N_25  and  N_26
REMARK    6  A    between atoms: N_29  and  N_30
REMARK                            x       y       z     vdW  Elec       q    Type
REMARK                         _______ _______ _______ _____ _____    ______ ____
ROOT
ATOM      1  N   UNL     1       0.378  10.742  19.905  0.00  0.00    +0.000 N 
ATOM      2  C   UNL     1       0.978  11.830  20.534  0.00  0.00    +0.000 C 
ATOM      3  O   UNL     1       1.813  11.801  21.428  0.00  0.00    +0.000 OA
ATOM      4  C   UNL     1       0.610  13.198  19.967  0.00  0.00    +0.000 C 
ATOM      5  O   UNL     1       1.440  14.099  19.954  0.00  0.00    +0.000 OA
ATOM      6  C   UNL     1      -0.749  13.356  19.379  0.00  0.00    +0.000 C 
ATOM      7  C   UNL     1      -1.152  12.150  18.611  0.00  0.00    +0.000 C 
ATOM      8  N   UNL     1      -1.590  12.280  17.387  0.00  0.00    +0.000 NA
ATOM      9  C   UNL     1      -0.854  10.817  19.257  0.00  0.00    +0.000 C 
ATOM     10  O   UNL     1      -1.658   9.909  19.083  0.00  0.00    +0.000 OA
ENDROOT
BRANCH   6  11
ATOM     11  C   UNL     1      -1.719  13.599  20.478  0.00  0.00    +0.000 A 
ATOM     12  N   UNL     1      -1.431  14.265  21.574  0.00  0.00    +0.000 NA
ATOM     13  C   UNL     1      -2.567  14.366  22.370  0.00  0.00    +0.000 A 
ATOM     14  C   UNL     1      -2.653  15.032  23.608  0.00  0.00    +0.000 A 
ATOM     15  C   UNL     1      -3.873  15.072  24.293  0.00  0.00    +0.000 A 
ATOM     16  C   UNL     1      -5.002  14.452  23.764  0.00  0.00    +0.000 A 
ATOM     17  C   UNL     1      -4.940  13.776  22.542  0.00  0.00    +0.000 A 
ATOM     18  C   UNL     1      -3.712  13.747  21.862  0.00  0.00    +0.000 A 
ATOM     19  S   UNL     1      -3.328  13.016  20.354  0.00  0.00    +0.000 S 
ENDBRANCH   6  11
BRANCH   1  27
ATOM     20  C   UNL     1       2.083  10.023  17.668  0.00  0.00    +0.000 C 
ATOM     21  C   UNL     1       1.782   9.075  18.802  0.00  0.00    +0.000 A 
ATOM     22  C   UNL     1       2.330   7.787  18.718  0.00  0.00    +0.000 A 
ATOM     23  C   UNL     1       2.168   6.885  19.759  0.00  0.00    +0.000 A 
ATOM     24  C   UNL     1       1.462   7.267  20.899  0.00  0.00    +0.000 A 
ATOM     25  C   UNL     1       0.862   8.537  21.005  0.00  0.00    +0.000 A 
ATOM     26  C   UNL     1       0.087   8.817  22.264  0.00  0.00    +0.000 C 
ATOM     27  C   UNL     1       1.003   9.449  19.935  0.00  0.00    +0.000 A 
ENDBRANCH   1  27
BRANCH   8  28
ATOM     28  N   UNL     1      -1.950  11.136  16.723  0.00  0.00    +0.000 N 
ATOM     29  C   UNL     1      -3.263  10.857  16.401  0.00  0.00    +0.000 C 
ATOM     30  O   UNL     1      -3.585   9.894  15.702  0.00  0.00    +0.000 OA
ATOM     31  N   UNL     1      -4.158  11.812  16.858  0.00  0.00    +0.000 N 
ATOM     32  H   UNL     1      -1.236  10.521  16.318  0.00  0.00    +0.000 HD
ATOM     33  H   UNL     1      -3.819  12.355  17.649  0.00  0.00    +0.000 HD
BRANCH  31  34
ATOM     34  N   UNL     1      -5.543  11.657  16.644  0.00  0.00    +0.000 NA
ATOM     35  H   UNL     1      -5.990  12.535  16.943  0.00  0.00    +0.000 HD
ATOM     36  H   UNL     1      -5.883  10.961  17.311  0.00  0.00    +0.000 HD
ENDBRANCH  31  34
ENDBRANCH   8  28
TORSDOF 4
ENDMDL
MODEL 6
REMARK VINA RESULT:      -7.9      0.994      1.017
REMARK  Name = 
REMARK  6 active torsions:
REMARK  status: ('A' for Active; 'I' for Inactive)
REMARK    1  A    between atoms: C_1  and  C_2
REMARK    2  A    between atoms: C_6  and  C_7
REMARK    3  A    between atoms: C_8  and  N_9
REMARK    4  A    between atoms: C_14  and  C_15
REMARK    5  A    between atoms: N_25  and  N_26
REMARK    6  A    between atoms: N_29  and  N_30
REMARK                            x       y       z     vdW  Elec       q    Type
REMARK                         _______ _______ _______ _____ _____    ______ ____
ROOT
ATOM      1  N   UNL     1       0.323  10.649  19.864  0.00  0.00    +0.000 N 
ATOM      2  C   UNL     1       0.933  11.699  20.546  0.00  0.00    +0.000 C 
ATOM      3  O   UNL     1       1.761  11.619  21.443  0.00  0.00    +0.000 OA
ATOM      4  C   UNL     1       0.588  13.096  20.037  0.00  0.00    +0.000 C 
ATOM      5  O   UNL     1       1.431  13.986  20.070  0.00  0.00    +0.000 OA
ATOM      6  C   UNL     1      -0.765  13.299  19.447  0.00  0.00    +0.000 C 
ATOM      7  C   UNL     1      -1.178  12.134  18.624  0.00  0.00    +0.000 C 
ATOM      8  N   UNL     1      -1.606  12.324  17.404  0.00  0.00    +0.000 NA
ATOM      9  C   UNL     1      -0.903  10.769  19.212  0.00  0.00    +0.000 C 
ATOM     10  O   UNL     1      -1.718   9.882  18.992  0.00  0.00    +0.000 OA
ENDROOT
BRANCH   6  11
ATOM     11  C   UNL     1      -1.740  13.507  20.550  0.00  0.00    +0.000 A 
ATOM     12  N   UNL     1      -1.454  14.130  21.670  0.00  0.00    +0.000 NA
ATOM     13  C   UNL     1      -2.594  14.208  22.464  0.00  0.00    +0.000 A 
ATOM     14  C   UNL     1      -2.683  14.829  23.725  0.00  0.00    +0.000 A 
ATOM     15  C   UNL     1      -3.907  14.850  24.404  0.00  0.00    +0.000 A 
ATOM     16  C   UNL     1      -5.035  14.256  23.847  0.00  0.00    +0.000 A 
ATOM     17  C   UNL     1      -4.970  13.625  22.602  0.00  0.00    +0.000 A 
ATOM     18  C   UNL     1      -3.739  13.615  21.927  0.00  0.00    +0.000 A 
ATOM     19  S   UNL     1      -3.350  12.937  20.396  0.00  0.00    +0.000 S 
ENDBRANCH   6  11
BRANCH   1  27
ATOM     20  C   UNL     1      -0.281   8.847  22.058  0.00  0.00    +0.000 C 
ATOM     21  C   UNL     1       0.686   8.494  20.957  0.00  0.00    +0.000 A 
ATOM     22  C   UNL     1       1.334   7.254  21.050  0.00  0.00    +0.000 A 
ATOM     23  C   UNL     1       2.175   6.822  20.035  0.00  0.00    +0.000 A 
ATOM     24  C   UNL     1       2.368   7.624  18.911  0.00  0.00    +0.000 A 
ATOM     25  C   UNL     1       1.767   8.893  18.797  0.00  0.00    +0.000 A 
ATOM     26  C   UNL     1       2.087   9.685  17.559  0.00  0.00    +0.000 C 
ATOM     27  C   UNL     1       0.930   9.348  19.842  0.00  0.00    +0.000 A 
ENDBRANCH   1  27
BRANCH   8  28
ATOM     28  N   UNL     1      -1.976  11.216  16.687  0.00  0.00    +0.000 N 
ATOM     29  C   UNL     1      -3.294  10.951  16.375  0.00  0.00    +0.000 C 
ATOM     30  O   UNL     1      -3.627  10.026  15.632  0.00  0.00    +0.000 OA
ATOM     31  N   UNL     1      -4.182  11.879  16.897  0.00  0.00    +0.000 N 
ATOM     32  H   UNL     1      -1.269  10.625  16.237  0.00  0.00    +0.000 HD
ATOM     33  H   UNL     1      -3.830  12.381  17.710  0.00  0.00    +0.000 HD
BRANCH  31  34
ATOM     34  N   UNL     1      -5.570  11.732  16.701  0.00  0.00    +0.000 NA
ATOM     35  H   UNL     1      -5.844  10.849  17.155  0.00  0.00    +0.000 HD
ATOM     36  H   UNL     1      -5.725  11.561  15.705  0.00  0.00    +0.000 HD
ENDBRANCH  31  34
ENDBRANCH   8  28
TORSDOF 4
ENDMDL
MODEL 7
REMARK VINA RESULT:      -7.9      2.847      6.348
REMARK  Name = 
REMARK  6 active torsions:
REMARK  status: ('A' for Active; 'I' for Inactive)
REMARK    1  A    between atoms: C_1  and  C_2
REMARK    2  A    between atoms: C_6  and  C_7
REMARK    3  A    between atoms: C_8  and  N_9
REMARK    4  A    between atoms: C_14  and  C_15
REMARK    5  A    between atoms: N_25  and  N_26
REMARK    6  A    between atoms: N_29  and  N_30
REMARK                            x       y       z     vdW  Elec       q    Type
REMARK                         _______ _______ _______ _____ _____    ______ ____
ROOT
ATOM      1  N   UNL     1      -0.050  13.540  19.819  0.00  0.00    +0.000 N 
ATOM      2  C   UNL     1       0.497  13.069  21.010  0.00  0.00    +0.000 C 
ATOM      3  O   UNL     1       1.466  13.517  21.609  0.00  0.00    +0.000 OA
ATOM      4  C   UNL     1      -0.268  11.928  21.675  0.00  0.00    +0.000 C 
ATOM      5  O   UNL     1      -0.309  11.848  22.898  0.00  0.00    +0.000 OA
ATOM      6  C   UNL     1      -1.002  10.983  20.789  0.00  0.00    +0.000 C 
ATOM      7  C   UNL     1      -1.653  11.694  19.658  0.00  0.00    +0.000 C 
ATOM      8  N   UNL     1      -2.920  11.495  19.413  0.00  0.00    +0.000 NA
ATOM      9  C   UNL     1      -0.821  12.750  18.967  0.00  0.00    +0.000 C 
ATOM     10  O   UNL     1      -0.961  12.881  17.757  0.00  0.00    +0.000 OA
ENDROOT
BRANCH   6  11
ATOM     11  C   UNL     1      -0.042   9.977  20.264  0.00  0.00    +0.000 A 
ATOM     12  N   UNL     1       0.504  10.040  19.071  0.00  0.00    +0.000 NA
ATOM     13  C   UNL     1       1.397   8.986  18.911  0.00  0.00    +0.000 A 
ATOM     14  C   UNL     1       2.191   8.739  17.774  0.00  0.00    +0.000 A 
ATOM     15  C   UNL     1       3.066   7.647  17.760  0.00  0.00    +0.000 A 
ATOM     16  C   UNL     1       3.154   6.798  18.859  0.00  0.00    +0.000 A 
ATOM     17  C   UNL     1       2.370   7.015  19.996  0.00  0.00    +0.000 A 
ATOM     18  C   UNL     1       1.500   8.117  20.000  0.00  0.00    +0.000 A 
ATOM     19  S   UNL     1       0.430   8.646  21.238  0.00  0.00    +0.000 S 
ENDBRANCH   6  11
BRANCH   1  27
ATOM     20  C   UNL     1      -2.001  15.566  20.538  0.00  0.00    +0.000 C 
ATOM     21  C   UNL     1      -0.795  15.862  19.682  0.00  0.00    +0.000 A 
ATOM     22  C   UNL     1      -0.665  17.170  19.195  0.00  0.00    +0.000 A 
ATOM     23  C   UNL     1       0.457  17.543  18.470  0.00  0.00    +0.000 A 
ATOM     24  C   UNL     1       1.465  16.609  18.232  0.00  0.00    +0.000 A 
ATOM     25  C   UNL     1       1.354  15.275  18.670  0.00  0.00    +0.000 A 
ATOM     26  C   UNL     1       2.486  14.350  18.315  0.00  0.00    +0.000 C 
ATOM     27  C   UNL     1       0.201  14.886  19.387  0.00  0.00    +0.000 A 
ENDBRANCH   1  27
BRANCH   8  28
ATOM     28  N   UNL     1      -3.471  12.175  18.358  0.00  0.00    +0.000 N 
ATOM     29  C   UNL     1      -4.779  11.979  17.962  0.00  0.00    +0.000 C 
ATOM     30  O   UNL     1      -5.320  12.667  17.094  0.00  0.00    +0.000 OA
ATOM     31  N   UNL     1      -5.439  11.008  18.698  0.00  0.00    +0.000 N 
ATOM     32  H   UNL     1      -2.970  12.955  17.920  0.00  0.00    +0.000 HD
ATOM     33  H   UNL     1      -4.822  10.332  19.144  0.00  0.00    +0.000 HD
BRANCH  31  34
ATOM     34  N   UNL     1      -6.772  10.661  18.397  0.00  0.00    +0.000 NA
ATOM     35  H   UNL     1      -7.120  10.101  19.188  0.00  0.00    +0.000 HD
ATOM     36  H   UNL     1      -6.750  10.003  17.614  0.00  0.00    +0.000 HD
ENDBRANCH  31  34
ENDBRANCH   8  28
TORSDOF 4
ENDMDL
MODEL 8
REMARK VINA RESULT:      -7.7      2.853      6.441
REMARK  Name = 
REMARK  6 active torsions:
REMARK  status: ('A' for Active; 'I' for Inactive)
REMARK    1  A    between atoms: C_1  and  C_2
REMARK    2  A    between atoms: C_6  and  C_7
REMARK    3  A    between atoms: C_8  and  N_9
REMARK    4  A    between atoms: C_14  and  C_15
REMARK    5  A    between atoms: N_25  and  N_26
REMARK    6  A    between atoms: N_29  and  N_30
REMARK                            x       y       z     vdW  Elec       q    Type
REMARK                         _______ _______ _______ _____ _____    ______ ____
ROOT
ATOM      1  N   UNL     1      -0.069  13.549  19.843  0.00  0.00    +0.000 N 
ATOM      2  C   UNL     1       0.478  13.077  21.033  0.00  0.00    +0.000 C 
ATOM      3  O   UNL     1       1.448  13.524  21.632  0.00  0.00    +0.000 OA
ATOM      4  C   UNL     1      -0.289  11.938  21.699  0.00  0.00    +0.000 C 
ATOM      5  O   UNL     1      -0.329  11.859  22.922  0.00  0.00    +0.000 OA
ATOM      6  C   UNL     1      -1.025  10.994  20.813  0.00  0.00    +0.000 C 
ATOM      7  C   UNL     1      -1.675  11.706  19.683  0.00  0.00    +0.000 C 
ATOM      8  N   UNL     1      -2.942  11.509  19.439  0.00  0.00    +0.000 NA
ATOM      9  C   UNL     1      -0.841  12.760  18.991  0.00  0.00    +0.000 C 
ATOM     10  O   UNL     1      -0.982  12.891  17.781  0.00  0.00    +0.000 OA
ENDROOT
BRANCH   6  11
ATOM     11  C   UNL     1      -0.067   9.986  20.289  0.00  0.00    +0.000 A 
ATOM     12  N   UNL     1       0.478  10.047  19.095  0.00  0.00    +0.000 NA
ATOM     13  C   UNL     1       1.370   8.992  18.935  0.00  0.00    +0.000 A 
ATOM     14  C   UNL     1       2.162   8.743  17.797  0.00  0.00    +0.000 A 
ATOM     15  C   UNL     1       3.036   7.650  17.784  0.00  0.00    +0.000 A 
ATOM     16  C   UNL     1       3.124   6.802  18.884  0.00  0.00    +0.000 A 
ATOM     17  C   UNL     1       2.341   7.021  20.021  0.00  0.00    +0.000 A 
ATOM     18  C   UNL     1       1.473   8.124  20.025  0.00  0.00    +0.000 A 
ATOM     19  S   UNL     1       0.405   8.655  21.263  0.00  0.00    +0.000 S 
ENDBRANCH   6  11
BRANCH   1  27
ATOM     20  C   UNL     1       2.319  14.024  18.263  0.00  0.00    +0.000 C 
ATOM     21  C   UNL     1       1.394  15.133  18.695  0.00  0.00    +0.000 A 
ATOM     22  C   UNL     1       1.754  16.440  18.337  0.00  0.00    +0.000 A 
ATOM     23  C   UNL     1       0.914  17.505  18.626  0.00  0.00    +0.000 A 
ATOM     24  C   UNL     1      -0.301  17.271  19.268  0.00  0.00    +0.000 A 
ATOM     25  C   UNL     1      -0.682  15.978  19.678  0.00  0.00    +0.000 A 
ATOM     26  C   UNL     1      -1.995  15.857  20.403  0.00  0.00    +0.000 C 
ATOM     27  C   UNL     1       0.184  14.894  19.410  0.00  0.00    +0.000 A 
ENDBRANCH   1  27
BRANCH   8  28
ATOM     28  N   UNL     1      -3.493  12.189  18.383  0.00  0.00    +0.000 N 
ATOM     29  C   UNL     1      -4.798  11.988  17.981  0.00  0.00    +0.000 C 
ATOM     30  O   UNL     1      -5.339  12.676  17.114  0.00  0.00    +0.000 OA
ATOM     31  N   UNL     1      -5.456  11.011  18.712  0.00  0.00    +0.000 N 
ATOM     32  H   UNL     1      -2.993  12.973  17.950  0.00  0.00    +0.000 HD
ATOM     33  H   UNL     1      -4.837  10.337  19.158  0.00  0.00    +0.000 HD
BRANCH  31  34
ATOM     34  N   UNL     1      -6.786  10.659  18.404  0.00  0.00    +0.000 NA
ATOM     35  H   UNL     1      -7.098  10.006  19.137  0.00  0.00    +0.000 HD
ATOM     36  H   UNL     1      -6.766  10.091  17.554  0.00  0.00    +0.000 HD
ENDBRANCH  31  34
ENDBRANCH   8  28
TORSDOF 4
ENDMDL
MODEL 9
REMARK VINA RESULT:      -7.6      2.812      6.344
REMARK  Name = 
REMARK  6 active torsions:
REMARK  status: ('A' for Active; 'I' for Inactive)
REMARK    1  A    between atoms: C_1  and  C_2
REMARK    2  A    between atoms: C_6  and  C_7
REMARK    3  A    between atoms: C_8  and  N_9
REMARK    4  A    between atoms: C_14  and  C_15
REMARK    5  A    between atoms: N_25  and  N_26
REMARK    6  A    between atoms: N_29  and  N_30
REMARK                            x       y       z     vdW  Elec       q    Type
REMARK                         _______ _______ _______ _____ _____    ______ ____
ROOT
ATOM      1  N   UNL     1      -0.057  13.483  19.829  0.00  0.00    +0.000 N 
ATOM      2  C   UNL     1       0.497  12.983  21.005  0.00  0.00    +0.000 C 
ATOM      3  O   UNL     1       1.430  13.453  21.643  0.00  0.00    +0.000 OA
ATOM      4  C   UNL     1      -0.212  11.768  21.597  0.00  0.00    +0.000 C 
ATOM      5  O   UNL     1      -0.268  11.624  22.813  0.00  0.00    +0.000 OA
ATOM      6  C   UNL     1      -0.878  10.830  20.651  0.00  0.00    +0.000 C 
ATOM      7  C   UNL     1      -1.549  11.562  19.546  0.00  0.00    +0.000 C 
ATOM      8  N   UNL     1      -2.799  11.305  19.267  0.00  0.00    +0.000 NA
ATOM      9  C   UNL     1      -0.768  12.696  18.924  0.00  0.00    +0.000 C 
ATOM     10  O   UNL     1      -0.896  12.881  17.720  0.00  0.00    +0.000 OA
ENDROOT
BRANCH   6  11
ATOM     11  C   UNL     1       0.146   9.908  20.095  0.00  0.00    +0.000 A 
ATOM     12  N   UNL     1       0.610   8.859  20.736  0.00  0.00    +0.000 NA
ATOM     13  C   UNL     1       1.506   8.174  19.922  0.00  0.00    +0.000 A 
ATOM     14  C   UNL     1       2.186   6.987  20.255  0.00  0.00    +0.000 A 
ATOM     15  C   UNL     1       3.045   6.392  19.323  0.00  0.00    +0.000 A 
ATOM     16  C   UNL     1       3.240   6.970  18.072  0.00  0.00    +0.000 A 
ATOM     17  C   UNL     1       2.585   8.153  17.721  0.00  0.00    +0.000 A 
ATOM     18  C   UNL     1       1.721   8.737  18.661  0.00  0.00    +0.000 A 
ATOM     19  S   UNL     1       0.777  10.167  18.521  0.00  0.00    +0.000 S 
ENDBRANCH   6  11
BRANCH   1  27
ATOM     20  C   UNL     1      -2.101  15.367  20.663  0.00  0.00    +0.000 C 
ATOM     21  C   UNL     1      -0.917  15.769  19.820  0.00  0.00    +0.000 A 
ATOM     22  C   UNL     1      -0.855  17.107  19.404  0.00  0.00    +0.000 A 
ATOM     23  C   UNL     1       0.242  17.573  18.697  0.00  0.00    +0.000 A 
ATOM     24  C   UNL     1       1.294  16.706  18.406  0.00  0.00    +0.000 A 
ATOM     25  C   UNL     1       1.253  15.346  18.771  0.00  0.00    +0.000 A 
ATOM     26  C   UNL     1       2.427  14.498  18.362  0.00  0.00    +0.000 C 
ATOM     27  C   UNL     1       0.124  14.861  19.469  0.00  0.00    +0.000 A 
ENDBRANCH   1  27
BRANCH   8  28
ATOM     28  N   UNL     1      -3.371  12.006  18.237  0.00  0.00    +0.000 N 
ATOM     29  C   UNL     1      -4.700  11.856  17.896  0.00  0.00    +0.000 C 
ATOM     30  O   UNL     1      -5.254  12.565  17.054  0.00  0.00    +0.000 OA
ATOM     31  N   UNL     1      -5.361  10.906  18.660  0.00  0.00    +0.000 N 
ATOM     32  H   UNL     1      -2.862  12.770  17.779  0.00  0.00    +0.000 HD
ATOM     33  H   UNL     1      -4.750  10.208  19.077  0.00  0.00    +0.000 HD
BRANCH  31  34
ATOM     34  N   UNL     1      -6.717  10.606  18.414  0.00  0.00    +0.000 NA
ATOM     35  H   UNL     1      -7.048  11.279  17.709  0.00  0.00    +0.000 HD
ATOM     36  H   UNL     1      -7.244  10.845  19.257  0.00  0.00    +0.000 HD
ENDBRANCH  31  34
ENDBRANCH   8  28
TORSDOF 4
ENDMDL
