MODEL 1
REMARK VINA RESULT:      -6.7      0.000      0.000
REMARK  Name = 
REMARK  8 active torsions:
REMARK  status: ('A' for Active; 'I' for Inactive)
REMARK    1  A    between atoms: C_1  and  C_2
REMARK    2  A    between atoms: C_2  and  O_3
REMARK    3  A    between atoms: O_3  and  C_4
REMARK    4  A    between atoms: C_4  and  C_6
REMARK    5  A    between atoms: C_8  and  C_9
REMARK    6  A    between atoms: C_9  and  O_10
REMARK    7  A    between atoms: O_10  and  C_11
REMARK    8  A    between atoms: C_11  and  C_12
REMARK                            x       y       z     vdW  Elec       q    Type
REMARK                         _______ _______ _______ _____ _____    ______ ____
ROOT
ATOM      1  C   UNL     1      -5.197  11.537  17.731  0.00  0.00    +0.000 A 
ATOM      2  N   UNL     1      -4.858  11.086  16.476  0.00  0.00    +0.000 N 
ATOM      3  C   UNL     1      -3.502  10.955  16.359  0.00  0.00    +0.000 A 
ATOM      4  C   UNL     1      -2.928  11.362  17.550  0.00  0.00    +0.000 A 
ATOM      5  C   UNL     1      -4.006  11.797  18.414  0.00  0.00    +0.000 A 
ATOM      6  C   UNL     1      -3.944  12.339  19.837  0.00  0.00    +0.000 C 
ATOM      7  C   UNL     1      -2.643  13.058  20.187  0.00  0.00    +0.000 C 
ATOM      8  C   UNL     1      -2.514  13.507  21.640  0.00  0.00    +0.000 C 
ATOM      9  C   UNL     1      -1.128  13.223  22.261  0.00  0.00    +0.000 C 
ATOM     10  C   UNL     1      -0.578  11.799  22.031  0.00  0.00    +0.000 C 
ATOM     11  C   UNL     1       0.511  11.752  20.940  0.00  0.00    +0.000 C 
ATOM     12  C   UNL     1       0.818  10.327  20.459  0.00  0.00    +0.000 C 
ATOM     13  C   UNL     1       0.422  10.031  19.003  0.00  0.00    +0.000 C 
ATOM     14  C   UNL     1      -1.079  10.103  18.707  0.00  0.00    +0.000 C 
ATOM     15  C   UNL     1      -1.448  11.299  17.818  0.00  0.00    +0.000 C 
ATOM     16  H   UNL     1      -5.532  10.852  15.755  0.00  0.00    +0.000 HD
ENDROOT
BRANCH   1  17
ATOM     17  C   UNL     1      -6.567  11.647  18.193  0.00  0.00    +0.000 C 
ATOM     18  O   UNL     1      -7.401  12.445  17.787  0.00  0.00    +0.000 OA
BRANCH  17  19
ATOM     19  O   UNL     1      -6.765  10.781  19.231  0.00  0.00    +0.000 OA
BRANCH  19  21
ATOM     20  C   UNL     1      -7.041  11.945  21.306  0.00  0.00    +0.000 C 
ATOM     21  C   UNL     1      -7.748  11.197  20.189  0.00  0.00    +0.000 C 
ENDBRANCH  19  21
ENDBRANCH  17  19
ENDBRANCH   1  17
BRANCH   3  22
ATOM     22  C   UNL     1      -2.880  10.450  15.101  0.00  0.00    +0.000 C 
BRANCH  22  23
ATOM     23  O   UNL     1      -3.950  10.104  14.214  0.00  0.00    +0.000 OA
BRANCH  23  24
ATOM     24  C   UNL     1      -3.566   9.742  12.965  0.00  0.00    +0.000 C 
ATOM     25  C   UNL     1      -4.726   9.801  12.022  0.00  0.00    +0.000 C 
ATOM     26  O   UNL     1      -2.446   9.372  12.641  0.00  0.00    +0.000 OA
ENDBRANCH  23  24
ENDBRANCH  22  23
ENDBRANCH   3  22
TORSDOF 6
ENDMDL
MODEL 2
REMARK VINA RESULT:      -6.7      6.992      9.416
REMARK  Name = 
REMARK  8 active torsions:
REMARK  status: ('A' for Active; 'I' for Inactive)
REMARK    1  A    between atoms: C_1  and  C_2
REMARK    2  A    between atoms: C_2  and  O_3
REMARK    3  A    between atoms: O_3  and  C_4
REMARK    4  A    between atoms: C_4  and  C_6
REMARK    5  A    between atoms: C_8  and  C_9
REMARK    6  A    between atoms: C_9  and  O_10
REMARK    7  A    between atoms: O_10  and  C_11
REMARK    8  A    between atoms: C_11  and  C_12
REMARK                            x       y       z     vdW  Elec       q    Type
REMARK                         _______ _______ _______ _____ _____    ______ ____
ROOT
ATOM      1  C   UNL     1       2.573   8.001  18.278  0.00  0.00    +0.000 A 
ATOM      2  N   UNL     1       3.604   8.276  17.410  0.00  0.00    +0.000 N 
ATOM      3  C   UNL     1       4.401   7.178  17.243  0.00  0.00    +0.000 A 
ATOM      4  C   UNL     1       3.909   6.164  18.045  0.00  0.00    +0.000 A 
ATOM      5  C   UNL     1       2.772   6.704  18.761  0.00  0.00    +0.000 A 
ATOM      6  C   UNL     1       1.857   6.026  19.774  0.00  0.00    +0.000 C 
ATOM      7  C   UNL     1       2.514   4.897  20.566  0.00  0.00    +0.000 C 
ATOM      8  C   UNL     1       1.584   4.128  21.503  0.00  0.00    +0.000 C 
ATOM      9  C   UNL     1       1.777   2.596  21.453  0.00  0.00    +0.000 C 
ATOM     10  C   UNL     1       1.834   1.980  20.040  0.00  0.00    +0.000 C 
ATOM     11  C   UNL     1       3.269   1.622  19.605  0.00  0.00    +0.000 C 
ATOM     12  C   UNL     1       3.389   1.338  18.101  0.00  0.00    +0.000 C 
ATOM     13  C   UNL     1       4.219   2.360  17.307  0.00  0.00    +0.000 C 
ATOM     14  C   UNL     1       3.647   3.781  17.274  0.00  0.00    +0.000 C 
ATOM     15  C   UNL     1       4.495   4.777  18.078  0.00  0.00    +0.000 C 
ATOM     16  H   UNL     1       3.727   9.164  16.937  0.00  0.00    +0.000 HD
ENDROOT
BRANCH   1  17
ATOM     17  C   UNL     1       1.492   8.928  18.549  0.00  0.00    +0.000 C 
ATOM     18  O   UNL     1       0.760   9.443  17.714  0.00  0.00    +0.000 OA
BRANCH  17  19
ATOM     19  O   UNL     1       1.473   9.224  19.882  0.00  0.00    +0.000 OA
BRANCH  19  21
ATOM     20  C   UNL     1      -0.111   8.659  21.587  0.00  0.00    +0.000 C 
ATOM     21  C   UNL     1       0.185   9.570  20.409  0.00  0.00    +0.000 C 
ENDBRANCH  19  21
ENDBRANCH  17  19
ENDBRANCH   1  17
BRANCH   3  22
ATOM     22  C   UNL     1       5.574   7.208  16.322  0.00  0.00    +0.000 C 
BRANCH  22  23
ATOM     23  O   UNL     1       5.306   6.272  15.272  0.00  0.00    +0.000 OA
BRANCH  23  24
ATOM     24  C   UNL     1       6.298   5.380  15.029  0.00  0.00    +0.000 C 
ATOM     25  C   UNL     1       5.783   4.227  14.227  0.00  0.00    +0.000 C 
ATOM     26  O   UNL     1       7.449   5.464  15.436  0.00  0.00    +0.000 OA
ENDBRANCH  23  24
ENDBRANCH  22  23
ENDBRANCH   3  22
TORSDOF 6
ENDMDL
MODEL 3
REMARK VINA RESULT:      -6.6      6.891      9.509
REMARK  Name = 
REMARK  8 active torsions:
REMARK  status: ('A' for Active; 'I' for Inactive)
REMARK    1  A    between atoms: C_1  and  C_2
REMARK    2  A    between atoms: C_2  and  O_3
REMARK    3  A    between atoms: O_3  and  C_4
REMARK    4  A    between atoms: C_4  and  C_6
REMARK    5  A    between atoms: C_8  and  C_9
REMARK    6  A    between atoms: C_9  and  O_10
REMARK    7  A    between atoms: O_10  and  C_11
REMARK    8  A    between atoms: C_11  and  C_12
REMARK                            x       y       z     vdW  Elec       q    Type
REMARK                         _______ _______ _______ _____ _____    ______ ____
ROOT
ATOM      1  C   UNL     1       2.394   8.082  18.552  0.00  0.00    +0.000 A 
ATOM      2  N   UNL     1       3.320   8.388  17.582  0.00  0.00    +0.000 N 
ATOM      3  C   UNL     1       4.082   7.294  17.280  0.00  0.00    +0.000 A 
ATOM      4  C   UNL     1       3.677   6.250  18.092  0.00  0.00    +0.000 A 
ATOM      5  C   UNL     1       2.636   6.766  18.957  0.00  0.00    +0.000 A 
ATOM      6  C   UNL     1       1.838   6.050  20.040  0.00  0.00    +0.000 C 
ATOM      7  C   UNL     1       2.572   4.888  20.705  0.00  0.00    +0.000 C 
ATOM      8  C   UNL     1       1.751   4.085  21.712  0.00  0.00    +0.000 C 
ATOM      9  C   UNL     1       1.923   2.555  21.579  0.00  0.00    +0.000 C 
ATOM     10  C   UNL     1       1.810   1.997  20.145  0.00  0.00    +0.000 C 
ATOM     11  C   UNL     1       3.182   1.652  19.533  0.00  0.00    +0.000 C 
ATOM     12  C   UNL     1       3.124   1.428  18.016  0.00  0.00    +0.000 C 
ATOM     13  C   UNL     1       3.866   2.479  17.172  0.00  0.00    +0.000 C 
ATOM     14  C   UNL     1       3.306   3.902  17.262  0.00  0.00    +0.000 C 
ATOM     15  C   UNL     1       4.250   4.861  18.001  0.00  0.00    +0.000 C 
ATOM     16  H   UNL     1       3.394   9.294  17.134  0.00  0.00    +0.000 HD
ENDROOT
BRANCH   1  17
ATOM     17  C   UNL     1       1.360   9.002  18.984  0.00  0.00    +0.000 C 
ATOM     18  O   UNL     1       1.129   9.334  20.139  0.00  0.00    +0.000 OA
BRANCH  17  19
ATOM     19  O   UNL     1       0.609   9.376  17.906  0.00  0.00    +0.000 OA
BRANCH  19  21
ATOM     20  C   UNL     1      -1.638   9.951  17.308  0.00  0.00    +0.000 C 
ATOM     21  C   UNL     1      -0.455  10.293  18.197  0.00  0.00    +0.000 C 
ENDBRANCH  19  21
ENDBRANCH  17  19
ENDBRANCH   1  17
BRANCH   3  22
ATOM     22  C   UNL     1       5.141   7.357  16.230  0.00  0.00    +0.000 C 
BRANCH  22  23
ATOM     23  O   UNL     1       6.382   7.601  16.902  0.00  0.00    +0.000 OA
BRANCH  23  24
ATOM     24  C   UNL     1       7.209   6.529  16.989  0.00  0.00    +0.000 C 
ATOM     25  C   UNL     1       7.665   6.331  18.400  0.00  0.00    +0.000 C 
ATOM     26  O   UNL     1       7.578   5.834  16.052  0.00  0.00    +0.000 OA
ENDBRANCH  23  24
ENDBRANCH  22  23
ENDBRANCH   3  22
TORSDOF 6
ENDMDL
MODEL 4
REMARK VINA RESULT:      -6.5      0.801      1.015
REMARK  Name = 
REMARK  8 active torsions:
REMARK  status: ('A' for Active; 'I' for Inactive)
REMARK    1  A    between atoms: C_1  and  C_2
REMARK    2  A    between atoms: C_2  and  O_3
REMARK    3  A    between atoms: O_3  and  C_4
REMARK    4  A    between atoms: C_4  and  C_6
REMARK    5  A    between atoms: C_8  and  C_9
REMARK    6  A    between atoms: C_9  and  O_10
REMARK    7  A    between atoms: O_10  and  C_11
REMARK    8  A    between atoms: C_11  and  C_12
REMARK                            x       y       z     vdW  Elec       q    Type
REMARK                         _______ _______ _______ _____ _____    ______ ____
ROOT
ATOM      1  C   UNL     1      -5.383  11.457  17.910  0.00  0.00    +0.000 A 
ATOM      2  N   UNL     1      -5.006  11.114  16.631  0.00  0.00    +0.000 N 
ATOM      3  C   UNL     1      -3.644  11.070  16.524  0.00  0.00    +0.000 A 
ATOM      4  C   UNL     1      -3.106  11.426  17.748  0.00  0.00    +0.000 A 
ATOM      5  C   UNL     1      -4.216  11.737  18.625  0.00  0.00    +0.000 A 
ATOM      6  C   UNL     1      -4.199  12.183  20.082  0.00  0.00    +0.000 C 
ATOM      7  C   UNL     1      -2.945  12.949  20.498  0.00  0.00    +0.000 C 
ATOM      8  C   UNL     1      -2.857  13.304  21.981  0.00  0.00    +0.000 C 
ATOM      9  C   UNL     1      -1.462  13.057  22.598  0.00  0.00    +0.000 C 
ATOM     10  C   UNL     1      -0.828  11.686  22.280  0.00  0.00    +0.000 C 
ATOM     11  C   UNL     1       0.272  11.777  21.203  0.00  0.00    +0.000 C 
ATOM     12  C   UNL     1       0.666  10.409  20.630  0.00  0.00    +0.000 C 
ATOM     13  C   UNL     1       0.302  10.192  19.151  0.00  0.00    +0.000 C 
ATOM     14  C   UNL     1      -1.198  10.198  18.841  0.00  0.00    +0.000 C 
ATOM     15  C   UNL     1      -1.627  11.430  18.031  0.00  0.00    +0.000 C 
ATOM     16  H   UNL     1      -5.658  10.892  15.887  0.00  0.00    +0.000 HD
ENDROOT
BRANCH   1  17
ATOM     17  C   UNL     1      -6.761  11.456  18.360  0.00  0.00    +0.000 C 
ATOM     18  O   UNL     1      -7.545  12.392  18.279  0.00  0.00    +0.000 OA
BRANCH  17  19
ATOM     19  O   UNL     1      -7.032  10.271  18.983  0.00  0.00    +0.000 OA
BRANCH  19  21
ATOM     20  C   UNL     1      -7.916   9.026  20.828  0.00  0.00    +0.000 C 
ATOM     21  C   UNL     1      -7.431  10.386  20.356  0.00  0.00    +0.000 C 
ENDBRANCH  19  21
ENDBRANCH  17  19
ENDBRANCH   1  17
BRANCH   3  22
ATOM     22  C   UNL     1      -2.982  10.689  15.243  0.00  0.00    +0.000 C 
BRANCH  22  23
ATOM     23  O   UNL     1      -3.949  10.867  14.202  0.00  0.00    +0.000 OA
BRANCH  23  24
ATOM     24  C   UNL     1      -3.953   9.901  13.250  0.00  0.00    +0.000 C 
ATOM     25  C   UNL     1      -2.569   9.377  13.029  0.00  0.00    +0.000 C 
ATOM     26  O   UNL     1      -4.931   9.528  12.616  0.00  0.00    +0.000 OA
ENDBRANCH  23  24
ENDBRANCH  22  23
ENDBRANCH   3  22
TORSDOF 6
ENDMDL
MODEL 5
REMARK VINA RESULT:      -6.5      6.962      9.650
REMARK  Name = 
REMARK  8 active torsions:
REMARK  status: ('A' for Active; 'I' for Inactive)
REMARK    1  A    between atoms: C_1  and  C_2
REMARK    2  A    between atoms: C_2  and  O_3
REMARK    3  A    between atoms: O_3  and  C_4
REMARK    4  A    between atoms: C_4  and  C_6
REMARK    5  A    between atoms: C_8  and  C_9
REMARK    6  A    between atoms: C_9  and  O_10
REMARK    7  A    between atoms: O_10  and  C_11
REMARK    8  A    between atoms: C_11  and  C_12
REMARK                            x       y       z     vdW  Elec       q    Type
REMARK                         _______ _______ _______ _____ _____    ______ ____
ROOT
ATOM      1  C   UNL     1       2.512   8.068  18.249  0.00  0.00    +0.000 A 
ATOM      2  N   UNL     1       3.500   8.313  17.323  0.00  0.00    +0.000 N 
ATOM      3  C   UNL     1       4.264   7.197  17.124  0.00  0.00    +0.000 A 
ATOM      4  C   UNL     1       3.796   6.201  17.963  0.00  0.00    +0.000 A 
ATOM      5  C   UNL     1       2.711   6.772  18.734  0.00  0.00    +0.000 A 
ATOM      6  C   UNL     1       1.839   6.122  19.802  0.00  0.00    +0.000 C 
ATOM      7  C   UNL     1       2.515   4.988  20.569  0.00  0.00    +0.000 C 
ATOM      8  C   UNL     1       1.622   4.248  21.563  0.00  0.00    +0.000 C 
ATOM      9  C   UNL     1       1.781   2.711  21.519  0.00  0.00    +0.000 C 
ATOM     10  C   UNL     1       1.747   2.081  20.112  0.00  0.00    +0.000 C 
ATOM     11  C   UNL     1       3.150   1.689  19.603  0.00  0.00    +0.000 C 
ATOM     12  C   UNL     1       3.181   1.388  18.099  0.00  0.00    +0.000 C 
ATOM     13  C   UNL     1       3.988   2.385  17.250  0.00  0.00    +0.000 C 
ATOM     14  C   UNL     1       3.443   3.817  17.232  0.00  0.00    +0.000 C 
ATOM     15  C   UNL     1       4.354   4.803  17.978  0.00  0.00    +0.000 C 
ATOM     16  H   UNL     1       3.614   9.194  16.834  0.00  0.00    +0.000 HD
ENDROOT
BRANCH   1  17
ATOM     17  C   UNL     1       1.467   9.020  18.568  0.00  0.00    +0.000 C 
ATOM     18  O   UNL     1       0.600   9.420  17.802  0.00  0.00    +0.000 OA
BRANCH  17  19
ATOM     19  O   UNL     1       1.652   9.486  19.838  0.00  0.00    +0.000 OA
BRANCH  19  21
ATOM     20  C   UNL     1       0.928   8.928  22.052  0.00  0.00    +0.000 C 
ATOM     21  C   UNL     1       0.495   9.422  20.683  0.00  0.00    +0.000 C 
ENDBRANCH  19  21
ENDBRANCH  17  19
ENDBRANCH   1  17
BRANCH   3  22
ATOM     22  C   UNL     1       5.385   7.194  16.141  0.00  0.00    +0.000 C 
BRANCH  22  23
ATOM     23  O   UNL     1       6.585   7.469  16.872  0.00  0.00    +0.000 OA
BRANCH  23  24
ATOM     24  C   UNL     1       7.323   6.378  17.197  0.00  0.00    +0.000 C 
ATOM     25  C   UNL     1       7.840   6.491  18.596  0.00  0.00    +0.000 C 
ATOM     26  O   UNL     1       7.580   5.442  16.452  0.00  0.00    +0.000 OA
ENDBRANCH  23  24
ENDBRANCH  22  23
ENDBRANCH   3  22
TORSDOF 6
ENDMDL
MODEL 6
REMARK VINA RESULT:      -6.4      7.188     10.980
REMARK  Name = 
REMARK  8 active torsions:
REMARK  status: ('A' for Active; 'I' for Inactive)
REMARK    1  A    between atoms: C_1  and  C_2
REMARK    2  A    between atoms: C_2  and  O_3
REMARK    3  A    between atoms: O_3  and  C_4
REMARK    4  A    between atoms: C_4  and  C_6
REMARK    5  A    between atoms: C_8  and  C_9
REMARK    6  A    between atoms: C_9  and  O_10
REMARK    7  A    between atoms: O_10  and  C_11
REMARK    8  A    between atoms: C_11  and  C_12
REMARK                            x       y       z     vdW  Elec       q    Type
REMARK                         _______ _______ _______ _____ _____    ______ ____
ROOT
ATOM      1  C   UNL     1       5.286   6.917  17.077  0.00  0.00    +0.000 A 
ATOM      2  N   UNL     1       4.497   8.044  17.115  0.00  0.00    +0.000 N 
ATOM      3  C   UNL     1       3.260   7.751  17.617  0.00  0.00    +0.000 A 
ATOM      4  C   UNL     1       3.215   6.394  17.883  0.00  0.00    +0.000 A 
ATOM      5  C   UNL     1       4.491   5.841  17.480  0.00  0.00    +0.000 A 
ATOM      6  C   UNL     1       4.985   4.401  17.551  0.00  0.00    +0.000 C 
ATOM      7  C   UNL     1       3.884   3.347  17.466  0.00  0.00    +0.000 C 
ATOM      8  C   UNL     1       4.344   1.902  17.650  0.00  0.00    +0.000 C 
ATOM      9  C   UNL     1       3.424   1.067  18.568  0.00  0.00    +0.000 C 
ATOM     10  C   UNL     1       3.031   1.737  19.902  0.00  0.00    +0.000 C 
ATOM     11  C   UNL     1       1.593   2.292  19.886  0.00  0.00    +0.000 C 
ATOM     12  C   UNL     1       1.305   3.249  21.051  0.00  0.00    +0.000 C 
ATOM     13  C   UNL     1       1.060   4.713  20.647  0.00  0.00    +0.000 C 
ATOM     14  C   UNL     1       2.253   5.420  19.998  0.00  0.00    +0.000 C 
ATOM     15  C   UNL     1       2.027   5.712  18.507  0.00  0.00    +0.000 C 
ATOM     16  H   UNL     1       4.812   8.968  16.840  0.00  0.00    +0.000 HD
ENDROOT
BRANCH   1  17
ATOM     17  C   UNL     1       6.690   6.942  16.716  0.00  0.00    +0.000 C 
ATOM     18  O   UNL     1       7.333   6.003  16.266  0.00  0.00    +0.000 OA
BRANCH  17  19
ATOM     19  O   UNL     1       7.221   8.156  17.047  0.00  0.00    +0.000 OA
BRANCH  19  21
ATOM     20  C   UNL     1       8.627   9.553  18.392  0.00  0.00    +0.000 C 
ATOM     21  C   UNL     1       8.176   8.129  18.117  0.00  0.00    +0.000 C 
ENDBRANCH  19  21
ENDBRANCH  17  19
ENDBRANCH   1  17
BRANCH   3  22
ATOM     22  C   UNL     1       2.225   8.811  17.792  0.00  0.00    +0.000 C 
BRANCH  22  23
ATOM     23  O   UNL     1       2.095   9.040  19.200  0.00  0.00    +0.000 OA
BRANCH  23  24
ATOM     24  C   UNL     1       0.850   9.388  19.612  0.00  0.00    +0.000 C 
ATOM     25  C   UNL     1       0.579   8.844  20.979  0.00  0.00    +0.000 C 
ATOM     26  O   UNL     1       0.032  10.020  18.958  0.00  0.00    +0.000 OA
ENDBRANCH  23  24
ENDBRANCH  22  23
ENDBRANCH   3  22
TORSDOF 6
ENDMDL
MODEL 7
REMARK VINA RESULT:      -6.4      0.921      1.485
REMARK  Name = 
REMARK  8 active torsions:
REMARK  status: ('A' for Active; 'I' for Inactive)
REMARK    1  A    between atoms: C_1  and  C_2
REMARK    2  A    between atoms: C_2  and  O_3
REMARK    3  A    between atoms: O_3  and  C_4
REMARK    4  A    between atoms: C_4  and  C_6
REMARK    5  A    between atoms: C_8  and  C_9
REMARK    6  A    between atoms: C_9  and  O_10
REMARK    7  A    between atoms: O_10  and  C_11
REMARK    8  A    between atoms: C_11  and  C_12
REMARK                            x       y       z     vdW  Elec       q    Type
REMARK                         _______ _______ _______ _____ _____    ______ ____
ROOT
ATOM      1  C   UNL     1      -5.247  11.658  17.889  0.00  0.00    +0.000 A 
ATOM      2  N   UNL     1      -4.877  11.308  16.611  0.00  0.00    +0.000 N 
ATOM      3  C   UNL     1      -3.519  11.179  16.519  0.00  0.00    +0.000 A 
ATOM      4  C   UNL     1      -2.975  11.486  17.754  0.00  0.00    +0.000 A 
ATOM      5  C   UNL     1      -4.074  11.856  18.621  0.00  0.00    +0.000 A 
ATOM      6  C   UNL     1      -4.047  12.281  20.084  0.00  0.00    +0.000 C 
ATOM      7  C   UNL     1      -2.753  12.962  20.525  0.00  0.00    +0.000 C 
ATOM      8  C   UNL     1      -2.661  13.292  22.013  0.00  0.00    +0.000 C 
ATOM      9  C   UNL     1      -1.292  12.951  22.643  0.00  0.00    +0.000 C 
ATOM     10  C   UNL     1      -0.742  11.547  22.314  0.00  0.00    +0.000 C 
ATOM     11  C   UNL     1       0.375  11.582  21.252  0.00  0.00    +0.000 C 
ATOM     12  C   UNL     1       0.690  10.199  20.665  0.00  0.00    +0.000 C 
ATOM     13  C   UNL     1       0.332  10.023  19.180  0.00  0.00    +0.000 C 
ATOM     14  C   UNL     1      -1.161  10.127  18.852  0.00  0.00    +0.000 C 
ATOM     15  C   UNL     1      -1.502  11.393  18.054  0.00  0.00    +0.000 C 
ATOM     16  H   UNL     1      -5.533  11.136  15.857  0.00  0.00    +0.000 HD
ENDROOT
BRANCH   1  17
ATOM     17  C   UNL     1      -6.628  11.738  18.323  0.00  0.00    +0.000 C 
ATOM     18  O   UNL     1      -7.372  10.789  18.534  0.00  0.00    +0.000 OA
BRANCH  17  19
ATOM     19  O   UNL     1      -7.012  13.048  18.370  0.00  0.00    +0.000 OA
BRANCH  19  21
ATOM     20  C   UNL     1      -6.931  14.621  16.567  0.00  0.00    +0.000 C 
ATOM     21  C   UNL     1      -7.734  13.510  17.220  0.00  0.00    +0.000 C 
ENDBRANCH  19  21
ENDBRANCH  17  19
ENDBRANCH   1  17
BRANCH   3  22
ATOM     22  C   UNL     1      -2.866  10.773  15.241  0.00  0.00    +0.000 C 
BRANCH  22  23
ATOM     23  O   UNL     1      -3.788   9.920  14.553  0.00  0.00    +0.000 OA
BRANCH  23  24
ATOM     24  C   UNL     1      -3.526   9.737  13.234  0.00  0.00    +0.000 C 
ATOM     25  C   UNL     1      -4.791   9.787  12.436  0.00  0.00    +0.000 C 
ATOM     26  O   UNL     1      -2.425   9.516  12.749  0.00  0.00    +0.000 OA
ENDBRANCH  23  24
ENDBRANCH  22  23
ENDBRANCH   3  22
TORSDOF 6
ENDMDL
MODEL 8
REMARK VINA RESULT:      -6.4      7.342     11.099
REMARK  Name = 
REMARK  8 active torsions:
REMARK  status: ('A' for Active; 'I' for Inactive)
REMARK    1  A    between atoms: C_1  and  C_2
REMARK    2  A    between atoms: C_2  and  O_3
REMARK    3  A    between atoms: O_3  and  C_4
REMARK    4  A    between atoms: C_4  and  C_6
REMARK    5  A    between atoms: C_8  and  C_9
REMARK    6  A    between atoms: C_9  and  O_10
REMARK    7  A    between atoms: O_10  and  C_11
REMARK    8  A    between atoms: C_11  and  C_12
REMARK                            x       y       z     vdW  Elec       q    Type
REMARK                         _______ _______ _______ _____ _____    ______ ____
ROOT
ATOM      1  C   UNL     1       5.191   6.542  16.705  0.00  0.00    +0.000 A 
ATOM      2  N   UNL     1       4.507   7.735  16.762  0.00  0.00    +0.000 N 
ATOM      3  C   UNL     1       3.329   7.585  17.437  0.00  0.00    +0.000 A 
ATOM      4  C   UNL     1       3.211   6.256  17.805  0.00  0.00    +0.000 A 
ATOM      5  C   UNL     1       4.373   5.567  17.284  0.00  0.00    +0.000 A 
ATOM      6  C   UNL     1       4.754   4.096  17.396  0.00  0.00    +0.000 C 
ATOM      7  C   UNL     1       3.569   3.142  17.529  0.00  0.00    +0.000 C 
ATOM      8  C   UNL     1       3.932   1.676  17.758  0.00  0.00    +0.000 C 
ATOM      9  C   UNL     1       3.078   0.985  18.844  0.00  0.00    +0.000 C 
ATOM     10  C   UNL     1       2.922   1.768  20.164  0.00  0.00    +0.000 C 
ATOM     11  C   UNL     1       1.544   2.448  20.292  0.00  0.00    +0.000 C 
ATOM     12  C   UNL     1       1.493   3.497  21.411  0.00  0.00    +0.000 C 
ATOM     13  C   UNL     1       1.314   4.949  20.936  0.00  0.00    +0.000 C 
ATOM     14  C   UNL     1       2.464   5.505  20.091  0.00  0.00    +0.000 C 
ATOM     15  C   UNL     1       2.065   5.724  18.624  0.00  0.00    +0.000 C 
ATOM     16  H   UNL     1       4.856   8.608  16.382  0.00  0.00    +0.000 HD
ENDROOT
BRANCH   1  17
ATOM     17  C   UNL     1       6.531   6.418  16.167  0.00  0.00    +0.000 C 
ATOM     18  O   UNL     1       7.565   6.756  16.729  0.00  0.00    +0.000 OA
BRANCH  17  19
ATOM     19  O   UNL     1       6.463   5.952  14.886  0.00  0.00    +0.000 OA
BRANCH  19  21
ATOM     20  C   UNL     1       6.037   3.824  13.872  0.00  0.00    +0.000 C 
ATOM     21  C   UNL     1       7.022   4.647  14.684  0.00  0.00    +0.000 C 
ENDBRANCH  19  21
ENDBRANCH  17  19
ENDBRANCH   1  17
BRANCH   3  22
ATOM     22  C   UNL     1       2.416   8.743  17.665  0.00  0.00    +0.000 C 
BRANCH  22  23
ATOM     23  O   UNL     1       2.267   8.886  19.082  0.00  0.00    +0.000 OA
BRANCH  23  24
ATOM     24  C   UNL     1       1.052   9.329  19.491  0.00  0.00    +0.000 C 
ATOM     25  C   UNL     1       0.740   8.817  20.861  0.00  0.00    +0.000 C 
ATOM     26  O   UNL     1       0.284  10.016  18.831  0.00  0.00    +0.000 OA
ENDBRANCH  23  24
ENDBRANCH  22  23
ENDBRANCH   3  22
TORSDOF 6
ENDMDL
MODEL 9
REMARK VINA RESULT:      -6.2      7.197     10.897
REMARK  Name = 
REMARK  8 active torsions:
REMARK  status: ('A' for Active; 'I' for Inactive)
REMARK    1  A    between atoms: C_1  and  C_2
REMARK    2  A    between atoms: C_2  and  O_3
REMARK    3  A    between atoms: O_3  and  C_4
REMARK    4  A    between atoms: C_4  and  C_6
REMARK    5  A    between atoms: C_8  and  C_9
REMARK    6  A    between atoms: C_9  and  O_10
REMARK    7  A    between atoms: O_10  and  C_11
REMARK    8  A    between atoms: C_11  and  C_12
REMARK                            x       y       z     vdW  Elec       q    Type
REMARK                         _______ _______ _______ _____ _____    ______ ____
ROOT
ATOM      1  C   UNL     1       5.159   7.012  17.182  0.00  0.00    +0.000 A 
ATOM      2  N   UNL     1       4.330   8.108  17.256  0.00  0.00    +0.000 N 
ATOM      3  C   UNL     1       3.103   7.753  17.741  0.00  0.00    +0.000 A 
ATOM      4  C   UNL     1       3.105   6.387  17.959  0.00  0.00    +0.000 A 
ATOM      5  C   UNL     1       4.401   5.894  17.542  0.00  0.00    +0.000 A 
ATOM      6  C   UNL     1       4.946   4.471  17.564  0.00  0.00    +0.000 C 
ATOM      7  C   UNL     1       3.882   3.382  17.436  0.00  0.00    +0.000 C 
ATOM      8  C   UNL     1       4.393   1.949  17.571  0.00  0.00    +0.000 C 
ATOM      9  C   UNL     1       3.499   1.050  18.455  0.00  0.00    +0.000 C 
ATOM     10  C   UNL     1       3.079   1.657  19.809  0.00  0.00    +0.000 C 
ATOM     11  C   UNL     1       1.622   2.162  19.807  0.00  0.00    +0.000 C 
ATOM     12  C   UNL     1       1.297   3.066  21.003  0.00  0.00    +0.000 C 
ATOM     13  C   UNL     1       1.001   4.534  20.651  0.00  0.00    +0.000 C 
ATOM     14  C   UNL     1       2.171   5.305  20.033  0.00  0.00    +0.000 C 
ATOM     15  C   UNL     1       1.939   5.642  18.553  0.00  0.00    +0.000 C 
ATOM     16  H   UNL     1       4.614   9.051  17.016  0.00  0.00    +0.000 HD
ENDROOT
BRANCH   1  17
ATOM     17  C   UNL     1       6.562   7.098  16.829  0.00  0.00    +0.000 C 
ATOM     18  O   UNL     1       7.239   6.201  16.344  0.00  0.00    +0.000 OA
BRANCH  17  19
ATOM     19  O   UNL     1       7.051   8.315  17.211  0.00  0.00    +0.000 OA
BRANCH  19  21
ATOM     20  C   UNL     1       8.652   9.687  18.346  0.00  0.00    +0.000 C 
ATOM     21  C   UNL     1       8.183   8.266  18.089  0.00  0.00    +0.000 C 
ENDBRANCH  19  21
ENDBRANCH  17  19
ENDBRANCH   1  17
BRANCH   3  22
ATOM     22  C   UNL     1       2.031   8.770  17.949  0.00  0.00    +0.000 C 
BRANCH  22  23
ATOM     23  O   UNL     1       2.515  10.005  17.408  0.00  0.00    +0.000 OA
BRANCH  23  24
ATOM     24  C   UNL     1       2.147  11.116  18.094  0.00  0.00    +0.000 C 
ATOM     25  C   UNL     1       0.910  10.854  18.893  0.00  0.00    +0.000 C 
ATOM     26  O   UNL     1       2.708  12.202  18.046  0.00  0.00    +0.000 OA
ENDBRANCH  23  24
ENDBRANCH  22  23
ENDBRANCH   3  22
TORSDOF 6
ENDMDL
