MODEL 1
REMARK VINA RESULT:      -7.3      0.000      0.000
REMARK  Name = 
REMARK  6 active torsions:
REMARK  status: ('A' for Active; 'I' for Inactive)
REMARK    1  A    between atoms: C_1  and  O_2
REMARK    2  A    between atoms: O_2  and  C_3
REMARK    3  A    between atoms: C_3  and  C_5
REMARK    4  A    between atoms: C_6  and  C_7
REMARK    5  A    between atoms: C_8  and  C_9
REMARK    6  A    between atoms: C_16  and  C_17
REMARK                            x       y       z     vdW  Elec       q    Type
REMARK                         _______ _______ _______ _____ _____    ______ ____
ROOT
ATOM      1  C   UNL     1       4.196   3.230  18.468  0.00  0.00    +0.000 C 
ATOM      2  C   UNL     1       3.823   2.506  19.557  0.00  0.00    +0.000 C 
ATOM      3  N   UNL     1       2.466   2.426  20.014  0.00  0.00    +0.000 N 
ATOM      4  C   UNL     1       2.203   3.076  21.217  0.00  0.00    +0.000 C 
ATOM      5  O   UNL     1       1.974   2.782  22.367  0.00  0.00    +0.000 OA
ATOM      6  C   UNL     1       1.962   4.315  20.443  0.00  0.00    +0.000 C 
ATOM      7  C   UNL     1       2.295   5.582  20.702  0.00  0.00    +0.000 C 
ATOM      8  C   UNL     1       1.433   3.336  19.413  0.00  0.00    +0.000 C 
ATOM      9  S   UNL     1       1.635   3.412  17.669  0.00  0.00    +0.000 S 
ATOM     10  O   UNL     1       1.494   2.087  17.072  0.00  0.00    +0.000 OA
ATOM     11  O   UNL     1       0.822   4.483  17.129  0.00  0.00    +0.000 OA
ATOM     12  C   UNL     1       3.292   3.898  17.475  0.00  0.00    +0.000 C 
ENDROOT
BRANCH   7  13
ATOM     13  C   UNL     1       2.238   6.742  19.817  0.00  0.00    +0.000 A 
ATOM     14  C   UNL     1       2.924   6.767  18.612  0.00  0.00    +0.000 A 
ATOM     15  C   UNL     1       2.900   7.929  17.852  0.00  0.00    +0.000 A 
ATOM     16  C   UNL     1       2.141   9.007  18.281  0.00  0.00    +0.000 A 
ATOM     17  C   UNL     1       1.445   8.881  19.471  0.00  0.00    +0.000 A 
ATOM     18  N   UNL     1       1.498   7.791  20.273  0.00  0.00    +0.000 NA
ENDBRANCH   7  13
BRANCH   2  19
ATOM     19  C   UNL     1       4.942   1.831  20.514  0.00  0.00    +0.000 C 
ATOM     20  O   UNL     1       5.341   0.679  20.187  0.00  0.00    +0.000 OA
ATOM     21  O   UNL     1       5.344   2.570  21.450  0.00  0.00    +0.000 OA
ENDBRANCH   2  19
BRANCH   1  23
ATOM     22  C   UNL     1       5.960   4.456  17.239  0.00  0.00    +0.000 C 
ATOM     23  C   UNL     1       5.567   3.653  18.233  0.00  0.00    +0.000 C 
BRANCH  22  24
ATOM     24  C   UNL     1       7.376   4.842  17.174  0.00  0.00    +0.000 C 
ATOM     25  O   UNL     1       8.299   4.196  17.657  0.00  0.00    +0.000 OA
BRANCH  24  27
ATOM     26  C   UNL     1       7.482   7.163  17.474  0.00  0.00    +0.000 C 
ATOM     27  O   UNL     1       7.455   6.054  16.582  0.00  0.00    +0.000 OA
ENDBRANCH  24  27
ENDBRANCH  22  24
ENDBRANCH   1  23
TORSDOF 5
ENDMDL
MODEL 2
REMARK VINA RESULT:      -7.1      0.917      1.363
REMARK  Name = 
REMARK  6 active torsions:
REMARK  status: ('A' for Active; 'I' for Inactive)
REMARK    1  A    between atoms: C_1  and  O_2
REMARK    2  A    between atoms: O_2  and  C_3
REMARK    3  A    between atoms: C_3  and  C_5
REMARK    4  A    between atoms: C_6  and  C_7
REMARK    5  A    between atoms: C_8  and  C_9
REMARK    6  A    between atoms: C_16  and  C_17
REMARK                            x       y       z     vdW  Elec       q    Type
REMARK                         _______ _______ _______ _____ _____    ______ ____
ROOT
ATOM      1  C   UNL     1       4.299   3.385  18.568  0.00  0.00    +0.000 C 
ATOM      2  C   UNL     1       3.900   2.499  19.519  0.00  0.00    +0.000 C 
ATOM      3  N   UNL     1       2.523   2.285  19.860  0.00  0.00    +0.000 N 
ATOM      4  C   UNL     1       2.141   2.747  21.116  0.00  0.00    +0.000 C 
ATOM      5  O   UNL     1       1.854   2.285  22.196  0.00  0.00    +0.000 OA
ATOM      6  C   UNL     1       1.875   4.067  20.500  0.00  0.00    +0.000 C 
ATOM      7  C   UNL     1       2.111   5.302  20.951  0.00  0.00    +0.000 C 
ATOM      8  C   UNL     1       1.478   3.214  19.311  0.00  0.00    +0.000 C 
ATOM      9  S   UNL     1       1.791   3.541  17.613  0.00  0.00    +0.000 S 
ATOM     10  O   UNL     1       1.772   2.306  16.835  0.00  0.00    +0.000 OA
ATOM     11  O   UNL     1       0.950   4.632  17.163  0.00  0.00    +0.000 OA
ATOM     12  C   UNL     1       3.423   4.136  17.611  0.00  0.00    +0.000 C 
ENDROOT
BRANCH   7  13
ATOM     13  C   UNL     1       2.040   6.568  20.228  0.00  0.00    +0.000 A 
ATOM     14  C   UNL     1       1.319   7.645  20.724  0.00  0.00    +0.000 A 
ATOM     15  C   UNL     1       1.219   8.796  19.952  0.00  0.00    +0.000 A 
ATOM     16  C   UNL     1       1.893   8.864  18.743  0.00  0.00    +0.000 A 
ATOM     17  C   UNL     1       2.632   7.763  18.345  0.00  0.00    +0.000 A 
ATOM     18  N   UNL     1       2.699   6.601  19.035  0.00  0.00    +0.000 NA
ENDBRANCH   7  13
BRANCH   2  19
ATOM     19  C   UNL     1       4.993   1.757  20.458  0.00  0.00    +0.000 C 
ATOM     20  O   UNL     1       5.358   2.379  21.494  0.00  0.00    +0.000 OA
ATOM     21  O   UNL     1       5.307   0.598  20.080  0.00  0.00    +0.000 OA
ENDBRANCH   2  19
BRANCH   1  23
ATOM     22  C   UNL     1       6.037   5.103  18.956  0.00  0.00    +0.000 C 
ATOM     23  C   UNL     1       5.653   3.908  18.496  0.00  0.00    +0.000 C 
BRANCH  22  24
ATOM     24  C   UNL     1       7.459   5.462  18.863  0.00  0.00    +0.000 C 
ATOM     25  O   UNL     1       8.260   5.384  19.788  0.00  0.00    +0.000 OA
BRANCH  24  27
ATOM     26  C   UNL     1       7.217   7.298  17.429  0.00  0.00    +0.000 C 
ATOM     27  O   UNL     1       7.686   5.969  17.632  0.00  0.00    +0.000 OA
ENDBRANCH  24  27
ENDBRANCH  22  24
ENDBRANCH   1  23
TORSDOF 5
ENDMDL
MODEL 3
REMARK VINA RESULT:      -7.0      0.741      1.171
REMARK  Name = 
REMARK  6 active torsions:
REMARK  status: ('A' for Active; 'I' for Inactive)
REMARK    1  A    between atoms: C_1  and  O_2
REMARK    2  A    between atoms: O_2  and  C_3
REMARK    3  A    between atoms: C_3  and  C_5
REMARK    4  A    between atoms: C_6  and  C_7
REMARK    5  A    between atoms: C_8  and  C_9
REMARK    6  A    between atoms: C_16  and  C_17
REMARK                            x       y       z     vdW  Elec       q    Type
REMARK                         _______ _______ _______ _____ _____    ______ ____
ROOT
ATOM      1  C   UNL     1       4.179   3.277  18.486  0.00  0.00    +0.000 C 
ATOM      2  C   UNL     1       3.801   2.517  19.549  0.00  0.00    +0.000 C 
ATOM      3  N   UNL     1       2.442   2.426  20.000  0.00  0.00    +0.000 N 
ATOM      4  C   UNL     1       2.178   3.035  21.223  0.00  0.00    +0.000 C 
ATOM      5  O   UNL     1       1.945   2.703  22.362  0.00  0.00    +0.000 OA
ATOM      6  C   UNL     1       1.942   4.300  20.491  0.00  0.00    +0.000 C 
ATOM      7  C   UNL     1       2.278   5.557  20.793  0.00  0.00    +0.000 C 
ATOM      8  C   UNL     1       1.414   3.358  19.427  0.00  0.00    +0.000 C 
ATOM      9  S   UNL     1       1.621   3.493  17.687  0.00  0.00    +0.000 S 
ATOM     10  O   UNL     1       1.478   2.189  17.045  0.00  0.00    +0.000 OA
ATOM     11  O   UNL     1       0.812   4.583  17.182  0.00  0.00    +0.000 OA
ATOM     12  C   UNL     1       3.279   3.981  17.514  0.00  0.00    +0.000 C 
ENDROOT
BRANCH   7  13
ATOM     13  C   UNL     1       2.226   6.746  19.948  0.00  0.00    +0.000 A 
ATOM     14  C   UNL     1       1.485   7.860  20.312  0.00  0.00    +0.000 A 
ATOM     15  C   UNL     1       1.405   8.930  19.429  0.00  0.00    +0.000 A 
ATOM     16  C   UNL     1       2.118   8.884  18.241  0.00  0.00    +0.000 A 
ATOM     17  C   UNL     1       2.874   7.755  17.977  0.00  0.00    +0.000 A 
ATOM     18  N   UNL     1       2.923   6.666  18.780  0.00  0.00    +0.000 NA
ENDBRANCH   7  13
BRANCH   2  19
ATOM     19  C   UNL     1       4.916   1.807  20.485  0.00  0.00    +0.000 C 
ATOM     20  O   UNL     1       5.296   0.656  20.133  0.00  0.00    +0.000 OA
ATOM     21  O   UNL     1       5.335   2.522  21.433  0.00  0.00    +0.000 OA
ENDBRANCH   2  19
BRANCH   1  23
ATOM     22  C   UNL     1       6.031   4.180  17.116  0.00  0.00    +0.000 C 
ATOM     23  C   UNL     1       5.551   3.704  18.269  0.00  0.00    +0.000 C 
BRANCH  22  24
ATOM     24  C   UNL     1       7.430   4.629  17.075  0.00  0.00    +0.000 C 
ATOM     25  O   UNL     1       8.258   4.415  17.953  0.00  0.00    +0.000 OA
BRANCH  24  27
ATOM     26  C   UNL     1       7.015   4.849  14.780  0.00  0.00    +0.000 C 
ATOM     27  O   UNL     1       7.598   5.381  15.965  0.00  0.00    +0.000 OA
ENDBRANCH  24  27
ENDBRANCH  22  24
ENDBRANCH   1  23
TORSDOF 5
ENDMDL
MODEL 4
REMARK VINA RESULT:      -6.5      7.616     10.843
REMARK  Name = 
REMARK  6 active torsions:
REMARK  status: ('A' for Active; 'I' for Inactive)
REMARK    1  A    between atoms: C_1  and  O_2
REMARK    2  A    between atoms: O_2  and  C_3
REMARK    3  A    between atoms: C_3  and  C_5
REMARK    4  A    between atoms: C_6  and  C_7
REMARK    5  A    between atoms: C_8  and  C_9
REMARK    6  A    between atoms: C_16  and  C_17
REMARK                            x       y       z     vdW  Elec       q    Type
REMARK                         _______ _______ _______ _____ _____    ______ ____
ROOT
ATOM      1  C   UNL     1      -2.438  12.896  20.147  0.00  0.00    +0.000 C 
ATOM      2  C   UNL     1      -3.227  13.346  21.159  0.00  0.00    +0.000 C 
ATOM      3  N   UNL     1      -2.708  13.761  22.430  0.00  0.00    +0.000 N 
ATOM      4  C   UNL     1      -3.004  12.920  23.499  0.00  0.00    +0.000 C 
ATOM      5  O   UNL     1      -3.723  12.919  24.470  0.00  0.00    +0.000 OA
ATOM      6  C   UNL     1      -1.794  12.137  23.160  0.00  0.00    +0.000 C 
ATOM      7  C   UNL     1      -1.580  10.819  23.161  0.00  0.00    +0.000 C 
ATOM      8  C   UNL     1      -1.265  13.499  22.754  0.00  0.00    +0.000 C 
ATOM      9  S   UNL     1      -0.254  13.880  21.368  0.00  0.00    +0.000 S 
ATOM     10  O   UNL     1      -0.400  15.282  20.989  0.00  0.00    +0.000 OA
ATOM     11  O   UNL     1       1.087  13.380  21.589  0.00  0.00    +0.000 OA
ATOM     12  C   UNL     1      -0.940  12.920  20.093  0.00  0.00    +0.000 C 
ENDROOT
BRANCH   7  13
ATOM     13  C   UNL     1      -0.450  10.075  22.612  0.00  0.00    +0.000 A 
ATOM     14  C   UNL     1      -0.428   9.669  21.286  0.00  0.00    +0.000 A 
ATOM     15  C   UNL     1       0.635   8.892  20.841  0.00  0.00    +0.000 A 
ATOM     16  C   UNL     1       1.673   8.599  21.711  0.00  0.00    +0.000 A 
ATOM     17  C   UNL     1       1.596   9.085  23.005  0.00  0.00    +0.000 A 
ATOM     18  N   UNL     1       0.548   9.787  23.494  0.00  0.00    +0.000 NA
ENDBRANCH   7  13
BRANCH   2  19
ATOM     19  C   UNL     1      -4.841  13.263  21.038  0.00  0.00    +0.000 C 
ATOM     20  O   UNL     1      -5.383  12.204  21.462  0.00  0.00    +0.000 OA
ATOM     21  O   UNL     1      -5.387  14.306  20.594  0.00  0.00    +0.000 OA
ENDBRANCH   2  19
BRANCH   1  23
ATOM     22  C   UNL     1      -2.212  11.292  18.277  0.00  0.00    +0.000 C 
ATOM     23  C   UNL     1      -2.949  12.106  19.040  0.00  0.00    +0.000 C 
BRANCH  22  24
ATOM     24  C   UNL     1      -2.890  10.511  17.232  0.00  0.00    +0.000 C 
ATOM     25  O   UNL     1      -3.489   9.459  17.426  0.00  0.00    +0.000 OA
BRANCH  24  27
ATOM     26  C   UNL     1      -3.039  10.347  14.900  0.00  0.00    +0.000 C 
ATOM     27  O   UNL     1      -2.654  11.105  16.043  0.00  0.00    +0.000 OA
ENDBRANCH  24  27
ENDBRANCH  22  24
ENDBRANCH   1  23
TORSDOF 5
ENDMDL
MODEL 5
REMARK VINA RESULT:      -6.5      6.695     10.253
REMARK  Name = 
REMARK  6 active torsions:
REMARK  status: ('A' for Active; 'I' for Inactive)
REMARK    1  A    between atoms: C_1  and  O_2
REMARK    2  A    between atoms: O_2  and  C_3
REMARK    3  A    between atoms: C_3  and  C_5
REMARK    4  A    between atoms: C_6  and  C_7
REMARK    5  A    between atoms: C_8  and  C_9
REMARK    6  A    between atoms: C_16  and  C_17
REMARK                            x       y       z     vdW  Elec       q    Type
REMARK                         _______ _______ _______ _____ _____    ______ ____
ROOT
ATOM      1  C   UNL     1      -1.087  11.694  21.484  0.00  0.00    +0.000 C 
ATOM      2  C   UNL     1      -0.063  10.799  21.517  0.00  0.00    +0.000 C 
ATOM      3  N   UNL     1       0.892  10.665  20.455  0.00  0.00    +0.000 N 
ATOM      4  C   UNL     1       0.803   9.489  19.718  0.00  0.00    +0.000 C 
ATOM      5  O   UNL     1       1.420   8.457  19.591  0.00  0.00    +0.000 OA
ATOM      6  C   UNL     1      -0.194  10.160  18.854  0.00  0.00    +0.000 C 
ATOM      7  C   UNL     1      -1.322   9.699  18.306  0.00  0.00    +0.000 C 
ATOM      8  C   UNL     1       0.652  11.380  19.157  0.00  0.00    +0.000 C 
ATOM      9  S   UNL     1       0.090  13.018  19.462  0.00  0.00    +0.000 S 
ATOM     10  O   UNL     1       1.077  13.769  20.232  0.00  0.00    +0.000 OA
ATOM     11  O   UNL     1      -0.390  13.607  18.229  0.00  0.00    +0.000 OA
ATOM     12  C   UNL     1      -1.299  12.785  20.478  0.00  0.00    +0.000 C 
ENDROOT
BRANCH   7  13
ATOM     13  C   UNL     1      -2.390  10.445  17.646  0.00  0.00    +0.000 A 
ATOM     14  C   UNL     1      -3.355  11.124  18.375  0.00  0.00    +0.000 A 
ATOM     15  C   UNL     1      -4.394  11.746  17.694  0.00  0.00    +0.000 A 
ATOM     16  C   UNL     1      -4.404  11.730  16.308  0.00  0.00    +0.000 A 
ATOM     17  C   UNL     1      -3.375  11.073  15.656  0.00  0.00    +0.000 A 
ATOM     18  N   UNL     1      -2.383  10.398  16.284  0.00  0.00    +0.000 NA
ENDBRANCH   7  13
BRANCH   2  19
ATOM     19  C   UNL     1       0.022   9.695  22.700  0.00  0.00    +0.000 C 
ATOM     20  O   UNL     1       0.738   9.992  23.696  0.00  0.00    +0.000 OA
ATOM     21  O   UNL     1      -0.702   8.680  22.520  0.00  0.00    +0.000 OA
ENDBRANCH   2  19
BRANCH   1  23
ATOM     22  C   UNL     1      -2.936  12.598  22.856  0.00  0.00    +0.000 C 
ATOM     23  C   UNL     1      -2.269  11.571  22.321  0.00  0.00    +0.000 C 
BRANCH  22  24
ATOM     24  C   UNL     1      -4.153  12.312  23.629  0.00  0.00    +0.000 C 
ATOM     25  O   UNL     1      -4.165  11.887  24.779  0.00  0.00    +0.000 OA
BRANCH  24  27
ATOM     26  C   UNL     1      -6.409  12.926  23.486  0.00  0.00    +0.000 C 
ATOM     27  O   UNL     1      -5.220  12.508  22.824  0.00  0.00    +0.000 OA
ENDBRANCH  24  27
ENDBRANCH  22  24
ENDBRANCH   1  23
TORSDOF 5
ENDMDL
MODEL 6
REMARK VINA RESULT:      -6.2      6.786     10.355
REMARK  Name = 
REMARK  6 active torsions:
REMARK  status: ('A' for Active; 'I' for Inactive)
REMARK    1  A    between atoms: C_1  and  O_2
REMARK    2  A    between atoms: O_2  and  C_3
REMARK    3  A    between atoms: C_3  and  C_5
REMARK    4  A    between atoms: C_6  and  C_7
REMARK    5  A    between atoms: C_8  and  C_9
REMARK    6  A    between atoms: C_16  and  C_17
REMARK                            x       y       z     vdW  Elec       q    Type
REMARK                         _______ _______ _______ _____ _____    ______ ____
ROOT
ATOM      1  C   UNL     1      -1.098  12.180  21.254  0.00  0.00    +0.000 C 
ATOM      2  C   UNL     1      -0.123  11.252  21.448  0.00  0.00    +0.000 C 
ATOM      3  N   UNL     1       0.834  10.900  20.438  0.00  0.00    +0.000 N 
ATOM      4  C   UNL     1       0.689   9.626  19.898  0.00  0.00    +0.000 C 
ATOM      5  O   UNL     1       1.252   8.558  19.949  0.00  0.00    +0.000 OA
ATOM      6  C   UNL     1      -0.264  10.199  18.920  0.00  0.00    +0.000 C 
ATOM      7  C   UNL     1      -1.409   9.713  18.433  0.00  0.00    +0.000 C 
ATOM      8  C   UNL     1       0.643  11.408  19.038  0.00  0.00    +0.000 C 
ATOM      9  S   UNL     1       0.166  13.099  19.066  0.00  0.00    +0.000 S 
ATOM     10  O   UNL     1       1.183  13.914  19.723  0.00  0.00    +0.000 OA
ATOM     11  O   UNL     1      -0.272  13.505  17.746  0.00  0.00    +0.000 OA
ATOM     12  C   UNL     1      -1.243  13.103  20.081  0.00  0.00    +0.000 C 
ENDROOT
BRANCH   7  13
ATOM     13  C   UNL     1      -2.430  10.396  17.644  0.00  0.00    +0.000 A 
ATOM     14  C   UNL     1      -3.463  11.097  18.248  0.00  0.00    +0.000 A 
ATOM     15  C   UNL     1      -4.451  11.656  17.447  0.00  0.00    +0.000 A 
ATOM     16  C   UNL     1      -4.346  11.557  16.069  0.00  0.00    +0.000 A 
ATOM     17  C   UNL     1      -3.256  10.883  15.545  0.00  0.00    +0.000 A 
ATOM     18  N   UNL     1      -2.310  10.268  16.292  0.00  0.00    +0.000 NA
ENDBRANCH   7  13
BRANCH   2  19
ATOM     19  C   UNL     1      -0.108  10.350  22.794  0.00  0.00    +0.000 C 
ATOM     20  O   UNL     1      -1.223  10.154  23.352  0.00  0.00    +0.000 OA
ATOM     21  O   UNL     1       1.021   9.881  23.096  0.00  0.00    +0.000 OA
ENDBRANCH   2  19
BRANCH   1  23
ATOM     22  C   UNL     1      -3.461  12.773  21.687  0.00  0.00    +0.000 C 
ATOM     23  C   UNL     1      -2.293  12.253  22.078  0.00  0.00    +0.000 C 
BRANCH  22  24
ATOM     24  C   UNL     1      -4.596  12.716  22.618  0.00  0.00    +0.000 C 
ATOM     25  O   UNL     1      -5.647  13.333  22.475  0.00  0.00    +0.000 OA
BRANCH  24  27
ATOM     26  C   UNL     1      -4.715  12.410  24.938  0.00  0.00    +0.000 C 
ATOM     27  O   UNL     1      -4.237  11.957  23.675  0.00  0.00    +0.000 OA
ENDBRANCH  24  27
ENDBRANCH  22  24
ENDBRANCH   1  23
TORSDOF 5
ENDMDL
MODEL 7
REMARK VINA RESULT:      -6.2      6.772     10.216
REMARK  Name = 
REMARK  6 active torsions:
REMARK  status: ('A' for Active; 'I' for Inactive)
REMARK    1  A    between atoms: C_1  and  O_2
REMARK    2  A    between atoms: O_2  and  C_3
REMARK    3  A    between atoms: C_3  and  C_5
REMARK    4  A    between atoms: C_6  and  C_7
REMARK    5  A    between atoms: C_8  and  C_9
REMARK    6  A    between atoms: C_16  and  C_17
REMARK                            x       y       z     vdW  Elec       q    Type
REMARK                         _______ _______ _______ _____ _____    ______ ____
ROOT
ATOM      1  C   UNL     1      -0.897  11.983  21.394  0.00  0.00    +0.000 C 
ATOM      2  C   UNL     1       0.110  11.068  21.407  0.00  0.00    +0.000 C 
ATOM      3  N   UNL     1       0.969  10.836  20.282  0.00  0.00    +0.000 N 
ATOM      4  C   UNL     1       0.796   9.612  19.642  0.00  0.00    +0.000 C 
ATOM      5  O   UNL     1       1.381   8.559  19.541  0.00  0.00    +0.000 OA
ATOM      6  C   UNL     1      -0.259  10.244  18.817  0.00  0.00    +0.000 C 
ATOM      7  C   UNL     1      -1.437   9.773  18.400  0.00  0.00    +0.000 C 
ATOM      8  C   UNL     1       0.633  11.462  18.959  0.00  0.00    +0.000 C 
ATOM      9  S   UNL     1       0.129  13.130  19.189  0.00  0.00    +0.000 S 
ATOM     10  O   UNL     1       1.191  13.910  19.817  0.00  0.00    +0.000 OA
ATOM     11  O   UNL     1      -0.443  13.641  17.960  0.00  0.00    +0.000 OA
ATOM     12  C   UNL     1      -1.173  13.004  20.331  0.00  0.00    +0.000 C 
ENDROOT
BRANCH   7  13
ATOM     13  C   UNL     1      -2.542  10.496  17.779  0.00  0.00    +0.000 A 
ATOM     14  C   UNL     1      -3.481  11.176  18.541  0.00  0.00    +0.000 A 
ATOM     15  C   UNL     1      -4.558  11.775  17.898  0.00  0.00    +0.000 A 
ATOM     16  C   UNL     1      -4.631  11.736  16.515  0.00  0.00    +0.000 A 
ATOM     17  C   UNL     1      -3.625  11.079  15.827  0.00  0.00    +0.000 A 
ATOM     18  N   UNL     1      -2.598  10.426  16.419  0.00  0.00    +0.000 NA
ENDBRANCH   7  13
BRANCH   2  19
ATOM     19  C   UNL     1       0.274  10.050  22.656  0.00  0.00    +0.000 C 
ATOM     20  O   UNL     1      -0.793   9.647  23.197  0.00  0.00    +0.000 OA
ATOM     21  O   UNL     1       1.462   9.715  22.905  0.00  0.00    +0.000 OA
ENDBRANCH   2  19
BRANCH   1  23
ATOM     22  C   UNL     1      -2.270  12.896  23.237  0.00  0.00    +0.000 C 
ATOM     23  C   UNL     1      -2.006  11.949  22.332  0.00  0.00    +0.000 C 
BRANCH  22  24
ATOM     24  C   UNL     1      -3.469  12.746  24.074  0.00  0.00    +0.000 C 
ATOM     25  O   UNL     1      -4.207  11.767  24.067  0.00  0.00    +0.000 OA
BRANCH  24  27
ATOM     26  C   UNL     1      -2.592  14.842  24.646  0.00  0.00    +0.000 C 
ATOM     27  O   UNL     1      -3.650  13.895  24.760  0.00  0.00    +0.000 OA
ENDBRANCH  24  27
ENDBRANCH  22  24
ENDBRANCH   1  23
TORSDOF 5
ENDMDL
MODEL 8
REMARK VINA RESULT:      -6.2      6.641     10.120
REMARK  Name = 
REMARK  6 active torsions:
REMARK  status: ('A' for Active; 'I' for Inactive)
REMARK    1  A    between atoms: C_1  and  O_2
REMARK    2  A    between atoms: O_2  and  C_3
REMARK    3  A    between atoms: C_3  and  C_5
REMARK    4  A    between atoms: C_6  and  C_7
REMARK    5  A    between atoms: C_8  and  C_9
REMARK    6  A    between atoms: C_16  and  C_17
REMARK                            x       y       z     vdW  Elec       q    Type
REMARK                         _______ _______ _______ _____ _____    ______ ____
ROOT
ATOM      1  C   UNL     1      -0.934  11.899  21.335  0.00  0.00    +0.000 C 
ATOM      2  C   UNL     1       0.115  11.035  21.374  0.00  0.00    +0.000 C 
ATOM      3  N   UNL     1       1.010  10.840  20.269  0.00  0.00    +0.000 N 
ATOM      4  C   UNL     1       0.910   9.607  19.632  0.00  0.00    +0.000 C 
ATOM      5  O   UNL     1       1.548   8.584  19.548  0.00  0.00    +0.000 OA
ATOM      6  C   UNL     1      -0.155  10.184  18.781  0.00  0.00    +0.000 C 
ATOM      7  C   UNL     1      -1.300   9.655  18.341  0.00  0.00    +0.000 C 
ATOM      8  C   UNL     1       0.672  11.444  18.937  0.00  0.00    +0.000 C 
ATOM      9  S   UNL     1       0.083  13.087  19.148  0.00  0.00    +0.000 S 
ATOM     10  O   UNL     1       1.092  13.920  19.796  0.00  0.00    +0.000 OA
ATOM     11  O   UNL     1      -0.486  13.565  17.905  0.00  0.00    +0.000 OA
ATOM     12  C   UNL     1      -1.236  12.902  20.262  0.00  0.00    +0.000 C 
ENDROOT
BRANCH   7  13
ATOM     13  C   UNL     1      -2.425  10.321  17.692  0.00  0.00    +0.000 A 
ATOM     14  C   UNL     1      -2.593  10.283  16.316  0.00  0.00    +0.000 A 
ATOM     15  C   UNL     1      -3.636  11.005  15.748  0.00  0.00    +0.000 A 
ATOM     16  C   UNL     1      -4.517  11.688  16.571  0.00  0.00    +0.000 A 
ATOM     17  C   UNL     1      -4.307  11.634  17.938  0.00  0.00    +0.000 A 
ATOM     18  N   UNL     1      -3.266  10.998  18.525  0.00  0.00    +0.000 NA
ENDBRANCH   7  13
BRANCH   2  19
ATOM     19  C   UNL     1       0.301  10.029  22.631  0.00  0.00    +0.000 C 
ATOM     20  O   UNL     1       1.485   9.697  22.915  0.00  0.00    +0.000 OA
ATOM     21  O   UNL     1      -0.766   9.744  23.235  0.00  0.00    +0.000 OA
ENDBRANCH   2  19
BRANCH   1  23
ATOM     22  C   UNL     1      -3.071  12.689  22.300  0.00  0.00    +0.000 C 
ATOM     23  C   UNL     1      -2.061  11.815  22.249  0.00  0.00    +0.000 C 
BRANCH  22  24
ATOM     24  C   UNL     1      -4.170  12.430  23.240  0.00  0.00    +0.000 C 
ATOM     25  O   UNL     1      -4.042  11.883  24.330  0.00  0.00    +0.000 OA
BRANCH  24  27
ATOM     26  C   UNL     1      -5.414  12.536  21.258  0.00  0.00    +0.000 C 
ATOM     27  O   UNL     1      -5.325  12.810  22.653  0.00  0.00    +0.000 OA
ENDBRANCH  24  27
ENDBRANCH  22  24
ENDBRANCH   1  23
TORSDOF 5
ENDMDL
MODEL 9
REMARK VINA RESULT:      -6.1      9.593     12.392
REMARK  Name = 
REMARK  6 active torsions:
REMARK  status: ('A' for Active; 'I' for Inactive)
REMARK    1  A    between atoms: C_1  and  O_2
REMARK    2  A    between atoms: O_2  and  C_3
REMARK    3  A    between atoms: C_3  and  C_5
REMARK    4  A    between atoms: C_6  and  C_7
REMARK    5  A    between atoms: C_8  and  C_9
REMARK    6  A    between atoms: C_16  and  C_17
REMARK                            x       y       z     vdW  Elec       q    Type
REMARK                         _______ _______ _______ _____ _____    ______ ____
ROOT
ATOM      1  C   UNL     1       8.789  14.372  18.204  0.00  0.00    +0.000 C 
ATOM      2  C   UNL     1       9.949  15.075  18.303  0.00  0.00    +0.000 C 
ATOM      3  N   UNL     1      11.108  14.578  18.988  0.00  0.00    +0.000 N 
ATOM      4  C   UNL     1      11.421  15.227  20.179  0.00  0.00    +0.000 C 
ATOM      5  O   UNL     1      12.253  16.001  20.590  0.00  0.00    +0.000 OA
ATOM      6  C   UNL     1      10.503  14.296  20.874  0.00  0.00    +0.000 C 
ATOM      7  C   UNL     1       9.633  14.508  21.865  0.00  0.00    +0.000 C 
ATOM      8  C   UNL     1      10.993  13.329  19.814  0.00  0.00    +0.000 C 
ATOM      9  S   UNL     1      10.051  12.119  18.956  0.00  0.00    +0.000 S 
ATOM     10  O   UNL     1      10.678  11.780  17.683  0.00  0.00    +0.000 OA
ATOM     11  O   UNL     1       9.720  11.032  19.853  0.00  0.00    +0.000 OA
ATOM     12  C   UNL     1       8.563  12.944  18.603  0.00  0.00    +0.000 C 
ENDROOT
BRANCH   7  13
ATOM     13  C   UNL     1       8.591  13.621  22.373  0.00  0.00    +0.000 A 
ATOM     14  C   UNL     1       7.255  13.997  22.367  0.00  0.00    +0.000 A 
ATOM     15  C   UNL     1       6.318  13.146  22.941  0.00  0.00    +0.000 A 
ATOM     16  C   UNL     1       6.729  11.921  23.442  0.00  0.00    +0.000 A 
ATOM     17  C   UNL     1       8.074  11.602  23.363  0.00  0.00    +0.000 A 
ATOM     18  N   UNL     1       9.026  12.431  22.875  0.00  0.00    +0.000 NA
ENDBRANCH   7  13
BRANCH   2  19
ATOM     19  C   UNL     1      10.020  16.613  17.799  0.00  0.00    +0.000 C 
ATOM     20  O   UNL     1       9.584  17.487  18.598  0.00  0.00    +0.000 OA
ATOM     21  O   UNL     1      10.574  16.771  16.680  0.00  0.00    +0.000 OA
ENDBRANCH   2  19
BRANCH   1  23
ATOM     22  C   UNL     1       6.591  15.341  18.795  0.00  0.00    +0.000 C 
ATOM     23  C   UNL     1       7.513  14.994  17.892  0.00  0.00    +0.000 C 
BRANCH  22  24
ATOM     24  C   UNL     1       5.376  16.020  18.324  0.00  0.00    +0.000 C 
ATOM     25  O   UNL     1       5.054  17.164  18.626  0.00  0.00    +0.000 OA
BRANCH  24  27
ATOM     26  C   UNL     1       3.243  15.240  17.748  0.00  0.00    +0.000 C 
ATOM     27  O   UNL     1       4.656  15.139  17.597  0.00  0.00    +0.000 OA
ENDBRANCH  24  27
ENDBRANCH  22  24
ENDBRANCH   1  23
TORSDOF 5
ENDMDL
