MODEL 1
REMARK VINA RESULT:      -6.4      0.000      0.000
REMARK  Name = 
REMARK  6 active torsions:
REMARK  status: ('A' for Active; 'I' for Inactive)
REMARK    1  A    between atoms: C_1  and  N_2
REMARK    2  A    between atoms: C_9  and  N_10
REMARK    3  A    between atoms: C_11  and  C_13
REMARK    4  A    between atoms: C_22  and  O_23
REMARK    5  A    between atoms: C_28  and  C_29
REMARK    6  A    between atoms: C_29  and  O_31
REMARK                            x       y       z     vdW  Elec       q    Type
REMARK                         _______ _______ _______ _____ _____    ______ ____
ROOT
ATOM      1  C   UNK A   0      -1.132  12.850  19.336  0.00  0.00    +0.000 C 
ATOM      2  N   UNK A   1      -1.255  13.279  20.726  0.00  0.00    +0.000 N 
ATOM      3  C   UNK A   1      -0.829  12.305  21.637  0.00  0.00    +0.000 C 
ATOM      4  O   UNK A   1       0.333  12.203  22.009  0.00  0.00    +0.000 OA
ATOM      5  C   UNK A   1      -2.008  11.506  22.207  0.00  0.00    +0.000 C 
ATOM      6  N   UNK A   1      -2.519  12.066  23.448  0.00  0.00    +0.000 N 
ATOM      7  C   UNK A   1      -3.715  12.612  23.809  0.00  0.00    +0.000 C 
ATOM      8  O   UNK A   1      -3.968  12.631  25.021  0.00  0.00    +0.000 OA
ATOM      9  C   UNK A   1      -4.602  13.441  22.850  0.00  0.00    +0.000 C 
ATOM     10  C   UNK A   1      -4.263  14.920  23.159  0.00  0.00    +0.000 C 
ATOM     11  S   UNK A   1      -4.576  16.124  21.813  0.00  0.00    +0.000 S 
ATOM     12  S   UNK A   1      -2.702  16.907  21.423  0.00  0.00    +0.000 S 
ATOM     13  C   UNK A   1      -1.931  15.620  20.383  0.00  0.00    +0.000 C 
ATOM     14  C   UNK A   1      -0.854  14.688  20.999  0.00  0.00    +0.000 C 
ATOM     15  H   UNK A   1      -1.929  11.914  24.257  0.00  0.00    +0.000 HD
ENDROOT
BRANCH   9  16
ATOM     16  N   UNK A   1      -4.505  13.071  21.450  0.00  0.00    +0.000 N 
ATOM     17  C   UNK A   1      -5.476  12.309  20.831  0.00  0.00    +0.000 C 
ATOM     18  O   UNK A   1      -6.466  11.881  21.408  0.00  0.00    +0.000 OA
ATOM     19  H   UNK A   1      -3.718  13.378  20.898  0.00  0.00    +0.000 HD
BRANCH  17  20
ATOM     20  C   UNK A   1      -5.183  11.999  19.395  0.00  0.00    +0.000 A 
ATOM     21  N   UNK A   1      -4.164  11.114  19.199  0.00  0.00    +0.000 NA
ATOM     22  C   UNK A   0      -3.798  10.861  17.934  0.00  0.00    +0.000 A 
ATOM     23  C   UNK A   0      -2.722  10.021  17.694  0.00  0.00    +0.000 A 
ATOM     24  C   UNK A   0      -2.292   9.732  16.397  0.00  0.00    +0.000 A 
ATOM     25  C   UNK A   0      -2.949  10.290  15.308  0.00  0.00    +0.000 A 
ATOM     26  C   UNK A   0      -4.040  11.131  15.517  0.00  0.00    +0.000 A 
ATOM     27  C   UNK A   1      -4.472  11.422  16.822  0.00  0.00    +0.000 A 
ATOM     28  C   UNK A   1      -5.574  12.256  17.059  0.00  0.00    +0.000 A 
ATOM     29  C   UNK A   1      -5.944  12.546  18.368  0.00  0.00    +0.000 A 
BRANCH  29  30
ATOM     30  O   UNK A   1      -7.070  13.272  18.611  0.00  0.00    +0.000 OA
ATOM     31  H   UNK A   1      -6.873  14.026  19.189  0.00  0.00    +0.000 HD
ENDBRANCH  29  30
ENDBRANCH  17  20
ENDBRANCH   9  16
BRANCH  14  32
ATOM     32  C   UNK A   1      -0.540  15.027  22.488  0.00  0.00    +0.000 C 
ATOM     33  O   UNK A   1      -1.348  15.033  23.403  0.00  0.00    +0.000 OA
BRANCH  32  34
ATOM     34  O   UNK A   1       0.760  15.334  22.710  0.00  0.00    +0.000 OA
ATOM     35  H   UNK A   1       1.302  14.655  23.142  0.00  0.00    +0.000 HD
ENDBRANCH  32  34
ENDBRANCH  14  32
TORSDOF 5
ENDMDL
MODEL 2
REMARK VINA RESULT:      -6.1      2.906      4.853
REMARK  Name = 
REMARK  6 active torsions:
REMARK  status: ('A' for Active; 'I' for Inactive)
REMARK    1  A    between atoms: C_1  and  N_2
REMARK    2  A    between atoms: C_9  and  N_10
REMARK    3  A    between atoms: C_11  and  C_13
REMARK    4  A    between atoms: C_22  and  O_23
REMARK    5  A    between atoms: C_28  and  C_29
REMARK    6  A    between atoms: C_29  and  O_31
REMARK                            x       y       z     vdW  Elec       q    Type
REMARK                         _______ _______ _______ _____ _____    ______ ____
ROOT
ATOM      1  C   UNK A   0      -3.048  14.775  20.311  0.00  0.00    +0.000 C 
ATOM      2  N   UNK A   1      -1.640  14.468  20.547  0.00  0.00    +0.000 N 
ATOM      3  C   UNK A   1      -0.772  15.341  19.879  0.00  0.00    +0.000 C 
ATOM      4  O   UNK A   1      -0.388  16.399  20.364  0.00  0.00    +0.000 OA
ATOM      5  C   UNK A   1      -0.262  14.740  18.565  0.00  0.00    +0.000 C 
ATOM      6  N   UNK A   1       0.998  14.029  18.723  0.00  0.00    +0.000 N 
ATOM      7  C   UNK A   1       1.368  12.727  18.566  0.00  0.00    +0.000 C 
ATOM      8  O   UNK A   1       2.575  12.514  18.392  0.00  0.00    +0.000 OA
ATOM      9  C   UNK A   1       0.437  11.530  18.877  0.00  0.00    +0.000 C 
ATOM     10  C   UNK A   1       0.825  11.073  20.305  0.00  0.00    +0.000 C 
ATOM     11  S   UNK A   1      -0.464  10.175  21.248  0.00  0.00    +0.000 S 
ATOM     12  S   UNK A   1      -0.786  11.386  22.894  0.00  0.00    +0.000 S 
ATOM     13  C   UNK A   1      -1.876  12.692  22.233  0.00  0.00    +0.000 C 
ATOM     14  C   UNK A   1      -1.292  14.100  21.948  0.00  0.00    +0.000 C 
ATOM     15  H   UNK A   1       1.807  14.625  18.852  0.00  0.00    +0.000 HD
ENDROOT
BRANCH   9  16
ATOM     16  N   UNK A   1      -0.977  11.785  18.679  0.00  0.00    +0.000 N 
ATOM     17  C   UNK A   1      -1.755  10.978  17.871  0.00  0.00    +0.000 C 
ATOM     18  O   UNK A   1      -1.316  10.014  17.259  0.00  0.00    +0.000 OA
ATOM     19  H   UNK A   1      -1.423  12.562  19.144  0.00  0.00    +0.000 HD
BRANCH  17  20
ATOM     20  C   UNK A   1      -3.182  11.421  17.762  0.00  0.00    +0.000 A 
ATOM     21  N   UNK A   1      -3.773  11.742  18.948  0.00  0.00    +0.000 NA
ATOM     22  C   UNK A   0      -5.074  12.065  18.925  0.00  0.00    +0.000 A 
ATOM     23  C   UNK A   0      -5.728  12.330  20.118  0.00  0.00    +0.000 A 
ATOM     24  C   UNK A   0      -7.085  12.660  20.153  0.00  0.00    +0.000 A 
ATOM     25  C   UNK A   0      -7.812  12.732  18.971  0.00  0.00    +0.000 A 
ATOM     26  C   UNK A   0      -7.179  12.480  17.755  0.00  0.00    +0.000 A 
ATOM     27  C   UNK A   1      -5.815  12.147  17.721  0.00  0.00    +0.000 A 
ATOM     28  C   UNK A   1      -5.152  11.899  16.510  0.00  0.00    +0.000 A 
ATOM     29  C   UNK A   1      -3.809  11.537  16.527  0.00  0.00    +0.000 A 
BRANCH  29  30
ATOM     30  O   UNK A   1      -3.131  11.392  15.354  0.00  0.00    +0.000 OA
ATOM     31  H   UNK A   1      -2.279  10.952  15.504  0.00  0.00    +0.000 HD
ENDBRANCH  29  30
ENDBRANCH  17  20
ENDBRANCH   9  16
BRANCH  14  32
ATOM     32  C   UNK A   1       0.218  14.216  22.324  0.00  0.00    +0.000 C 
ATOM     33  O   UNK A   1       1.126  13.566  21.832  0.00  0.00    +0.000 OA
BRANCH  32  34
ATOM     34  O   UNK A   1       0.465  15.135  23.287  0.00  0.00    +0.000 OA
ATOM     35  H   UNK A   1       1.054  14.865  24.009  0.00  0.00    +0.000 HD
ENDBRANCH  32  34
ENDBRANCH  14  32
TORSDOF 5
ENDMDL
MODEL 3
REMARK VINA RESULT:      -6.1      3.115      5.365
REMARK  Name = 
REMARK  6 active torsions:
REMARK  status: ('A' for Active; 'I' for Inactive)
REMARK    1  A    between atoms: C_1  and  N_2
REMARK    2  A    between atoms: C_9  and  N_10
REMARK    3  A    between atoms: C_11  and  C_13
REMARK    4  A    between atoms: C_22  and  O_23
REMARK    5  A    between atoms: C_28  and  C_29
REMARK    6  A    between atoms: C_29  and  O_31
REMARK                            x       y       z     vdW  Elec       q    Type
REMARK                         _______ _______ _______ _____ _____    ______ ____
ROOT
ATOM      1  C   UNK A   0      -3.877  12.774  22.766  0.00  0.00    +0.000 C 
ATOM      2  N   UNK A   1      -4.108  14.215  22.718  0.00  0.00    +0.000 N 
ATOM      3  C   UNK A   1      -5.280  14.557  22.033  0.00  0.00    +0.000 C 
ATOM      4  O   UNK A   1      -6.374  14.631  22.581  0.00  0.00    +0.000 OA
ATOM      5  C   UNK A   1      -4.994  14.966  20.584  0.00  0.00    +0.000 C 
ATOM      6  N   UNK A   1      -4.800  16.400  20.431  0.00  0.00    +0.000 N 
ATOM      7  C   UNK A   1      -3.743  17.168  20.044  0.00  0.00    +0.000 C 
ATOM      8  O   UNK A   1      -4.009  18.308  19.642  0.00  0.00    +0.000 OA
ATOM      9  C   UNK A   1      -2.268  16.810  20.347  0.00  0.00    +0.000 C 
ATOM     10  C   UNK A   1      -1.906  17.621  21.617  0.00  0.00    +0.000 C 
ATOM     11  S   UNK A   1      -0.535  16.960  22.638  0.00  0.00    +0.000 S 
ATOM     12  S   UNK A   1      -1.436  16.575  24.460  0.00  0.00    +0.000 S 
ATOM     13  C   UNK A   1      -2.275  14.980  24.170  0.00  0.00    +0.000 C 
ATOM     14  C   UNK A   1      -3.814  14.952  23.978  0.00  0.00    +0.000 C 
ATOM     15  H   UNK A   1      -5.646  16.952  20.499  0.00  0.00    +0.000 HD
ENDROOT
BRANCH   9  16
ATOM     16  N   UNK A   1      -1.985  15.390  20.427  0.00  0.00    +0.000 N 
ATOM     17  C   UNK A   1      -1.001  14.800  19.658  0.00  0.00    +0.000 C 
ATOM     18  O   UNK A   1      -0.316  15.416  18.853  0.00  0.00    +0.000 OA
ATOM     19  H   UNK A   1      -2.506  14.804  21.063  0.00  0.00    +0.000 HD
BRANCH  17  20
ATOM     20  C   UNK A   1      -0.882  13.320  19.852  0.00  0.00    +0.000 A 
ATOM     21  N   UNK A   1      -0.883  12.913  21.154  0.00  0.00    +0.000 NA
ATOM     22  C   UNK A   0      -0.694  11.607  21.395  0.00  0.00    +0.000 A 
ATOM     23  C   UNK A   0      -0.619  11.164  22.706  0.00  0.00    +0.000 A 
ATOM     24  C   UNK A   0      -0.413   9.817  23.014  0.00  0.00    +0.000 A 
ATOM     25  C   UNK A   0      -0.280   8.885  21.993  0.00  0.00    +0.000 A 
ATOM     26  C   UNK A   0      -0.359   9.299  20.665  0.00  0.00    +0.000 A 
ATOM     27  C   UNK A   1      -0.566  10.654  20.355  0.00  0.00    +0.000 A 
ATOM     28  C   UNK A   1      -0.661  11.095  19.028  0.00  0.00    +0.000 A 
ATOM     29  C   UNK A   1      -0.830  12.451  18.768  0.00  0.00    +0.000 A 
BRANCH  29  30
ATOM     30  O   UNK A   1      -1.024  12.879  17.489  0.00  0.00    +0.000 OA
ATOM     31  H   UNK A   1      -0.214  12.768  16.965  0.00  0.00    +0.000 HD
ENDBRANCH  29  30
ENDBRANCH  17  20
ENDBRANCH   9  16
BRANCH  14  32
ATOM     32  C   UNK A   1      -4.465  16.364  24.105  0.00  0.00    +0.000 C 
ATOM     33  O   UNK A   1      -4.479  17.222  23.238  0.00  0.00    +0.000 OA
BRANCH  32  34
ATOM     34  O   UNK A   1      -5.043  16.586  25.309  0.00  0.00    +0.000 OA
ATOM     35  H   UNK A   1      -6.002  16.453  25.366  0.00  0.00    +0.000 HD
ENDBRANCH  32  34
ENDBRANCH  14  32
TORSDOF 5
ENDMDL
MODEL 4
REMARK VINA RESULT:      -6.1      2.123      3.109
REMARK  Name = 
REMARK  6 active torsions:
REMARK  status: ('A' for Active; 'I' for Inactive)
REMARK    1  A    between atoms: C_1  and  N_2
REMARK    2  A    between atoms: C_9  and  N_10
REMARK    3  A    between atoms: C_11  and  C_13
REMARK    4  A    between atoms: C_22  and  O_23
REMARK    5  A    between atoms: C_28  and  C_29
REMARK    6  A    between atoms: C_29  and  O_31
REMARK                            x       y       z     vdW  Elec       q    Type
REMARK                         _______ _______ _______ _____ _____    ______ ____
ROOT
ATOM      1  C   UNK A   0      -2.925  12.041  22.580  0.00  0.00    +0.000 C 
ATOM      2  N   UNK A   1      -3.548  13.156  23.287  0.00  0.00    +0.000 N 
ATOM      3  C   UNK A   1      -4.479  12.742  24.248  0.00  0.00    +0.000 C 
ATOM      4  O   UNK A   1      -4.171  12.478  25.404  0.00  0.00    +0.000 OA
ATOM      5  C   UNK A   1      -5.915  12.810  23.714  0.00  0.00    +0.000 C 
ATOM      6  N   UNK A   1      -6.566  14.077  24.012  0.00  0.00    +0.000 N 
ATOM      7  C   UNK A   1      -7.050  15.088  23.238  0.00  0.00    +0.000 C 
ATOM      8  O   UNK A   1      -7.888  15.832  23.765  0.00  0.00    +0.000 OA
ATOM      9  C   UNK A   1      -6.416  15.515  21.892  0.00  0.00    +0.000 C 
ATOM     10  C   UNK A   1      -5.508  16.722  22.236  0.00  0.00    +0.000 C 
ATOM     11  S   UNK A   1      -4.119  17.046  21.085  0.00  0.00    +0.000 S 
ATOM     12  S   UNK A   1      -2.445  16.832  22.281  0.00  0.00    +0.000 S 
ATOM     13  C   UNK A   1      -2.234  15.021  22.366  0.00  0.00    +0.000 C 
ATOM     14  C   UNK A   1      -2.631  14.268  23.662  0.00  0.00    +0.000 C 
ATOM     15  H   UNK A   1      -6.840  14.196  24.980  0.00  0.00    +0.000 HD
ENDROOT
BRANCH   9  16
ATOM     16  N   UNK A   1      -5.765  14.449  21.155  0.00  0.00    +0.000 N 
ATOM     17  C   UNK A   1      -6.332  13.895  20.024  0.00  0.00    +0.000 C 
ATOM     18  O   UNK A   1      -7.416  14.242  19.575  0.00  0.00    +0.000 OA
ATOM     19  H   UNK A   1      -4.868  14.098  21.458  0.00  0.00    +0.000 HD
BRANCH  17  20
ATOM     20  C   UNK A   1      -5.529  12.783  19.423  0.00  0.00    +0.000 A 
ATOM     21  N   UNK A   1      -4.179  12.920  19.550  0.00  0.00    +0.000 NA
ATOM     22  C   UNK A   0      -3.404  12.000  18.958  0.00  0.00    +0.000 A 
ATOM     23  C   UNK A   0      -2.026  12.143  19.005  0.00  0.00    +0.000 A 
ATOM     24  C   UNK A   0      -1.172  11.219  18.396  0.00  0.00    +0.000 A 
ATOM     25  C   UNK A   0      -1.700  10.124  17.725  0.00  0.00    +0.000 A 
ATOM     26  C   UNK A   0      -3.081   9.949  17.669  0.00  0.00    +0.000 A 
ATOM     27  C   UNK A   1      -3.940  10.878  18.281  0.00  0.00    +0.000 A 
ATOM     28  C   UNK A   1      -5.333  10.720  18.248  0.00  0.00    +0.000 A 
ATOM     29  C   UNK A   1      -6.145  11.683  18.836  0.00  0.00    +0.000 A 
BRANCH  29  30
ATOM     30  O   UNK A   1      -7.492  11.490  18.898  0.00  0.00    +0.000 OA
ATOM     31  H   UNK A   1      -7.800  10.978  18.133  0.00  0.00    +0.000 HD
ENDBRANCH  29  30
ENDBRANCH  17  20
ENDBRANCH   9  16
BRANCH  14  32
ATOM     32  C   UNK A   1      -3.145  15.223  24.783  0.00  0.00    +0.000 C 
ATOM     33  O   UNK A   1      -4.218  15.803  24.786  0.00  0.00    +0.000 OA
BRANCH  32  34
ATOM     34  O   UNK A   1      -2.272  15.373  25.808  0.00  0.00    +0.000 OA
ATOM     35  H   UNK A   1      -1.363  15.619  25.575  0.00  0.00    +0.000 HD
ENDBRANCH  32  34
ENDBRANCH  14  32
TORSDOF 5
ENDMDL
MODEL 5
REMARK VINA RESULT:      -6.0     11.629     13.921
REMARK  Name = 
REMARK  6 active torsions:
REMARK  status: ('A' for Active; 'I' for Inactive)
REMARK    1  A    between atoms: C_1  and  N_2
REMARK    2  A    between atoms: C_9  and  N_10
REMARK    3  A    between atoms: C_11  and  C_13
REMARK    4  A    between atoms: C_22  and  O_23
REMARK    5  A    between atoms: C_28  and  C_29
REMARK    6  A    between atoms: C_29  and  O_31
REMARK                            x       y       z     vdW  Elec       q    Type
REMARK                         _______ _______ _______ _____ _____    ______ ____
ROOT
ATOM      1  C   UNK A   0       6.983  15.655  20.885  0.00  0.00    +0.000 C 
ATOM      2  N   UNK A   1       7.866  15.851  19.739  0.00  0.00    +0.000 N 
ATOM      3  C   UNK A   1       7.399  15.223  18.577  0.00  0.00    +0.000 C 
ATOM      4  O   UNK A   1       6.632  15.764  17.790  0.00  0.00    +0.000 OA
ATOM      5  C   UNK A   1       8.078  13.867  18.352  0.00  0.00    +0.000 C 
ATOM      6  N   UNK A   1       9.260  13.963  17.508  0.00  0.00    +0.000 N 
ATOM      7  C   UNK A   1      10.585  13.723  17.718  0.00  0.00    +0.000 C 
ATOM      8  O   UNK A   1      11.274  13.519  16.710  0.00  0.00    +0.000 OA
ATOM      9  C   UNK A   1      11.297  13.976  19.069  0.00  0.00    +0.000 C 
ATOM     10  C   UNK A   1      11.960  15.368  18.924  0.00  0.00    +0.000 C 
ATOM     11  S   UNK A   1      12.290  16.276  20.482  0.00  0.00    +0.000 S 
ATOM     12  S   UNK A   1      11.158  17.996  20.284  0.00  0.00    +0.000 S 
ATOM     13  C   UNK A   1       9.478  17.430  20.718  0.00  0.00    +0.000 C 
ATOM     14  C   UNK A   1       8.431  17.221  19.593  0.00  0.00    +0.000 C 
ATOM     15  H   UNK A   1       9.068  14.115  16.525  0.00  0.00    +0.000 HD
ENDROOT
BRANCH   9  16
ATOM     16  N   UNK A   1      10.461  13.815  20.243  0.00  0.00    +0.000 N 
ATOM     17  C   UNK A   1      10.420  12.629  20.950  0.00  0.00    +0.000 C 
ATOM     18  O   UNK A   1      11.062  11.636  20.637  0.00  0.00    +0.000 OA
ATOM     19  H   UNK A   1       9.894  14.583  20.571  0.00  0.00    +0.000 HD
BRANCH  17  20
ATOM     20  C   UNK A   1       9.472  12.643  22.109  0.00  0.00    +0.000 A 
ATOM     21  N   UNK A   1       9.260  13.873  22.658  0.00  0.00    +0.000 NA
ATOM     22  C   UNK A   0       8.487  13.939  23.752  0.00  0.00    +0.000 A 
ATOM     23  C   UNK A   0       8.304  15.160  24.381  0.00  0.00    +0.000 A 
ATOM     24  C   UNK A   0       7.518  15.283  25.529  0.00  0.00    +0.000 A 
ATOM     25  C   UNK A   0       6.895  14.165  26.066  0.00  0.00    +0.000 A 
ATOM     26  C   UNK A   0       7.053  12.925  25.451  0.00  0.00    +0.000 A 
ATOM     27  C   UNK A   1       7.844  12.801  24.297  0.00  0.00    +0.000 A 
ATOM     28  C   UNK A   1       8.010  11.567  23.652  0.00  0.00    +0.000 A 
ATOM     29  C   UNK A   1       8.832  11.484  22.533  0.00  0.00    +0.000 A 
BRANCH  29  30
ATOM     30  O   UNK A   1       8.922  10.315  21.840  0.00  0.00    +0.000 OA
ATOM     31  H   UNK A   1       8.866  10.477  20.885  0.00  0.00    +0.000 HD
ENDBRANCH  29  30
ENDBRANCH  17  20
ENDBRANCH   9  16
BRANCH  14  32
ATOM     32  C   UNK A   1       8.982  17.580  18.179  0.00  0.00    +0.000 C 
ATOM     33  O   UNK A   1       9.891  17.006  17.602  0.00  0.00    +0.000 OA
BRANCH  32  34
ATOM     34  O   UNK A   1       8.350  18.631  17.604  0.00  0.00    +0.000 OA
ATOM     35  H   UNK A   1       7.723  19.121  18.158  0.00  0.00    +0.000 HD
ENDBRANCH  32  34
ENDBRANCH  14  32
TORSDOF 5
ENDMDL
MODEL 6
REMARK VINA RESULT:      -5.8      9.530     11.816
REMARK  Name = 
REMARK  6 active torsions:
REMARK  status: ('A' for Active; 'I' for Inactive)
REMARK    1  A    between atoms: C_1  and  N_2
REMARK    2  A    between atoms: C_9  and  N_10
REMARK    3  A    between atoms: C_11  and  C_13
REMARK    4  A    between atoms: C_22  and  O_23
REMARK    5  A    between atoms: C_28  and  C_29
REMARK    6  A    between atoms: C_29  and  O_31
REMARK                            x       y       z     vdW  Elec       q    Type
REMARK                         _______ _______ _______ _____ _____    ______ ____
ROOT
ATOM      1  C   UNK A   0       8.140  12.380  22.601  0.00  0.00    +0.000 C 
ATOM      2  N   UNK A   1       7.379  13.435  23.266  0.00  0.00    +0.000 N 
ATOM      3  C   UNK A   1       6.023  13.118  23.414  0.00  0.00    +0.000 C 
ATOM      4  O   UNK A   1       5.583  12.506  24.380  0.00  0.00    +0.000 OA
ATOM      5  C   UNK A   1       5.167  13.756  22.314  0.00  0.00    +0.000 C 
ATOM      6  N   UNK A   1       4.634  15.055  22.698  0.00  0.00    +0.000 N 
ATOM      7  C   UNK A   1       4.812  16.319  22.222  0.00  0.00    +0.000 C 
ATOM      8  O   UNK A   1       3.929  17.141  22.502  0.00  0.00    +0.000 OA
ATOM      9  C   UNK A   1       6.146  16.831  21.629  0.00  0.00    +0.000 C 
ATOM     10  C   UNK A   1       6.848  17.576  22.792  0.00  0.00    +0.000 C 
ATOM     11  S   UNK A   1       8.673  17.711  22.685  0.00  0.00    +0.000 S 
ATOM     12  S   UNK A   1       9.328  16.708  24.371  0.00  0.00    +0.000 S 
ATOM     13  C   UNK A   1       9.215  14.956  23.873  0.00  0.00    +0.000 C 
ATOM     14  C   UNK A   1       8.058  14.081  24.423  0.00  0.00    +0.000 C 
ATOM     15  H   UNK A   1       3.878  15.021  23.370  0.00  0.00    +0.000 HD
ENDROOT
BRANCH   9  16
ATOM     16  N   UNK A   1       6.954  15.821  20.973  0.00  0.00    +0.000 N 
ATOM     17  C   UNK A   1       7.289  15.913  19.636  0.00  0.00    +0.000 C 
ATOM     18  O   UNK A   1       6.922  16.827  18.911  0.00  0.00    +0.000 OA
ATOM     19  H   UNK A   1       7.298  15.028  21.495  0.00  0.00    +0.000 HD
BRANCH  17  20
ATOM     20  C   UNK A   1       8.097  14.757  19.130  0.00  0.00    +0.000 A 
ATOM     21  N   UNK A   1       9.215  14.480  19.859  0.00  0.00    +0.000 NA
ATOM     22  C   UNK A   0      10.025  13.511  19.407  0.00  0.00    +0.000 A 
ATOM     23  C   UNK A   0      11.207  13.247  20.081  0.00  0.00    +0.000 A 
ATOM     24  C   UNK A   0      12.092  12.256  19.648  0.00  0.00    +0.000 A 
ATOM     25  C   UNK A   0      11.793  11.506  18.517  0.00  0.00    +0.000 A 
ATOM     26  C   UNK A   0      10.608  11.743  17.825  0.00  0.00    +0.000 A 
ATOM     27  C   UNK A   1       9.719  12.739  18.260  0.00  0.00    +0.000 A 
ATOM     28  C   UNK A   1       8.514  12.991  17.587  0.00  0.00    +0.000 A 
ATOM     29  C   UNK A   1       7.682  14.012  18.033  0.00  0.00    +0.000 A 
BRANCH  29  30
ATOM     30  O   UNK A   1       6.465  14.199  17.450  0.00  0.00    +0.000 OA
ATOM     31  H   UNK A   1       6.506  14.001  16.500  0.00  0.00    +0.000 HD
ENDBRANCH  29  30
ENDBRANCH  17  20
ENDBRANCH   9  16
BRANCH  14  32
ATOM     32  C   UNK A   1       7.129  14.856  25.408  0.00  0.00    +0.000 C 
ATOM     33  O   UNK A   1       6.281  15.674  25.091  0.00  0.00    +0.000 OA
BRANCH  32  34
ATOM     34  O   UNK A   1       7.341  14.544  26.708  0.00  0.00    +0.000 OA
ATOM     35  H   UNK A   1       6.780  13.850  27.088  0.00  0.00    +0.000 HD
ENDBRANCH  32  34
ENDBRANCH  14  32
TORSDOF 5
ENDMDL
MODEL 7
REMARK VINA RESULT:      -5.8      2.837      5.039
REMARK  Name = 
REMARK  6 active torsions:
REMARK  status: ('A' for Active; 'I' for Inactive)
REMARK    1  A    between atoms: C_1  and  N_2
REMARK    2  A    between atoms: C_9  and  N_10
REMARK    3  A    between atoms: C_11  and  C_13
REMARK    4  A    between atoms: C_22  and  O_23
REMARK    5  A    between atoms: C_28  and  C_29
REMARK    6  A    between atoms: C_29  and  O_31
REMARK                            x       y       z     vdW  Elec       q    Type
REMARK                         _______ _______ _______ _____ _____    ______ ____
ROOT
ATOM      1  C   UNK A   0      -1.697  11.969  21.878  0.00  0.00    +0.000 C 
ATOM      2  N   UNK A   1      -2.550  13.084  22.279  0.00  0.00    +0.000 N 
ATOM      3  C   UNK A   1      -3.884  12.919  21.886  0.00  0.00    +0.000 C 
ATOM      4  O   UNK A   1      -4.713  12.335  22.574  0.00  0.00    +0.000 OA
ATOM      5  C   UNK A   1      -4.194  13.678  20.592  0.00  0.00    +0.000 C 
ATOM      6  N   UNK A   1      -4.707  15.018  20.834  0.00  0.00    +0.000 N 
ATOM      7  C   UNK A   1      -4.244  16.267  20.546  0.00  0.00    +0.000 C 
ATOM      8  O   UNK A   1      -5.085  17.175  20.529  0.00  0.00    +0.000 OA
ATOM      9  C   UNK A   1      -2.742  16.641  20.532  0.00  0.00    +0.000 C 
ATOM     10  C   UNK A   1      -2.467  17.270  21.920  0.00  0.00    +0.000 C 
ATOM     11  S   UNK A   1      -0.735  17.202  22.513  0.00  0.00    +0.000 S 
ATOM     12  S   UNK A   1      -0.866  16.087  24.251  0.00  0.00    +0.000 S 
ATOM     13  C   UNK A   1      -0.947  14.372  23.629  0.00  0.00    +0.000 C 
ATOM     14  C   UNK A   1      -2.303  13.620  23.646  0.00  0.00    +0.000 C 
ATOM     15  H   UNK A   1      -5.662  15.052  21.171  0.00  0.00    +0.000 HD
ENDROOT
BRANCH   9  16
ATOM     16  N   UNK A   1      -1.845  15.563  20.160  0.00  0.00    +0.000 N 
ATOM     17  C   UNK A   1      -0.825  15.749  19.248  0.00  0.00    +0.000 C 
ATOM     18  O   UNK A   1      -0.613  16.812  18.681  0.00  0.00    +0.000 OA
ATOM     19  H   UNK A   1      -1.949  14.650  20.576  0.00  0.00    +0.000 HD
BRANCH  17  20
ATOM     20  C   UNK A   1      -0.028  14.512  18.965  0.00  0.00    +0.000 A 
ATOM     21  N   UNK A   1      -0.773  13.393  18.739  0.00  0.00    +0.000 NA
ATOM     22  C   UNK A   0      -0.117  12.237  18.564  0.00  0.00    +0.000 A 
ATOM     23  C   UNK A   0      -0.840  11.065  18.401  0.00  0.00    +0.000 A 
ATOM     24  C   UNK A   0      -0.207   9.832  18.226  0.00  0.00    +0.000 A 
ATOM     25  C   UNK A   0       1.180   9.760  18.210  0.00  0.00    +0.000 A 
ATOM     26  C   UNK A   0       1.933  10.922  18.362  0.00  0.00    +0.000 A 
ATOM     27  C   UNK A   1       1.297  12.162  18.539  0.00  0.00    +0.000 A 
ATOM     28  C   UNK A   1       2.031  13.348  18.683  0.00  0.00    +0.000 A 
ATOM     29  C   UNK A   1       1.359  14.548  18.892  0.00  0.00    +0.000 A 
BRANCH  29  30
ATOM     30  O   UNK A   1       2.056  15.718  18.933  0.00  0.00    +0.000 OA
ATOM     31  H   UNK A   1       1.450  16.477  18.939  0.00  0.00    +0.000 HD
ENDBRANCH  29  30
ENDBRANCH  17  20
ENDBRANCH   9  16
BRANCH  14  32
ATOM     32  C   UNK A   1      -3.458  14.468  24.262  0.00  0.00    +0.000 C 
ATOM     33  O   UNK A   1      -4.081  15.345  23.686  0.00  0.00    +0.000 OA
BRANCH  32  34
ATOM     34  O   UNK A   1      -3.738  14.148  25.547  0.00  0.00    +0.000 OA
ATOM     35  H   UNK A   1      -3.269  14.647  26.234  0.00  0.00    +0.000 HD
ENDBRANCH  32  34
ENDBRANCH  14  32
TORSDOF 5
ENDMDL
MODEL 8
REMARK VINA RESULT:      -5.7      9.720     12.367
REMARK  Name = 
REMARK  6 active torsions:
REMARK  status: ('A' for Active; 'I' for Inactive)
REMARK    1  A    between atoms: C_1  and  N_2
REMARK    2  A    between atoms: C_9  and  N_10
REMARK    3  A    between atoms: C_11  and  C_13
REMARK    4  A    between atoms: C_22  and  O_23
REMARK    5  A    between atoms: C_28  and  C_29
REMARK    6  A    between atoms: C_29  and  O_31
REMARK                            x       y       z     vdW  Elec       q    Type
REMARK                         _______ _______ _______ _____ _____    ______ ____
ROOT
ATOM      1  C   UNK A   0       7.739  15.438  19.002  0.00  0.00    +0.000 C 
ATOM      2  N   UNK A   1       7.154  16.356  19.975  0.00  0.00    +0.000 N 
ATOM      3  C   UNK A   1       7.834  17.578  20.050  0.00  0.00    +0.000 C 
ATOM      4  O   UNK A   1       7.569  18.533  19.329  0.00  0.00    +0.000 OA
ATOM      5  C   UNK A   1       8.820  17.609  21.223  0.00  0.00    +0.000 C 
ATOM      6  N   UNK A   1       8.235  18.162  22.435  0.00  0.00    +0.000 N 
ATOM      7  C   UNK A   1       7.975  17.648  23.671  0.00  0.00    +0.000 C 
ATOM      8  O   UNK A   1       7.842  18.467  24.590  0.00  0.00    +0.000 OA
ATOM      9  C   UNK A   1       7.563  16.177  23.917  0.00  0.00    +0.000 C 
ATOM     10  C   UNK A   1       6.017  16.200  24.018  0.00  0.00    +0.000 C 
ATOM     11  S   UNK A   1       5.155  14.631  23.626  0.00  0.00    +0.000 S 
ATOM     12  S   UNK A   1       3.974  15.124  22.002  0.00  0.00    +0.000 S 
ATOM     13  C   UNK A   1       5.153  15.073  20.610  0.00  0.00    +0.000 C 
ATOM     14  C   UNK A   1       5.665  16.402  19.996  0.00  0.00    +0.000 C 
ATOM     15  H   UNK A   1       8.102  19.166  22.422  0.00  0.00    +0.000 HD
ENDROOT
BRANCH   9  16
ATOM     16  N   UNK A   1       8.100  15.222  22.966  0.00  0.00    +0.000 N 
ATOM     17  C   UNK A   1       8.656  14.025  23.374  0.00  0.00    +0.000 C 
ATOM     18  O   UNK A   1       8.752  13.692  24.547  0.00  0.00    +0.000 OA
ATOM     19  H   UNK A   1       8.066  15.417  21.977  0.00  0.00    +0.000 HD
BRANCH  17  20
ATOM     20  C   UNK A   1       9.190  13.188  22.252  0.00  0.00    +0.000 A 
ATOM     21  N   UNK A   1      10.017  13.847  21.392  0.00  0.00    +0.000 NA
ATOM     22  C   UNK A   0      10.459  13.174  20.319  0.00  0.00    +0.000 A 
ATOM     23  C   UNK A   0      11.246  13.829  19.385  0.00  0.00    +0.000 A 
ATOM     24  C   UNK A   0      11.723  13.179  18.244  0.00  0.00    +0.000 A 
ATOM     25  C   UNK A   0      11.414  11.842  18.027  0.00  0.00    +0.000 A 
ATOM     26  C   UNK A   0      10.633  11.155  18.954  0.00  0.00    +0.000 A 
ATOM     27  C   UNK A   1      10.152  11.809  20.100  0.00  0.00    +0.000 A 
ATOM     28  C   UNK A   1       9.373  11.138  21.053  0.00  0.00    +0.000 A 
ATOM     29  C   UNK A   1       8.888  11.835  22.155  0.00  0.00    +0.000 A 
BRANCH  29  30
ATOM     30  O   UNK A   1       8.216  11.171  23.137  0.00  0.00    +0.000 OA
ATOM     31  H   UNK A   1       7.803  10.366  22.785  0.00  0.00    +0.000 HD
ENDBRANCH  29  30
ENDBRANCH  17  20
ENDBRANCH   9  16
BRANCH  14  32
ATOM     32  C   UNK A   1       5.035  17.661  20.668  0.00  0.00    +0.000 C 
ATOM     33  O   UNK A   1       5.394  18.160  21.722  0.00  0.00    +0.000 OA
BRANCH  32  34
ATOM     34  O   UNK A   1       4.006  18.190  19.965  0.00  0.00    +0.000 OA
ATOM     35  H   UNK A   1       3.489  17.578  19.419  0.00  0.00    +0.000 HD
ENDBRANCH  32  34
ENDBRANCH  14  32
TORSDOF 5
ENDMDL
MODEL 9
REMARK VINA RESULT:      -5.7      2.481      3.994
REMARK  Name = 
REMARK  6 active torsions:
REMARK  status: ('A' for Active; 'I' for Inactive)
REMARK    1  A    between atoms: C_1  and  N_2
REMARK    2  A    between atoms: C_9  and  N_10
REMARK    3  A    between atoms: C_11  and  C_13
REMARK    4  A    between atoms: C_22  and  O_23
REMARK    5  A    between atoms: C_28  and  C_29
REMARK    6  A    between atoms: C_29  and  O_31
REMARK                            x       y       z     vdW  Elec       q    Type
REMARK                         _______ _______ _______ _____ _____    ______ ____
ROOT
ATOM      1  C   UNK A   0       1.119  14.158  18.328  0.00  0.00    +0.000 C 
ATOM      2  N   UNK A   1       1.081  15.193  19.358  0.00  0.00    +0.000 N 
ATOM      3  C   UNK A   1       2.076  15.033  20.330  0.00  0.00    +0.000 C 
ATOM      4  O   UNK A   1       3.200  15.507  20.216  0.00  0.00    +0.000 OA
ATOM      5  C   UNK A   1       1.538  14.337  21.585  0.00  0.00    +0.000 C 
ATOM      6  N   UNK A   1       1.074  15.278  22.594  0.00  0.00    +0.000 N 
ATOM      7  C   UNK A   1      -0.144  15.531  23.151  0.00  0.00    +0.000 C 
ATOM      8  O   UNK A   1      -0.139  16.107  24.247  0.00  0.00    +0.000 OA
ATOM      9  C   UNK A   1      -1.480  15.407  22.380  0.00  0.00    +0.000 C 
ATOM     10  C   UNK A   1      -1.815  16.846  21.915  0.00  0.00    +0.000 C 
ATOM     11  S   UNK A   1      -2.904  16.992  20.448  0.00  0.00    +0.000 S 
ATOM     12  S   UNK A   1      -1.723  17.985  19.070  0.00  0.00    +0.000 S 
ATOM     13  C   UNK A   1      -0.658  16.656  18.414  0.00  0.00    +0.000 C 
ATOM     14  C   UNK A   1       0.824  16.575  18.866  0.00  0.00    +0.000 C 
ATOM     15  H   UNK A   1       1.810  15.766  23.089  0.00  0.00    +0.000 HD
ENDROOT
BRANCH   9  16
ATOM     16  N   UNK A   1      -1.493  14.406  21.330  0.00  0.00    +0.000 N 
ATOM     17  C   UNK A   1      -1.747  13.075  21.598  0.00  0.00    +0.000 C 
ATOM     18  O   UNK A   1      -1.961  12.643  22.722  0.00  0.00    +0.000 OA
ATOM     19  H   UNK A   1      -1.322  14.674  20.372  0.00  0.00    +0.000 HD
BRANCH  17  20
ATOM     20  C   UNK A   1      -1.681  12.189  20.393  0.00  0.00    +0.000 A 
ATOM     21  N   UNK A   1      -2.684  12.378  19.489  0.00  0.00    +0.000 NA
ATOM     22  C   UNK A   0      -2.727  11.556  18.430  0.00  0.00    +0.000 A 
ATOM     23  C   UNK A   0      -3.771  11.671  17.525  0.00  0.00    +0.000 A 
ATOM     24  C   UNK A   0      -3.871  10.834  16.411  0.00  0.00    +0.000 A 
ATOM     25  C   UNK A   0      -2.907   9.859  16.187  0.00  0.00    +0.000 A 
ATOM     26  C   UNK A   0      -1.841   9.726  17.075  0.00  0.00    +0.000 A 
ATOM     27  C   UNK A   1      -1.742  10.567  18.196  0.00  0.00    +0.000 A 
ATOM     28  C   UNK A   1      -0.674  10.461  19.098  0.00  0.00    +0.000 A 
ATOM     29  C   UNK A   1      -0.635  11.291  20.214  0.00  0.00    +0.000 A 
BRANCH  29  30
ATOM     30  O   UNK A   1       0.446  11.266  21.042  0.00  0.00    +0.000 OA
ATOM     31  H   UNK A   1       0.170  11.120  21.961  0.00  0.00    +0.000 HD
ENDBRANCH  29  30
ENDBRANCH  17  20
ENDBRANCH   9  16
BRANCH  14  32
ATOM     32  C   UNK A   1       1.224  17.727  19.839  0.00  0.00    +0.000 C 
ATOM     33  O   UNK A   1       0.730  17.935  20.935  0.00  0.00    +0.000 OA
BRANCH  32  34
ATOM     34  O   UNK A   1       2.208  18.522  19.359  0.00  0.00    +0.000 OA
ATOM     35  H   UNK A   1       2.679  18.208  18.571  0.00  0.00    +0.000 HD
ENDBRANCH  32  34
ENDBRANCH  14  32
TORSDOF 5
ENDMDL
