MODEL 1
REMARK VINA RESULT:      -5.1      0.000      0.000
REMARK  Name = 
REMARK  10 active torsions:
REMARK  status: ('A' for Active; 'I' for Inactive)
REMARK    1  A    between atoms: C_1  and  O_2
REMARK    2  A    between atoms: O_2  and  C_3
REMARK    3  A    between atoms: C_3  and  C_4
REMARK    4  A    between atoms: C_4  and  N_5
REMARK    5  A    between atoms: N_7  and  O_8
REMARK    6  A    between atoms: N_9  and  C_10
REMARK    7  A    between atoms: C_10  and  C_11
REMARK    8  A    between atoms: C_11  and  C_12
REMARK    9  A    between atoms: C_12  and  C_13
REMARK   10  A    between atoms: C_13  and  N_14
REMARK                            x       y       z     vdW  Elec       q    Type
REMARK                         _______ _______ _______ _____ _____    ______ ____
ROOT
ATOM      1  N   UNL     1       4.578   5.736  18.194  0.00  0.00    +0.000 N 
ATOM      2  C   UNL     1       4.591   4.702  19.077  0.00  0.00    +0.000 C 
ATOM      3  N   UNL     1       5.294   3.638  18.858  0.00  0.00    +0.000 NA
ATOM      4  N   UNL     1       3.729   4.936  20.125  0.00  0.00    +0.000 N 
ATOM      5  H   UNL     1       4.611   6.662  18.592  0.00  0.00    +0.000 HD
ATOM      6  H   UNL     1       3.626   4.093  20.693  0.00  0.00    +0.000 HD
ENDROOT
BRANCH   3   7
ATOM      7  O   UNL     1       5.127   2.660  19.851  0.00  0.00    +0.000 OA
ATOM      8  H   UNL     1       4.186   2.791  20.076  0.00  0.00    +0.000 HD
ENDBRANCH   3   7
BRANCH   1   9
ATOM      9  C   UNL     1       5.134   5.632  16.864  0.00  0.00    +0.000 C 
BRANCH   9  10
ATOM     10  C   UNL     1       6.530   6.260  16.859  0.00  0.00    +0.000 C 
BRANCH  10  12
ATOM     11  C   UNL     1       7.048   4.709  15.161  0.00  0.00    +0.000 C 
ATOM     12  O   UNL     1       7.481   5.302  16.377  0.00  0.00    +0.000 OA
ENDBRANCH  10  12
ENDBRANCH   9  10
ENDBRANCH   1   9
BRANCH   4  13
ATOM     13  C   UNL     1       2.514   5.723  19.937  0.00  0.00    +0.000 C 
BRANCH  13  14
ATOM     14  C   UNL     1       1.297   5.113  20.610  0.00  0.00    +0.000 C 
BRANCH  14  15
ATOM     15  C   UNL     1       1.184   3.615  20.317  0.00  0.00    +0.000 C 
BRANCH  15  16
ATOM     16  C   UNL     1       1.354   2.748  21.558  0.00  0.00    +0.000 C 
BRANCH  16  17
ATOM     17  N   UNL     1       2.763   2.526  21.864  0.00  0.00    +0.000 NA
ATOM     18  H   UNL     1       2.936   1.527  21.953  0.00  0.00    +0.000 HD
ATOM     19  H   UNL     1       2.978   2.936  22.772  0.00  0.00    +0.000 HD
ENDBRANCH  16  17
ENDBRANCH  15  16
ENDBRANCH  14  15
ENDBRANCH  13  14
ENDBRANCH   4  13
TORSDOF 9
ENDMDL
MODEL 2
REMARK VINA RESULT:      -5.1      2.194      5.223
REMARK  Name = 
REMARK  10 active torsions:
REMARK  status: ('A' for Active; 'I' for Inactive)
REMARK    1  A    between atoms: C_1  and  O_2
REMARK    2  A    between atoms: O_2  and  C_3
REMARK    3  A    between atoms: C_3  and  C_4
REMARK    4  A    between atoms: C_4  and  N_5
REMARK    5  A    between atoms: N_7  and  O_8
REMARK    6  A    between atoms: N_9  and  C_10
REMARK    7  A    between atoms: C_10  and  C_11
REMARK    8  A    between atoms: C_11  and  C_12
REMARK    9  A    between atoms: C_12  and  C_13
REMARK   10  A    between atoms: C_13  and  N_14
REMARK                            x       y       z     vdW  Elec       q    Type
REMARK                         _______ _______ _______ _____ _____    ______ ____
ROOT
ATOM      1  N   UNL     1       3.861   4.639  18.756  0.00  0.00    +0.000 N 
ATOM      2  C   UNL     1       4.679   3.645  19.193  0.00  0.00    +0.000 C 
ATOM      3  N   UNL     1       4.201   2.569  19.731  0.00  0.00    +0.000 NA
ATOM      4  N   UNL     1       6.003   3.992  19.047  0.00  0.00    +0.000 N 
ATOM      5  H   UNL     1       4.110   5.065  17.876  0.00  0.00    +0.000 HD
ATOM      6  H   UNL     1       6.600   3.313  19.521  0.00  0.00    +0.000 HD
ENDROOT
BRANCH   3   7
ATOM      7  O   UNL     1       5.202   1.690  20.174  0.00  0.00    +0.000 OA
ATOM      8  H   UNL     1       5.970   2.293  20.200  0.00  0.00    +0.000 HD
ENDBRANCH   3   7
BRANCH   1   9
ATOM      9  C   UNL     1       2.451   4.686  19.070  0.00  0.00    +0.000 C 
BRANCH   9  10
ATOM     10  C   UNL     1       1.649   4.398  17.799  0.00  0.00    +0.000 C 
BRANCH  10  12
ATOM     11  C   UNL     1       0.768   2.451  18.792  0.00  0.00    +0.000 C 
ATOM     12  O   UNL     1       1.453   2.985  17.667  0.00  0.00    +0.000 OA
ENDBRANCH  10  12
ENDBRANCH   9  10
ENDBRANCH   1   9
BRANCH   4  13
ATOM     13  C   UNL     1       6.428   5.385  19.143  0.00  0.00    +0.000 C 
BRANCH  13  14
ATOM     14  C   UNL     1       7.426   5.779  18.067  0.00  0.00    +0.000 C 
BRANCH  14  15
ATOM     15  C   UNL     1       6.722   6.241  16.789  0.00  0.00    +0.000 C 
BRANCH  15  16
ATOM     16  C   UNL     1       6.652   5.159  15.720  0.00  0.00    +0.000 C 
BRANCH  16  17
ATOM     17  N   UNL     1       5.446   4.350  15.858  0.00  0.00    +0.000 NA
ATOM     18  H   UNL     1       4.914   4.385  14.991  0.00  0.00    +0.000 HD
ATOM     19  H   UNL     1       4.850   4.758  16.577  0.00  0.00    +0.000 HD
ENDBRANCH  16  17
ENDBRANCH  15  16
ENDBRANCH  14  15
ENDBRANCH  13  14
ENDBRANCH   4  13
TORSDOF 9
ENDMDL
MODEL 3
REMARK VINA RESULT:      -5.0      1.366      1.729
REMARK  Name = 
REMARK  10 active torsions:
REMARK  status: ('A' for Active; 'I' for Inactive)
REMARK    1  A    between atoms: C_1  and  O_2
REMARK    2  A    between atoms: O_2  and  C_3
REMARK    3  A    between atoms: C_3  and  C_4
REMARK    4  A    between atoms: C_4  and  N_5
REMARK    5  A    between atoms: N_7  and  O_8
REMARK    6  A    between atoms: N_9  and  C_10
REMARK    7  A    between atoms: C_10  and  C_11
REMARK    8  A    between atoms: C_11  and  C_12
REMARK    9  A    between atoms: C_12  and  C_13
REMARK   10  A    between atoms: C_13  and  N_14
REMARK                            x       y       z     vdW  Elec       q    Type
REMARK                         _______ _______ _______ _____ _____    ______ ____
ROOT
ATOM      1  N   UNL     1       4.267   5.648  18.358  0.00  0.00    +0.000 N 
ATOM      2  C   UNL     1       4.370   4.530  19.125  0.00  0.00    +0.000 C 
ATOM      3  N   UNL     1       5.269   3.630  18.887  0.00  0.00    +0.000 NA
ATOM      4  N   UNL     1       3.375   4.490  20.077  0.00  0.00    +0.000 N 
ATOM      5  H   UNL     1       4.094   6.511  18.849  0.00  0.00    +0.000 HD
ATOM      6  H   UNL     1       3.364   3.579  20.538  0.00  0.00    +0.000 HD
ENDROOT
BRANCH   3   7
ATOM      7  O   UNL     1       5.175   2.525  19.747  0.00  0.00    +0.000 OA
ATOM      8  H   UNL     1       4.239   2.276  19.617  0.00  0.00    +0.000 HD
ENDBRANCH   3   7
BRANCH   1   9
ATOM      9  C   UNL     1       4.968   5.799  17.103  0.00  0.00    +0.000 C 
BRANCH   9  10
ATOM     10  C   UNL     1       6.043   6.878  17.261  0.00  0.00    +0.000 C 
BRANCH  10  12
ATOM     11  C   UNL     1       7.781   6.213  18.708  0.00  0.00    +0.000 C 
ATOM     12  O   UNL     1       7.331   6.257  17.361  0.00  0.00    +0.000 OA
ENDBRANCH  10  12
ENDBRANCH   9  10
ENDBRANCH   1   9
BRANCH   4  13
ATOM     13  C   UNL     1       2.068   5.085  19.821  0.00  0.00    +0.000 C 
BRANCH  13  14
ATOM     14  C   UNL     1       0.916   4.246  20.349  0.00  0.00    +0.000 C 
BRANCH  14  15
ATOM     15  C   UNL     1       1.212   2.750  20.233  0.00  0.00    +0.000 C 
BRANCH  15  16
ATOM     16  C   UNL     1       1.182   2.244  18.796  0.00  0.00    +0.000 C 
BRANCH  16  17
ATOM     17  N   UNL     1       2.486   1.737  18.383  0.00  0.00    +0.000 NA
ATOM     18  H   UNL     1       3.012   2.484  17.932  0.00  0.00    +0.000 HD
ATOM     19  H   UNL     1       2.357   1.013  17.678  0.00  0.00    +0.000 HD
ENDBRANCH  16  17
ENDBRANCH  15  16
ENDBRANCH  14  15
ENDBRANCH  13  14
ENDBRANCH   4  13
TORSDOF 9
ENDMDL
MODEL 4
REMARK VINA RESULT:      -5.0      2.168      5.043
REMARK  Name = 
REMARK  10 active torsions:
REMARK  status: ('A' for Active; 'I' for Inactive)
REMARK    1  A    between atoms: C_1  and  O_2
REMARK    2  A    between atoms: O_2  and  C_3
REMARK    3  A    between atoms: C_3  and  C_4
REMARK    4  A    between atoms: C_4  and  N_5
REMARK    5  A    between atoms: N_7  and  O_8
REMARK    6  A    between atoms: N_9  and  C_10
REMARK    7  A    between atoms: C_10  and  C_11
REMARK    8  A    between atoms: C_11  and  C_12
REMARK    9  A    between atoms: C_12  and  C_13
REMARK   10  A    between atoms: C_13  and  N_14
REMARK                            x       y       z     vdW  Elec       q    Type
REMARK                         _______ _______ _______ _____ _____    ______ ____
ROOT
ATOM      1  N   UNL     1       3.326   4.324  17.352  0.00  0.00    +0.000 N 
ATOM      2  C   UNL     1       4.286   3.608  17.994  0.00  0.00    +0.000 C 
ATOM      3  N   UNL     1       4.134   3.227  19.222  0.00  0.00    +0.000 NA
ATOM      4  N   UNL     1       5.396   3.440  17.195  0.00  0.00    +0.000 N 
ATOM      5  H   UNL     1       3.143   4.066  16.394  0.00  0.00    +0.000 HD
ATOM      6  H   UNL     1       6.165   3.044  17.738  0.00  0.00    +0.000 HD
ENDROOT
BRANCH   3   7
ATOM      7  O   UNL     1       5.259   2.555  19.727  0.00  0.00    +0.000 OA
ATOM      8  H   UNL     1       5.088   2.617  20.687  0.00  0.00    +0.000 HD
ENDBRANCH   3   7
BRANCH   1   9
ATOM      9  C   UNL     1       2.201   4.914  18.041  0.00  0.00    +0.000 C 
BRANCH   9  10
ATOM     10  C   UNL     1       2.529   6.372  18.372  0.00  0.00    +0.000 C 
BRANCH  10  12
ATOM     11  C   UNL     1       1.832   5.651  20.505  0.00  0.00    +0.000 C 
ATOM     12  O   UNL     1       2.705   6.512  19.787  0.00  0.00    +0.000 OA
ENDBRANCH  10  12
ENDBRANCH   9  10
ENDBRANCH   1   9
BRANCH   4  13
ATOM     13  C   UNL     1       5.770   4.450  16.210  0.00  0.00    +0.000 C 
BRANCH  13  14
ATOM     14  C   UNL     1       7.145   5.047  16.461  0.00  0.00    +0.000 C 
BRANCH  14  15
ATOM     15  C   UNL     1       7.079   6.211  17.452  0.00  0.00    +0.000 C 
BRANCH  15  16
ATOM     16  C   UNL     1       7.697   5.880  18.805  0.00  0.00    +0.000 C 
BRANCH  16  17
ATOM     17  N   UNL     1       6.733   5.232  19.687  0.00  0.00    +0.000 NA
ATOM     18  H   UNL     1       5.874   5.047  19.171  0.00  0.00    +0.000 HD
ATOM     19  H   UNL     1       6.483   5.872  20.439  0.00  0.00    +0.000 HD
ENDBRANCH  16  17
ENDBRANCH  15  16
ENDBRANCH  14  15
ENDBRANCH  13  14
ENDBRANCH   4  13
TORSDOF 9
ENDMDL
MODEL 5
REMARK VINA RESULT:      -5.0      2.357      5.815
REMARK  Name = 
REMARK  10 active torsions:
REMARK  status: ('A' for Active; 'I' for Inactive)
REMARK    1  A    between atoms: C_1  and  O_2
REMARK    2  A    between atoms: O_2  and  C_3
REMARK    3  A    between atoms: C_3  and  C_4
REMARK    4  A    between atoms: C_4  and  N_5
REMARK    5  A    between atoms: N_7  and  O_8
REMARK    6  A    between atoms: N_9  and  C_10
REMARK    7  A    between atoms: C_10  and  C_11
REMARK    8  A    between atoms: C_11  and  C_12
REMARK    9  A    between atoms: C_12  and  C_13
REMARK   10  A    between atoms: C_13  and  N_14
REMARK                            x       y       z     vdW  Elec       q    Type
REMARK                         _______ _______ _______ _____ _____    ______ ____
ROOT
ATOM      1  N   UNL     1       3.637   4.226  18.944  0.00  0.00    +0.000 N 
ATOM      2  C   UNL     1       4.545   3.251  19.220  0.00  0.00    +0.000 C 
ATOM      3  N   UNL     1       4.180   2.112  19.713  0.00  0.00    +0.000 NA
ATOM      4  N   UNL     1       5.828   3.687  18.975  0.00  0.00    +0.000 N 
ATOM      5  H   UNL     1       3.774   4.730  18.081  0.00  0.00    +0.000 HD
ATOM      6  H   UNL     1       6.505   3.011  19.334  0.00  0.00    +0.000 HD
ENDROOT
BRANCH   3   7
ATOM      7  O   UNL     1       5.265   1.264  19.987  0.00  0.00    +0.000 OA
ATOM      8  H   UNL     1       5.698   1.755  20.712  0.00  0.00    +0.000 HD
ENDBRANCH   3   7
BRANCH   1   9
ATOM      9  C   UNL     1       2.265   4.164  19.395  0.00  0.00    +0.000 C 
BRANCH   9  10
ATOM     10  C   UNL     1       2.152   4.887  20.740  0.00  0.00    +0.000 C 
BRANCH  10  12
ATOM     11  C   UNL     1       1.308   2.824  21.507  0.00  0.00    +0.000 C 
ATOM     12  O   UNL     1       2.159   3.924  21.801  0.00  0.00    +0.000 OA
ENDBRANCH  10  12
ENDBRANCH   9  10
ENDBRANCH   1   9
BRANCH   4  13
ATOM     13  C   UNL     1       6.188   5.092  19.140  0.00  0.00    +0.000 C 
BRANCH  13  14
ATOM     14  C   UNL     1       7.619   5.394  18.727  0.00  0.00    +0.000 C 
BRANCH  14  15
ATOM     15  C   UNL     1       7.883   6.900  18.679  0.00  0.00    +0.000 C 
BRANCH  15  16
ATOM     16  C   UNL     1       7.589   7.516  17.317  0.00  0.00    +0.000 C 
BRANCH  16  17
ATOM     17  N   UNL     1       7.430   6.490  16.292  0.00  0.00    +0.000 NA
ATOM     18  H   UNL     1       6.683   6.761  15.655  0.00  0.00    +0.000 HD
ATOM     19  H   UNL     1       7.130   5.621  16.731  0.00  0.00    +0.000 HD
ENDBRANCH  16  17
ENDBRANCH  15  16
ENDBRANCH  14  15
ENDBRANCH  13  14
ENDBRANCH   4  13
TORSDOF 9
ENDMDL
MODEL 6
REMARK VINA RESULT:      -5.0      2.379      5.145
REMARK  Name = 
REMARK  10 active torsions:
REMARK  status: ('A' for Active; 'I' for Inactive)
REMARK    1  A    between atoms: C_1  and  O_2
REMARK    2  A    between atoms: O_2  and  C_3
REMARK    3  A    between atoms: C_3  and  C_4
REMARK    4  A    between atoms: C_4  and  N_5
REMARK    5  A    between atoms: N_7  and  O_8
REMARK    6  A    between atoms: N_9  and  C_10
REMARK    7  A    between atoms: C_10  and  C_11
REMARK    8  A    between atoms: C_11  and  C_12
REMARK    9  A    between atoms: C_12  and  C_13
REMARK   10  A    between atoms: C_13  and  N_14
REMARK                            x       y       z     vdW  Elec       q    Type
REMARK                         _______ _______ _______ _____ _____    ______ ____
ROOT
ATOM      1  N   UNL     1       3.700   3.539  18.138  0.00  0.00    +0.000 N 
ATOM      2  C   UNL     1       4.571   2.958  19.005  0.00  0.00    +0.000 C 
ATOM      3  N   UNL     1       4.299   1.830  19.579  0.00  0.00    +0.000 NA
ATOM      4  N   UNL     1       5.673   3.758  19.210  0.00  0.00    +0.000 N 
ATOM      5  H   UNL     1       4.103   3.952  17.311  0.00  0.00    +0.000 HD
ATOM      6  H   UNL     1       6.238   3.391  19.977  0.00  0.00    +0.000 HD
ENDROOT
BRANCH   3   7
ATOM      7  O   UNL     1       5.292   1.425  20.485  0.00  0.00    +0.000 OA
ATOM      8  H   UNL     1       5.187   2.103  21.180  0.00  0.00    +0.000 HD
ENDBRANCH   3   7
BRANCH   1   9
ATOM      9  C   UNL     1       2.337   3.085  17.981  0.00  0.00    +0.000 C 
BRANCH   9  10
ATOM     10  C   UNL     1       1.421   3.951  18.849  0.00  0.00    +0.000 C 
BRANCH  10  12
ATOM     11  C   UNL     1       1.924   5.519  20.536  0.00  0.00    +0.000 C 
ATOM     12  O   UNL     1       2.086   5.181  19.165  0.00  0.00    +0.000 OA
ENDBRANCH  10  12
ENDBRANCH   9  10
ENDBRANCH   1   9
BRANCH   4  13
ATOM     13  C   UNL     1       5.568   5.212  19.142  0.00  0.00    +0.000 C 
BRANCH  13  14
ATOM     14  C   UNL     1       6.620   5.845  18.247  0.00  0.00    +0.000 C 
BRANCH  14  15
ATOM     15  C   UNL     1       7.443   4.786  17.511  0.00  0.00    +0.000 C 
BRANCH  15  16
ATOM     16  C   UNL     1       7.014   4.596  16.061  0.00  0.00    +0.000 C 
BRANCH  16  17
ATOM     17  N   UNL     1       6.013   3.542  15.936  0.00  0.00    +0.000 NA
ATOM     18  H   UNL     1       5.878   3.095  16.841  0.00  0.00    +0.000 HD
ATOM     19  H   UNL     1       6.363   2.819  15.309  0.00  0.00    +0.000 HD
ENDBRANCH  16  17
ENDBRANCH  15  16
ENDBRANCH  14  15
ENDBRANCH  13  14
ENDBRANCH   4  13
TORSDOF 9
ENDMDL
MODEL 7
REMARK VINA RESULT:      -5.0      2.916      3.507
REMARK  Name = 
REMARK  10 active torsions:
REMARK  status: ('A' for Active; 'I' for Inactive)
REMARK    1  A    between atoms: C_1  and  O_2
REMARK    2  A    between atoms: O_2  and  C_3
REMARK    3  A    between atoms: C_3  and  C_4
REMARK    4  A    between atoms: C_4  and  N_5
REMARK    5  A    between atoms: N_7  and  O_8
REMARK    6  A    between atoms: N_9  and  C_10
REMARK    7  A    between atoms: C_10  and  C_11
REMARK    8  A    between atoms: C_11  and  C_12
REMARK    9  A    between atoms: C_12  and  C_13
REMARK   10  A    between atoms: C_13  and  N_14
REMARK                            x       y       z     vdW  Elec       q    Type
REMARK                         _______ _______ _______ _____ _____    ______ ____
ROOT
ATOM      1  N   UNL     1       6.355   4.249  17.568  0.00  0.00    +0.000 N 
ATOM      2  C   UNL     1       5.903   4.119  16.292  0.00  0.00    +0.000 C 
ATOM      3  N   UNL     1       6.699   4.251  15.279  0.00  0.00    +0.000 NA
ATOM      4  N   UNL     1       4.541   3.915  16.267  0.00  0.00    +0.000 N 
ATOM      5  H   UNL     1       5.998   3.584  18.237  0.00  0.00    +0.000 HD
ATOM      6  H   UNL     1       4.192   3.978  15.310  0.00  0.00    +0.000 HD
ENDROOT
BRANCH   3   7
ATOM      7  O   UNL     1       6.034   4.143  14.047  0.00  0.00    +0.000 OA
ATOM      8  H   UNL     1       6.787   4.224  13.430  0.00  0.00    +0.000 HD
ENDBRANCH   3   7
BRANCH   1   9
ATOM      9  C   UNL     1       7.664   4.776  17.882  0.00  0.00    +0.000 C 
BRANCH   9  10
ATOM     10  C   UNL     1       7.535   5.772  19.036  0.00  0.00    +0.000 C 
BRANCH  10  12
ATOM     11  C   UNL     1       7.614   7.629  17.587  0.00  0.00    +0.000 C 
ATOM     12  O   UNL     1       8.221   6.985  18.699  0.00  0.00    +0.000 OA
ENDBRANCH  10  12
ENDBRANCH   9  10
ENDBRANCH   1   9
BRANCH   4  13
ATOM     13  C   UNL     1       3.679   4.488  17.295  0.00  0.00    +0.000 C 
BRANCH  13  14
ATOM     14  C   UNL     1       2.512   3.588  17.665  0.00  0.00    +0.000 C 
BRANCH  14  15
ATOM     15  C   UNL     1       2.988   2.292  18.324  0.00  0.00    +0.000 C 
BRANCH  15  16
ATOM     16  C   UNL     1       3.644   2.517  19.681  0.00  0.00    +0.000 C 
BRANCH  16  17
ATOM     17  N   UNL     1       5.070   2.216  19.640  0.00  0.00    +0.000 NA
ATOM     18  H   UNL     1       5.454   2.269  20.582  0.00  0.00    +0.000 HD
ATOM     19  H   UNL     1       5.549   2.931  19.095  0.00  0.00    +0.000 HD
ENDBRANCH  16  17
ENDBRANCH  15  16
ENDBRANCH  14  15
ENDBRANCH  13  14
ENDBRANCH   4  13
TORSDOF 9
ENDMDL
MODEL 8
REMARK VINA RESULT:      -5.0      2.038      5.569
REMARK  Name = 
REMARK  10 active torsions:
REMARK  status: ('A' for Active; 'I' for Inactive)
REMARK    1  A    between atoms: C_1  and  O_2
REMARK    2  A    between atoms: O_2  and  C_3
REMARK    3  A    between atoms: C_3  and  C_4
REMARK    4  A    between atoms: C_4  and  N_5
REMARK    5  A    between atoms: N_7  and  O_8
REMARK    6  A    between atoms: N_9  and  C_10
REMARK    7  A    between atoms: C_10  and  C_11
REMARK    8  A    between atoms: C_11  and  C_12
REMARK    9  A    between atoms: C_12  and  C_13
REMARK   10  A    between atoms: C_13  and  N_14
REMARK                            x       y       z     vdW  Elec       q    Type
REMARK                         _______ _______ _______ _____ _____    ______ ____
ROOT
ATOM      1  N   UNL     1       3.512   4.423  19.760  0.00  0.00    +0.000 N 
ATOM      2  C   UNL     1       4.383   3.389  19.618  0.00  0.00    +0.000 C 
ATOM      3  N   UNL     1       4.225   2.282  20.270  0.00  0.00    +0.000 NA
ATOM      4  N   UNL     1       5.425   3.731  18.785  0.00  0.00    +0.000 N 
ATOM      5  H   UNL     1       3.257   4.910  18.914  0.00  0.00    +0.000 HD
ATOM      6  H   UNL     1       6.149   3.011  18.813  0.00  0.00    +0.000 HD
ENDROOT
BRANCH   3   7
ATOM      7  O   UNL     1       5.260   1.362  20.038  0.00  0.00    +0.000 OA
ATOM      8  H   UNL     1       4.999   0.643  20.646  0.00  0.00    +0.000 HD
ENDBRANCH   3   7
BRANCH   1   9
ATOM      9  C   UNL     1       2.511   4.463  20.802  0.00  0.00    +0.000 C 
BRANCH   9  10
ATOM     10  C   UNL     1       1.131   4.247  20.175  0.00  0.00    +0.000 C 
BRANCH  10  12
ATOM     11  C   UNL     1       0.797   2.365  18.795  0.00  0.00    +0.000 C 
ATOM     12  O   UNL     1       0.841   2.844  20.133  0.00  0.00    +0.000 OA
ENDBRANCH  10  12
ENDBRANCH   9  10
ENDBRANCH   1   9
BRANCH   4  13
ATOM     13  C   UNL     1       5.903   5.107  18.707  0.00  0.00    +0.000 C 
BRANCH  13  14
ATOM     14  C   UNL     1       5.872   5.670  17.296  0.00  0.00    +0.000 C 
BRANCH  14  15
ATOM     15  C   UNL     1       5.398   4.625  16.284  0.00  0.00    +0.000 C 
BRANCH  15  16
ATOM     16  C   UNL     1       6.468   4.246  15.269  0.00  0.00    +0.000 C 
BRANCH  16  17
ATOM     17  N   UNL     1       7.455   5.308  15.113  0.00  0.00    +0.000 NA
ATOM     18  H   UNL     1       8.368   4.898  14.929  0.00  0.00    +0.000 HD
ATOM     19  H   UNL     1       7.541   5.818  15.991  0.00  0.00    +0.000 HD
ENDBRANCH  16  17
ENDBRANCH  15  16
ENDBRANCH  14  15
ENDBRANCH  13  14
ENDBRANCH   4  13
TORSDOF 9
ENDMDL
MODEL 9
REMARK VINA RESULT:      -4.9      1.623      1.880
REMARK  Name = 
REMARK  10 active torsions:
REMARK  status: ('A' for Active; 'I' for Inactive)
REMARK    1  A    between atoms: C_1  and  O_2
REMARK    2  A    between atoms: O_2  and  C_3
REMARK    3  A    between atoms: C_3  and  C_4
REMARK    4  A    between atoms: C_4  and  N_5
REMARK    5  A    between atoms: N_7  and  O_8
REMARK    6  A    between atoms: N_9  and  C_10
REMARK    7  A    between atoms: C_10  and  C_11
REMARK    8  A    between atoms: C_11  and  C_12
REMARK    9  A    between atoms: C_12  and  C_13
REMARK   10  A    between atoms: C_13  and  N_14
REMARK                            x       y       z     vdW  Elec       q    Type
REMARK                         _______ _______ _______ _____ _____    ______ ____
ROOT
ATOM      1  N   UNL     1       4.898   5.965  18.439  0.00  0.00    +0.000 N 
ATOM      2  C   UNL     1       4.743   4.798  19.120  0.00  0.00    +0.000 C 
ATOM      3  N   UNL     1       5.636   3.863  19.064  0.00  0.00    +0.000 NA
ATOM      4  N   UNL     1       3.527   4.759  19.766  0.00  0.00    +0.000 N 
ATOM      5  H   UNL     1       4.633   6.806  18.930  0.00  0.00    +0.000 HD
ATOM      6  H   UNL     1       3.355   3.824  20.137  0.00  0.00    +0.000 HD
ENDROOT
BRANCH   3   7
ATOM      7  O   UNL     1       5.267   2.714  19.781  0.00  0.00    +0.000 OA
ATOM      8  H   UNL     1       6.126   2.253  19.836  0.00  0.00    +0.000 HD
ENDBRANCH   3   7
BRANCH   1   9
ATOM      9  C   UNL     1       5.918   6.152  17.433  0.00  0.00    +0.000 C 
BRANCH   9  10
ATOM     10  C   UNL     1       5.248   6.254  16.060  0.00  0.00    +0.000 C 
BRANCH  10  12
ATOM     11  C   UNL     1       6.936   4.691  15.546  0.00  0.00    +0.000 C 
ATOM     12  O   UNL     1       6.144   5.764  15.054  0.00  0.00    +0.000 OA
ENDBRANCH  10  12
ENDBRANCH   9  10
ENDBRANCH   1   9
BRANCH   4  13
ATOM     13  C   UNL     1       2.363   5.446  19.215  0.00  0.00    +0.000 C 
BRANCH  13  14
ATOM     14  C   UNL     1       1.814   4.780  17.965  0.00  0.00    +0.000 C 
BRANCH  14  15
ATOM     15  C   UNL     1       1.406   3.330  18.234  0.00  0.00    +0.000 C 
BRANCH  15  16
ATOM     16  C   UNL     1       2.333   2.316  17.576  0.00  0.00    +0.000 C 
BRANCH  16  17
ATOM     17  N   UNL     1       3.045   1.522  18.570  0.00  0.00    +0.000 NA
ATOM     18  H   UNL     1       3.983   1.315  18.230  0.00  0.00    +0.000 HD
ATOM     19  H   UNL     1       2.576   0.625  18.683  0.00  0.00    +0.000 HD
ENDBRANCH  16  17
ENDBRANCH  15  16
ENDBRANCH  14  15
ENDBRANCH  13  14
ENDBRANCH   4  13
TORSDOF 9
ENDMDL
