MODEL 1
REMARK VINA RESULT:      -8.8      0.000      0.000
REMARK  Name = 
REMARK  9 active torsions:
REMARK  status: ('A' for Active; 'I' for Inactive)
REMARK    1  A    between atoms: C_1  and  O_2
REMARK    2  A    between atoms: O_2  and  C_3
REMARK    3  A    between atoms: C_6  and  S_7
REMARK    4  A    between atoms: S_7  and  C_10
REMARK    5  A    between atoms: C_10  and  C_11
REMARK    6  A    between atoms: N_13  and  O_14
REMARK    7  A    between atoms: N_17  and  C_18
REMARK    8  A    between atoms: C_18  and  C_19
REMARK    9  A    between atoms: C_22  and  C_23
REMARK                            x       y       z     vdW  Elec       q    Type
REMARK                         _______ _______ _______ _____ _____    ______ ____
ROOT
ATOM      1  C   UNL     1       3.595   3.945  19.178  0.00  0.00    +0.000 C 
ATOM      2  C   UNL     1       2.270   4.491  19.725  0.00  0.00    +0.000 C 
ATOM      3  C   UNL     1       1.771   5.841  19.212  0.00  0.00    +0.000 C 
ATOM      4  N   UNL     1       2.804   6.880  19.065  0.00  0.00    +0.000 NA
ATOM      5  C   UNL     1       3.984   6.348  18.377  0.00  0.00    +0.000 C 
ATOM      6  C   UNL     1       4.574   5.147  19.168  0.00  0.00    +0.000 C 
ENDROOT
BRANCH   1   7
ATOM      7  C   UNL     1       3.863   2.796  20.151  0.00  0.00    +0.000 C 
ATOM      8  O   UNL     1       3.074   2.531  21.068  0.00  0.00    +0.000 OA
ATOM      9  N   UNL     1       5.098   2.199  20.176  0.00  0.00    +0.000 N 
ATOM     10  H   UNL     1       5.934   2.588  19.723  0.00  0.00    +0.000 HD
BRANCH   9  11
ATOM     11  O   UNL     1       5.345   1.445  21.360  0.00  0.00    +0.000 OA
ATOM     12  H   UNL     1       5.286   0.515  21.037  0.00  0.00    +0.000 HD
ENDBRANCH   9  11
ENDBRANCH   1   7
BRANCH   1  13
ATOM     13  S   UNL     1       3.716   3.136  17.551  0.00  0.00    +0.000 S 
ATOM     14  O   UNL     1       2.566   3.611  16.770  0.00  0.00    +0.000 OA
ATOM     15  O   UNL     1       3.813   1.705  17.745  0.00  0.00    +0.000 OA
BRANCH  13  19
ATOM     16  C   UNL     1       7.079   4.936  15.039  0.00  0.00    +0.000 A 
ATOM     17  C   UNL     1       5.952   4.379  14.433  0.00  0.00    +0.000 A 
ATOM     18  C   UNL     1       4.988   3.698  15.188  0.00  0.00    +0.000 A 
ATOM     19  C   UNL     1       5.167   3.513  16.566  0.00  0.00    +0.000 A 
ATOM     20  C   UNL     1       6.327   4.031  17.168  0.00  0.00    +0.000 A 
ATOM     21  C   UNL     1       7.280   4.736  16.405  0.00  0.00    +0.000 A 
BRANCH  16  23
ATOM     22  C   UNL     1       7.879   5.261  12.820  0.00  0.00    +0.000 C 
ATOM     23  O   UNL     1       7.907   5.629  14.198  0.00  0.00    +0.000 OA
ENDBRANCH  16  23
ENDBRANCH  13  19
ENDBRANCH   1  13
BRANCH   4  24
ATOM     24  C   UNL     1       2.183   8.015  18.321  0.00  0.00    +0.000 C 
BRANCH  24  25
ATOM     25  C   UNL     1       1.357   9.002  19.122  0.00  0.00    +0.000 A 
ATOM     26  C   UNL     1       0.652  10.035  18.480  0.00  0.00    +0.000 A 
ATOM     27  C   UNL     1      -0.192  10.892  19.204  0.00  0.00    +0.000 A 
ATOM     28  C   UNL     1      -0.360  10.737  20.586  0.00  0.00    +0.000 A 
ATOM     29  C   UNL     1       0.360   9.711  21.222  0.00  0.00    +0.000 A 
ATOM     30  C   UNL     1       1.202   8.855  20.501  0.00  0.00    +0.000 A 
BRANCH  28  31
ATOM     31  C   UNL     1      -1.294  11.606  21.335  0.00  0.00    +0.000 A 
ATOM     32  C   UNL     1      -2.098  12.633  20.866  0.00  0.00    +0.000 A 
ATOM     33  C   UNL     1      -2.866  13.258  21.895  0.00  0.00    +0.000 A 
ATOM     34  C   UNL     1      -2.630  12.692  23.126  0.00  0.00    +0.000 A 
ATOM     35  S   UNL     1      -1.490  11.425  23.039  0.00  0.00    +0.000 S 
ENDBRANCH  28  31
ENDBRANCH  24  25
ENDBRANCH   4  24
TORSDOF 8
ENDMDL
MODEL 2
REMARK VINA RESULT:      -8.3      2.241      2.759
REMARK  Name = 
REMARK  9 active torsions:
REMARK  status: ('A' for Active; 'I' for Inactive)
REMARK    1  A    between atoms: C_1  and  O_2
REMARK    2  A    between atoms: O_2  and  C_3
REMARK    3  A    between atoms: C_6  and  S_7
REMARK    4  A    between atoms: S_7  and  C_10
REMARK    5  A    between atoms: C_10  and  C_11
REMARK    6  A    between atoms: N_13  and  O_14
REMARK    7  A    between atoms: N_17  and  C_18
REMARK    8  A    between atoms: C_18  and  C_19
REMARK    9  A    between atoms: C_22  and  C_23
REMARK                            x       y       z     vdW  Elec       q    Type
REMARK                         _______ _______ _______ _____ _____    ______ ____
ROOT
ATOM      1  C   UNL     1       2.816   4.089  19.549  0.00  0.00    +0.000 C 
ATOM      2  C   UNL     1       1.610   4.487  18.689  0.00  0.00    +0.000 C 
ATOM      3  C   UNL     1       1.677   5.796  17.903  0.00  0.00    +0.000 C 
ATOM      4  N   UNL     1       2.270   6.935  18.624  0.00  0.00    +0.000 NA
ATOM      5  C   UNL     1       3.518   6.539  19.285  0.00  0.00    +0.000 C 
ATOM      6  C   UNL     1       3.254   5.380  20.286  0.00  0.00    +0.000 C 
ENDROOT
BRANCH   1   7
ATOM      7  C   UNL     1       2.224   2.945  20.373  0.00  0.00    +0.000 C 
ATOM      8  O   UNL     1       1.489   2.091  19.857  0.00  0.00    +0.000 OA
ATOM      9  N   UNL     1       2.295   2.984  21.743  0.00  0.00    +0.000 N 
ATOM     10  H   UNL     1       2.547   3.822  22.281  0.00  0.00    +0.000 HD
BRANCH   9  11
ATOM     11  O   UNL     1       1.383   2.099  22.389  0.00  0.00    +0.000 OA
ATOM     12  H   UNL     1       1.220   2.551  23.250  0.00  0.00    +0.000 HD
ENDBRANCH   9  11
ENDBRANCH   1   7
BRANCH   1  13
ATOM     13  S   UNL     1       4.315   3.341  18.835  0.00  0.00    +0.000 S 
ATOM     14  O   UNL     1       3.862   2.498  17.720  0.00  0.00    +0.000 OA
ATOM     15  O   UNL     1       5.051   2.671  19.886  0.00  0.00    +0.000 OA
BRANCH  13  19
ATOM     16  C   UNL     1       6.869   6.846  17.405  0.00  0.00    +0.000 A 
ATOM     17  C   UNL     1       5.872   6.307  16.590  0.00  0.00    +0.000 A 
ATOM     18  C   UNL     1       5.185   5.144  16.962  0.00  0.00    +0.000 A 
ATOM     19  C   UNL     1       5.527   4.464  18.140  0.00  0.00    +0.000 A 
ATOM     20  C   UNL     1       6.566   4.980  18.935  0.00  0.00    +0.000 A 
ATOM     21  C   UNL     1       7.235   6.164  18.565  0.00  0.00    +0.000 A 
BRANCH  16  23
ATOM     22  C   UNL     1       8.116   8.810  17.913  0.00  0.00    +0.000 C 
ATOM     23  O   UNL     1       7.415   8.018  16.956  0.00  0.00    +0.000 OA
ENDBRANCH  16  23
ENDBRANCH  13  19
ENDBRANCH   1  13
BRANCH   4  24
ATOM     24  C   UNL     1       2.484   8.024  17.626  0.00  0.00    +0.000 C 
BRANCH  24  25
ATOM     25  C   UNL     1       1.856   9.371  17.924  0.00  0.00    +0.000 A 
ATOM     26  C   UNL     1       0.518   9.461  18.345  0.00  0.00    +0.000 A 
ATOM     27  C   UNL     1      -0.041  10.694  18.716  0.00  0.00    +0.000 A 
ATOM     28  C   UNL     1       0.721  11.868  18.684  0.00  0.00    +0.000 A 
ATOM     29  C   UNL     1       2.053  11.771  18.248  0.00  0.00    +0.000 A 
ATOM     30  C   UNL     1       2.613  10.542  17.878  0.00  0.00    +0.000 A 
BRANCH  28  31
ATOM     31  C   UNL     1       0.145  13.156  19.130  0.00  0.00    +0.000 A 
ATOM     32  C   UNL     1       0.592  14.445  18.881  0.00  0.00    +0.000 A 
ATOM     33  C   UNL     1      -0.224  15.447  19.488  0.00  0.00    +0.000 A 
ATOM     34  C   UNL     1      -1.275  14.900  20.185  0.00  0.00    +0.000 A 
ATOM     35  S   UNL     1      -1.271  13.194  20.111  0.00  0.00    +0.000 S 
ENDBRANCH  28  31
ENDBRANCH  24  25
ENDBRANCH   4  24
TORSDOF 8
ENDMDL
MODEL 3
REMARK VINA RESULT:      -8.2      1.985      2.412
REMARK  Name = 
REMARK  9 active torsions:
REMARK  status: ('A' for Active; 'I' for Inactive)
REMARK    1  A    between atoms: C_1  and  O_2
REMARK    2  A    between atoms: O_2  and  C_3
REMARK    3  A    between atoms: C_6  and  S_7
REMARK    4  A    between atoms: S_7  and  C_10
REMARK    5  A    between atoms: C_10  and  C_11
REMARK    6  A    between atoms: N_13  and  O_14
REMARK    7  A    between atoms: N_17  and  C_18
REMARK    8  A    between atoms: C_18  and  C_19
REMARK    9  A    between atoms: C_22  and  C_23
REMARK                            x       y       z     vdW  Elec       q    Type
REMARK                         _______ _______ _______ _____ _____    ______ ____
ROOT
ATOM      1  C   UNL     1       2.740   3.928  19.595  0.00  0.00    +0.000 C 
ATOM      2  C   UNL     1       1.519   4.354  18.770  0.00  0.00    +0.000 C 
ATOM      3  C   UNL     1       1.568   5.693  18.036  0.00  0.00    +0.000 C 
ATOM      4  N   UNL     1       2.167   6.806  18.792  0.00  0.00    +0.000 NA
ATOM      5  C   UNL     1       3.426   6.391  19.418  0.00  0.00    +0.000 C 
ATOM      6  C   UNL     1       3.183   5.192  20.376  0.00  0.00    +0.000 C 
ENDROOT
BRANCH   1   7
ATOM      7  C   UNL     1       2.166   2.750  20.382  0.00  0.00    +0.000 C 
ATOM      8  O   UNL     1       1.319   1.995  19.886  0.00  0.00    +0.000 OA
ATOM      9  N   UNL     1       2.396   2.655  21.732  0.00  0.00    +0.000 N 
ATOM     10  H   UNL     1       2.767   3.421  22.306  0.00  0.00    +0.000 HD
BRANCH   9  11
ATOM     11  O   UNL     1       1.503   1.769  22.403  0.00  0.00    +0.000 OA
ATOM     12  H   UNL     1       0.965   1.406  21.661  0.00  0.00    +0.000 HD
ENDBRANCH   9  11
ENDBRANCH   1   7
BRANCH   1  13
ATOM     13  S   UNL     1       4.231   3.217  18.829  0.00  0.00    +0.000 S 
ATOM     14  O   UNL     1       3.780   2.056  18.051  0.00  0.00    +0.000 OA
ATOM     15  O   UNL     1       5.210   2.954  19.863  0.00  0.00    +0.000 OA
BRANCH  13  19
ATOM     16  C   UNL     1       6.834   5.095  15.580  0.00  0.00    +0.000 A 
ATOM     17  C   UNL     1       7.331   4.897  16.869  0.00  0.00    +0.000 A 
ATOM     18  C   UNL     1       6.496   4.457  17.905  0.00  0.00    +0.000 A 
ATOM     19  C   UNL     1       5.126   4.261  17.677  0.00  0.00    +0.000 A 
ATOM     20  C   UNL     1       4.617   4.510  16.391  0.00  0.00    +0.000 A 
ATOM     21  C   UNL     1       5.469   4.929  15.349  0.00  0.00    +0.000 A 
BRANCH  16  23
ATOM     22  C   UNL     1       7.555   5.014  13.312  0.00  0.00    +0.000 C 
ATOM     23  O   UNL     1       7.768   5.463  14.649  0.00  0.00    +0.000 OA
ENDBRANCH  16  23
ENDBRANCH  13  19
ENDBRANCH   1  13
BRANCH   4  24
ATOM     24  C   UNL     1       2.360   7.935  17.835  0.00  0.00    +0.000 C 
BRANCH  24  25
ATOM     25  C   UNL     1       1.986   9.323  18.315  0.00  0.00    +0.000 A 
ATOM     26  C   UNL     1       2.542  10.465  17.712  0.00  0.00    +0.000 A 
ATOM     27  C   UNL     1       2.128  11.753  18.085  0.00  0.00    +0.000 A 
ATOM     28  C   UNL     1       1.144  11.937  19.064  0.00  0.00    +0.000 A 
ATOM     29  C   UNL     1       0.605  10.791  19.673  0.00  0.00    +0.000 A 
ATOM     30  C   UNL     1       1.016   9.505  19.301  0.00  0.00    +0.000 A 
BRANCH  28  31
ATOM     31  C   UNL     1       0.671  13.294  19.414  0.00  0.00    +0.000 A 
ATOM     32  C   UNL     1      -0.205  14.118  18.724  0.00  0.00    +0.000 A 
ATOM     33  C   UNL     1      -0.422  15.372  19.370  0.00  0.00    +0.000 A 
ATOM     34  C   UNL     1       0.294  15.476  20.540  0.00  0.00    +0.000 A 
ATOM     35  S   UNL     1       1.220  14.076  20.848  0.00  0.00    +0.000 S 
ENDBRANCH  28  31
ENDBRANCH  24  25
ENDBRANCH   4  24
TORSDOF 8
ENDMDL
MODEL 4
REMARK VINA RESULT:      -7.9      5.957     11.704
REMARK  Name = 
REMARK  9 active torsions:
REMARK  status: ('A' for Active; 'I' for Inactive)
REMARK    1  A    between atoms: C_1  and  O_2
REMARK    2  A    between atoms: O_2  and  C_3
REMARK    3  A    between atoms: C_6  and  S_7
REMARK    4  A    between atoms: S_7  and  C_10
REMARK    5  A    between atoms: C_10  and  C_11
REMARK    6  A    between atoms: N_13  and  O_14
REMARK    7  A    between atoms: N_17  and  C_18
REMARK    8  A    between atoms: C_18  and  C_19
REMARK    9  A    between atoms: C_22  and  C_23
REMARK                            x       y       z     vdW  Elec       q    Type
REMARK                         _______ _______ _______ _____ _____    ______ ____
ROOT
ATOM      1  C   UNL     1       0.651  14.865  19.949  0.00  0.00    +0.000 C 
ATOM      2  C   UNL     1      -0.384  14.185  19.045  0.00  0.00    +0.000 C 
ATOM      3  C   UNL     1      -0.574  12.673  19.165  0.00  0.00    +0.000 C 
ATOM      4  N   UNL     1       0.665  11.891  19.310  0.00  0.00    +0.000 NA
ATOM      5  C   UNL     1       1.545  12.492  20.318  0.00  0.00    +0.000 C 
ATOM      6  C   UNL     1       1.903  13.951  19.920  0.00  0.00    +0.000 C 
ENDROOT
BRANCH   1   7
ATOM      7  C   UNL     1       0.744  16.247  19.300  0.00  0.00    +0.000 C 
ATOM      8  O   UNL     1      -0.083  16.620  18.457  0.00  0.00    +0.000 OA
ATOM      9  N   UNL     1       1.881  16.999  19.458  0.00  0.00    +0.000 N 
ATOM     10  H   UNL     1       2.768  16.630  19.822  0.00  0.00    +0.000 HD
BRANCH   9  11
ATOM     11  O   UNL     1       2.006  18.052  18.506  0.00  0.00    +0.000 OA
ATOM     12  H   UNL     1       1.813  18.853  19.047  0.00  0.00    +0.000 HD
ENDBRANCH   9  11
ENDBRANCH   1   7
BRANCH   1  13
ATOM     13  S   UNL     1       0.309  15.258  21.694  0.00  0.00    +0.000 S 
ATOM     14  O   UNL     1       0.054  16.703  21.747  0.00  0.00    +0.000 OA
ATOM     15  O   UNL     1       1.403  14.770  22.507  0.00  0.00    +0.000 OA
BRANCH  13  19
ATOM     16  C   UNL     1      -3.488  12.949  22.744  0.00  0.00    +0.000 A 
ATOM     17  C   UNL     1      -3.550  14.284  22.344  0.00  0.00    +0.000 A 
ATOM     18  C   UNL     1      -2.384  15.038  22.161  0.00  0.00    +0.000 A 
ATOM     19  C   UNL     1      -1.127  14.479  22.433  0.00  0.00    +0.000 A 
ATOM     20  C   UNL     1      -1.068  13.148  22.885  0.00  0.00    +0.000 A 
ATOM     21  C   UNL     1      -2.246  12.390  23.043  0.00  0.00    +0.000 A 
BRANCH  16  23
ATOM     22  C   UNL     1      -5.668  12.650  21.835  0.00  0.00    +0.000 C 
ATOM     23  O   UNL     1      -4.696  12.310  22.822  0.00  0.00    +0.000 OA
ENDBRANCH  16  23
ENDBRANCH  13  19
ENDBRANCH   1  13
BRANCH   4  24
ATOM     24  C   UNL     1       0.267  10.498  19.671  0.00  0.00    +0.000 C 
BRANCH  24  25
ATOM     25  C   UNL     1       1.199   9.379  19.251  0.00  0.00    +0.000 A 
ATOM     26  C   UNL     1       1.453   8.296  20.110  0.00  0.00    +0.000 A 
ATOM     27  C   UNL     1       2.236   7.210  19.691  0.00  0.00    +0.000 A 
ATOM     28  C   UNL     1       2.781   7.171  18.402  0.00  0.00    +0.000 A 
ATOM     29  C   UNL     1       2.535   8.264  17.555  0.00  0.00    +0.000 A 
ATOM     30  C   UNL     1       1.753   9.349  17.970  0.00  0.00    +0.000 A 
BRANCH  28  31
ATOM     31  C   UNL     1       3.559   5.998  17.945  0.00  0.00    +0.000 A 
ATOM     32  C   UNL     1       3.439   4.670  18.324  0.00  0.00    +0.000 A 
ATOM     33  C   UNL     1       4.377   3.814  17.670  0.00  0.00    +0.000 A 
ATOM     34  C   UNL     1       5.191   4.510  16.807  0.00  0.00    +0.000 A 
ATOM     35  S   UNL     1       4.828   6.178  16.792  0.00  0.00    +0.000 S 
ENDBRANCH  28  31
ENDBRANCH  24  25
ENDBRANCH   4  24
TORSDOF 8
ENDMDL
MODEL 5
REMARK VINA RESULT:      -7.9      5.867     11.730
REMARK  Name = 
REMARK  9 active torsions:
REMARK  status: ('A' for Active; 'I' for Inactive)
REMARK    1  A    between atoms: C_1  and  O_2
REMARK    2  A    between atoms: O_2  and  C_3
REMARK    3  A    between atoms: C_6  and  S_7
REMARK    4  A    between atoms: S_7  and  C_10
REMARK    5  A    between atoms: C_10  and  C_11
REMARK    6  A    between atoms: N_13  and  O_14
REMARK    7  A    between atoms: N_17  and  C_18
REMARK    8  A    between atoms: C_18  and  C_19
REMARK    9  A    between atoms: C_22  and  C_23
REMARK                            x       y       z     vdW  Elec       q    Type
REMARK                         _______ _______ _______ _____ _____    ______ ____
ROOT
ATOM      1  C   UNL     1       0.440  14.500  19.825  0.00  0.00    +0.000 C 
ATOM      2  C   UNL     1      -0.574  13.631  19.070  0.00  0.00    +0.000 C 
ATOM      3  C   UNL     1      -0.600  12.129  19.355  0.00  0.00    +0.000 C 
ATOM      4  N   UNL     1       0.719  11.489  19.488  0.00  0.00    +0.000 NA
ATOM      5  C   UNL     1       1.593  12.275  20.365  0.00  0.00    +0.000 C 
ATOM      6  C   UNL     1       1.774  13.711  19.798  0.00  0.00    +0.000 C 
ENDROOT
BRANCH   1   7
ATOM      7  C   UNL     1       0.351  15.806  19.037  0.00  0.00    +0.000 C 
ATOM      8  O   UNL     1       1.360  16.483  18.794  0.00  0.00    +0.000 OA
ATOM      9  N   UNL     1      -0.874  16.377  18.798  0.00  0.00    +0.000 N 
ATOM     10  H   UNL     1      -1.740  16.098  19.275  0.00  0.00    +0.000 HD
BRANCH   9  11
ATOM     11  O   UNL     1      -0.802  17.750  18.424  0.00  0.00    +0.000 OA
ATOM     12  H   UNL     1      -1.655  17.887  17.947  0.00  0.00    +0.000 HD
ENDBRANCH   9  11
ENDBRANCH   1   7
BRANCH   1  13
ATOM     13  S   UNL     1       0.168  15.041  21.542  0.00  0.00    +0.000 S 
ATOM     14  O   UNL     1      -0.099  16.484  21.480  0.00  0.00    +0.000 OA
ATOM     15  O   UNL     1       1.299  14.633  22.348  0.00  0.00    +0.000 OA
BRANCH  13  19
ATOM     16  C   UNL     1      -3.605  12.875  22.932  0.00  0.00    +0.000 A 
ATOM     17  C   UNL     1      -3.657  14.206  22.513  0.00  0.00    +0.000 A 
ATOM     18  C   UNL     1      -2.485  14.918  22.225  0.00  0.00    +0.000 A 
ATOM     19  C   UNL     1      -1.229  14.321  22.406  0.00  0.00    +0.000 A 
ATOM     20  C   UNL     1      -1.176  12.997  22.876  0.00  0.00    +0.000 A 
ATOM     21  C   UNL     1      -2.361  12.280  23.141  0.00  0.00    +0.000 A 
BRANCH  16  23
ATOM     22  C   UNL     1      -5.964  12.980  22.628  0.00  0.00    +0.000 C 
ATOM     23  O   UNL     1      -4.823  12.278  23.117  0.00  0.00    +0.000 OA
ENDBRANCH  16  23
ENDBRANCH  13  19
ENDBRANCH   1  13
BRANCH   4  24
ATOM     24  C   UNL     1       0.488  10.111  20.013  0.00  0.00    +0.000 C 
BRANCH  24  25
ATOM     25  C   UNL     1       1.385   9.008  19.486  0.00  0.00    +0.000 A 
ATOM     26  C   UNL     1       1.636   7.859  20.255  0.00  0.00    +0.000 A 
ATOM     27  C   UNL     1       2.384   6.791  19.735  0.00  0.00    +0.000 A 
ATOM     28  C   UNL     1       2.896   6.839  18.433  0.00  0.00    +0.000 A 
ATOM     29  C   UNL     1       2.653   7.997  17.676  0.00  0.00    +0.000 A 
ATOM     30  C   UNL     1       1.906   9.063  18.193  0.00  0.00    +0.000 A 
BRANCH  28  31
ATOM     31  C   UNL     1       3.636   5.688  17.869  0.00  0.00    +0.000 A 
ATOM     32  C   UNL     1       4.514   5.656  16.797  0.00  0.00    +0.000 A 
ATOM     33  C   UNL     1       5.034   4.352  16.537  0.00  0.00    +0.000 A 
ATOM     34  C   UNL     1       4.540   3.418  17.418  0.00  0.00    +0.000 A 
ATOM     35  S   UNL     1       3.457   4.111  18.542  0.00  0.00    +0.000 S 
ENDBRANCH  28  31
ENDBRANCH  24  25
ENDBRANCH   4  24
TORSDOF 8
ENDMDL
MODEL 6
REMARK VINA RESULT:      -7.8      5.828     11.470
REMARK  Name = 
REMARK  9 active torsions:
REMARK  status: ('A' for Active; 'I' for Inactive)
REMARK    1  A    between atoms: C_1  and  O_2
REMARK    2  A    between atoms: O_2  and  C_3
REMARK    3  A    between atoms: C_6  and  S_7
REMARK    4  A    between atoms: S_7  and  C_10
REMARK    5  A    between atoms: C_10  and  C_11
REMARK    6  A    between atoms: N_13  and  O_14
REMARK    7  A    between atoms: N_17  and  C_18
REMARK    8  A    between atoms: C_18  and  C_19
REMARK    9  A    between atoms: C_22  and  C_23
REMARK                            x       y       z     vdW  Elec       q    Type
REMARK                         _______ _______ _______ _____ _____    ______ ____
ROOT
ATOM      1  C   UNL     1       0.799  14.688  19.504  0.00  0.00    +0.000 C 
ATOM      2  C   UNL     1      -0.380  14.176  18.668  0.00  0.00    +0.000 C 
ATOM      3  C   UNL     1      -0.690  12.679  18.686  0.00  0.00    +0.000 C 
ATOM      4  N   UNL     1       0.483  11.791  18.629  0.00  0.00    +0.000 NA
ATOM      5  C   UNL     1       1.512  12.227  19.578  0.00  0.00    +0.000 C 
ATOM      6  C   UNL     1       1.955  13.683  19.263  0.00  0.00    +0.000 C 
ENDROOT
BRANCH   1   7
ATOM      7  C   UNL     1       0.947  16.110  18.963  0.00  0.00    +0.000 C 
ATOM      8  O   UNL     1       0.039  16.652  18.317  0.00  0.00    +0.000 OA
ATOM      9  N   UNL     1       2.177  16.718  18.972  0.00  0.00    +0.000 N 
ATOM     10  H   UNL     1       3.061  16.223  19.137  0.00  0.00    +0.000 HD
BRANCH   9  11
ATOM     11  O   UNL     1       2.264  17.844  18.101  0.00  0.00    +0.000 OA
ATOM     12  H   UNL     1       1.600  18.463  18.486  0.00  0.00    +0.000 HD
ENDBRANCH   9  11
ENDBRANCH   1   7
BRANCH   1  13
ATOM     13  S   UNL     1       0.676  14.947  21.302  0.00  0.00    +0.000 S 
ATOM     14  O   UNL     1       0.520  16.394  21.498  0.00  0.00    +0.000 OA
ATOM     15  O   UNL     1       1.819  14.333  21.944  0.00  0.00    +0.000 OA
BRANCH  13  19
ATOM     16  C   UNL     1      -3.163  12.834  22.589  0.00  0.00    +0.000 A 
ATOM     17  C   UNL     1      -3.136  14.216  22.399  0.00  0.00    +0.000 A 
ATOM     18  C   UNL     1      -1.932  14.887  22.146  0.00  0.00    +0.000 A 
ATOM     19  C   UNL     1      -0.718  14.187  22.136  0.00  0.00    +0.000 A 
ATOM     20  C   UNL     1      -0.739  12.802  22.378  0.00  0.00    +0.000 A 
ATOM     21  C   UNL     1      -1.958  12.131  22.607  0.00  0.00    +0.000 A 
BRANCH  16  23
ATOM     22  C   UNL     1      -5.485  13.214  22.950  0.00  0.00    +0.000 C 
ATOM     23  O   UNL     1      -4.410  12.296  22.763  0.00  0.00    +0.000 OA
ENDBRANCH  16  23
ENDBRANCH  13  19
ENDBRANCH   1  13
BRANCH   4  24
ATOM     24  C   UNL     1       0.002  10.408  18.917  0.00  0.00    +0.000 C 
BRANCH  24  25
ATOM     25  C   UNL     1       1.036   9.300  18.918  0.00  0.00    +0.000 A 
ATOM     26  C   UNL     1       1.255   8.523  20.068  0.00  0.00    +0.000 A 
ATOM     27  C   UNL     1       2.140   7.434  20.047  0.00  0.00    +0.000 A 
ATOM     28  C   UNL     1       2.824   7.085  18.876  0.00  0.00    +0.000 A 
ATOM     29  C   UNL     1       2.610   7.875  17.735  0.00  0.00    +0.000 A 
ATOM     30  C   UNL     1       1.727   8.962  17.753  0.00  0.00    +0.000 A 
BRANCH  28  31
ATOM     31  C   UNL     1       3.712   5.902  18.843  0.00  0.00    +0.000 A 
ATOM     32  C   UNL     1       4.893   5.717  18.142  0.00  0.00    +0.000 A 
ATOM     33  C   UNL     1       5.473   4.430  18.352  0.00  0.00    +0.000 A 
ATOM     34  C   UNL     1       4.721   3.663  19.211  0.00  0.00    +0.000 A 
ATOM     35  S   UNL     1       3.328   4.488  19.751  0.00  0.00    +0.000 S 
ENDBRANCH  28  31
ENDBRANCH  24  25
ENDBRANCH   4  24
TORSDOF 8
ENDMDL
MODEL 7
REMARK VINA RESULT:      -7.8      1.961      4.564
REMARK  Name = 
REMARK  9 active torsions:
REMARK  status: ('A' for Active; 'I' for Inactive)
REMARK    1  A    between atoms: C_1  and  O_2
REMARK    2  A    between atoms: O_2  and  C_3
REMARK    3  A    between atoms: C_6  and  S_7
REMARK    4  A    between atoms: S_7  and  C_10
REMARK    5  A    between atoms: C_10  and  C_11
REMARK    6  A    between atoms: N_13  and  O_14
REMARK    7  A    between atoms: N_17  and  C_18
REMARK    8  A    between atoms: C_18  and  C_19
REMARK    9  A    between atoms: C_22  and  C_23
REMARK                            x       y       z     vdW  Elec       q    Type
REMARK                         _______ _______ _______ _____ _____    ______ ____
ROOT
ATOM      1  C   UNL     1       5.539   5.601  16.832  0.00  0.00    +0.000 C 
ATOM      2  C   UNL     1       5.903   5.842  18.302  0.00  0.00    +0.000 C 
ATOM      3  C   UNL     1       4.772   6.054  19.307  0.00  0.00    +0.000 C 
ATOM      4  N   UNL     1       3.667   6.909  18.842  0.00  0.00    +0.000 NA
ATOM      5  C   UNL     1       3.239   6.519  17.495  0.00  0.00    +0.000 C 
ATOM      6  C   UNL     1       4.427   6.629  16.499  0.00  0.00    +0.000 C 
ENDROOT
BRANCH   1   7
ATOM      7  C   UNL     1       6.903   5.761  16.161  0.00  0.00    +0.000 C 
ATOM      8  O   UNL     1       7.744   6.561  16.593  0.00  0.00    +0.000 OA
ATOM      9  N   UNL     1       7.125   5.202  14.927  0.00  0.00    +0.000 N 
ATOM     10  H   UNL     1       6.381   4.841  14.318  0.00  0.00    +0.000 HD
BRANCH   9  11
ATOM     11  O   UNL     1       8.256   5.745  14.249  0.00  0.00    +0.000 OA
ATOM     12  H   UNL     1       8.333   5.158  13.460  0.00  0.00    +0.000 HD
ENDBRANCH   9  11
ENDBRANCH   1   7
BRANCH   1  13
ATOM     13  S   UNL     1       4.974   3.980  16.223  0.00  0.00    +0.000 S 
ATOM     14  O   UNL     1       6.162   3.118  16.189  0.00  0.00    +0.000 OA
ATOM     15  O   UNL     1       4.281   4.167  14.965  0.00  0.00    +0.000 OA
BRANCH  13  19
ATOM     16  C   UNL     1       1.977   2.488  19.330  0.00  0.00    +0.000 A 
ATOM     17  C   UNL     1       3.328   2.150  19.418  0.00  0.00    +0.000 A 
ATOM     18  C   UNL     1       4.224   2.482  18.394  0.00  0.00    +0.000 A 
ATOM     19  C   UNL     1       3.767   3.114  17.228  0.00  0.00    +0.000 A 
ATOM     20  C   UNL     1       2.397   3.409  17.117  0.00  0.00    +0.000 A 
ATOM     21  C   UNL     1       1.506   3.093  18.164  0.00  0.00    +0.000 A 
BRANCH  16  23
ATOM     22  C   UNL     1       1.537   2.838  21.643  0.00  0.00    +0.000 C 
ATOM     23  O   UNL     1       1.224   2.164  20.426  0.00  0.00    +0.000 OA
ENDBRANCH  16  23
ENDBRANCH  13  19
ENDBRANCH   1  13
BRANCH   4  24
ATOM     24  C   UNL     1       2.564   6.784  19.840  0.00  0.00    +0.000 C 
BRANCH  24  25
ATOM     25  C   UNL     1       1.739   8.024  20.122  0.00  0.00    +0.000 A 
ATOM     26  C   UNL     1       1.517   8.981  19.117  0.00  0.00    +0.000 A 
ATOM     27  C   UNL     1       0.674  10.081  19.341  0.00  0.00    +0.000 A 
ATOM     28  C   UNL     1       0.026  10.252  20.570  0.00  0.00    +0.000 A 
ATOM     29  C   UNL     1       0.266   9.299  21.574  0.00  0.00    +0.000 A 
ATOM     30  C   UNL     1       1.105   8.200  21.352  0.00  0.00    +0.000 A 
BRANCH  28  31
ATOM     31  C   UNL     1      -0.905  11.382  20.783  0.00  0.00    +0.000 A 
ATOM     32  C   UNL     1      -1.784  11.970  19.886  0.00  0.00    +0.000 A 
ATOM     33  C   UNL     1      -2.522  13.053  20.453  0.00  0.00    +0.000 A 
ATOM     34  C   UNL     1      -2.189  13.265  21.770  0.00  0.00    +0.000 A 
ATOM     35  S   UNL     1      -0.995  12.172  22.312  0.00  0.00    +0.000 S 
ENDBRANCH  28  31
ENDBRANCH  24  25
ENDBRANCH   4  24
TORSDOF 8
ENDMDL
MODEL 8
REMARK VINA RESULT:      -7.8      2.192      2.693
REMARK  Name = 
REMARK  9 active torsions:
REMARK  status: ('A' for Active; 'I' for Inactive)
REMARK    1  A    between atoms: C_1  and  O_2
REMARK    2  A    between atoms: O_2  and  C_3
REMARK    3  A    between atoms: C_6  and  S_7
REMARK    4  A    between atoms: S_7  and  C_10
REMARK    5  A    between atoms: C_10  and  C_11
REMARK    6  A    between atoms: N_13  and  O_14
REMARK    7  A    between atoms: N_17  and  C_18
REMARK    8  A    between atoms: C_18  and  C_19
REMARK    9  A    between atoms: C_22  and  C_23
REMARK                            x       y       z     vdW  Elec       q    Type
REMARK                         _______ _______ _______ _____ _____    ______ ____
ROOT
ATOM      1  C   UNL     1       3.195   4.093  18.783  0.00  0.00    +0.000 C 
ATOM      2  C   UNL     1       2.098   4.628  17.855  0.00  0.00    +0.000 C 
ATOM      3  C   UNL     1       1.905   6.141  17.752  0.00  0.00    +0.000 C 
ATOM      4  N   UNL     1       1.989   6.876  19.024  0.00  0.00    +0.000 NA
ATOM      5  C   UNL     1       3.160   6.447  19.797  0.00  0.00    +0.000 C 
ATOM      6  C   UNL     1       3.085   4.923  20.088  0.00  0.00    +0.000 C 
ENDROOT
BRANCH   1   7
ATOM      7  C   UNL     1       2.840   2.608  18.833  0.00  0.00    +0.000 C 
ATOM      8  O   UNL     1       1.997   2.172  19.630  0.00  0.00    +0.000 OA
ATOM      9  N   UNL     1       3.623   1.697  18.169  0.00  0.00    +0.000 N 
ATOM     10  H   UNL     1       4.554   1.908  17.791  0.00  0.00    +0.000 HD
BRANCH   9  11
ATOM     11  O   UNL     1       3.436   0.354  18.608  0.00  0.00    +0.000 OA
ATOM     12  H   UNL     1       3.465   0.445  19.590  0.00  0.00    +0.000 HD
ENDBRANCH   9  11
ENDBRANCH   1   7
BRANCH   1  13
ATOM     13  S   UNL     1       4.952   4.075  18.303  0.00  0.00    +0.000 S 
ATOM     14  O   UNL     1       4.990   3.637  16.902  0.00  0.00    +0.000 OA
ATOM     15  O   UNL     1       5.688   3.263  19.249  0.00  0.00    +0.000 OA
BRANCH  13  19
ATOM     16  C   UNL     1       7.695   7.692  17.799  0.00  0.00    +0.000 A 
ATOM     17  C   UNL     1       7.962   6.720  18.765  0.00  0.00    +0.000 A 
ATOM     18  C   UNL     1       7.050   5.688  19.022  0.00  0.00    +0.000 A 
ATOM     19  C   UNL     1       5.820   5.644  18.350  0.00  0.00    +0.000 A 
ATOM     20  C   UNL     1       5.530   6.652  17.414  0.00  0.00    +0.000 A 
ATOM     21  C   UNL     1       6.464   7.673  17.144  0.00  0.00    +0.000 A 
BRANCH  16  23
ATOM     22  C   UNL     1       8.540   9.876  18.228  0.00  0.00    +0.000 C 
ATOM     23  O   UNL     1       8.697   8.604  17.602  0.00  0.00    +0.000 OA
ENDBRANCH  16  23
ENDBRANCH  13  19
ENDBRANCH   1  13
BRANCH   4  24
ATOM     24  C   UNL     1       2.037   8.330  18.691  0.00  0.00    +0.000 C 
BRANCH  24  25
ATOM     25  C   UNL     1       1.161   9.259  19.508  0.00  0.00    +0.000 A 
ATOM     26  C   UNL     1       0.495  10.336  18.899  0.00  0.00    +0.000 A 
ATOM     27  C   UNL     1      -0.395  11.141  19.628  0.00  0.00    +0.000 A 
ATOM     28  C   UNL     1      -0.648  10.888  20.982  0.00  0.00    +0.000 A 
ATOM     29  C   UNL     1       0.033   9.818  21.586  0.00  0.00    +0.000 A 
ATOM     30  C   UNL     1       0.920   9.014  20.860  0.00  0.00    +0.000 A 
BRANCH  28  31
ATOM     31  C   UNL     1      -1.629  11.703  21.732  0.00  0.00    +0.000 A 
ATOM     32  C   UNL     1      -1.956  11.655  23.078  0.00  0.00    +0.000 A 
ATOM     33  C   UNL     1      -2.963  12.598  23.444  0.00  0.00    +0.000 A 
ATOM     34  C   UNL     1      -3.381  13.345  22.368  0.00  0.00    +0.000 A 
ATOM     35  S   UNL     1      -2.569  12.907  20.932  0.00  0.00    +0.000 S 
ENDBRANCH  28  31
ENDBRANCH  24  25
ENDBRANCH   4  24
TORSDOF 8
ENDMDL
MODEL 9
REMARK VINA RESULT:      -7.8      1.907      2.453
REMARK  Name = 
REMARK  9 active torsions:
REMARK  status: ('A' for Active; 'I' for Inactive)
REMARK    1  A    between atoms: C_1  and  O_2
REMARK    2  A    between atoms: O_2  and  C_3
REMARK    3  A    between atoms: C_6  and  S_7
REMARK    4  A    between atoms: S_7  and  C_10
REMARK    5  A    between atoms: C_10  and  C_11
REMARK    6  A    between atoms: N_13  and  O_14
REMARK    7  A    between atoms: N_17  and  C_18
REMARK    8  A    between atoms: C_18  and  C_19
REMARK    9  A    between atoms: C_22  and  C_23
REMARK                            x       y       z     vdW  Elec       q    Type
REMARK                         _______ _______ _______ _____ _____    ______ ____
ROOT
ATOM      1  C   UNL     1       2.633   4.250  19.040  0.00  0.00    +0.000 C 
ATOM      2  C   UNL     1       1.607   4.831  18.059  0.00  0.00    +0.000 C 
ATOM      3  C   UNL     1       1.815   6.255  17.546  0.00  0.00    +0.000 C 
ATOM      4  N   UNL     1       2.260   7.230  18.556  0.00  0.00    +0.000 NA
ATOM      5  C   UNL     1       3.364   6.687  19.353  0.00  0.00    +0.000 C 
ATOM      6  C   UNL     1       2.922   5.378  20.064  0.00  0.00    +0.000 C 
ENDROOT
BRANCH   1   7
ATOM      7  C   UNL     1       1.902   2.998  19.523  0.00  0.00    +0.000 C 
ATOM      8  O   UNL     1       2.209   2.443  20.588  0.00  0.00    +0.000 OA
ATOM      9  N   UNL     1       1.062   2.327  18.670  0.00  0.00    +0.000 N 
ATOM     10  H   UNL     1       1.027   2.486  17.656  0.00  0.00    +0.000 HD
BRANCH   9  11
ATOM     11  O   UNL     1       0.768   0.996  19.088  0.00  0.00    +0.000 OA
ATOM     12  H   UNL     1       1.493   0.475  18.669  0.00  0.00    +0.000 HD
ENDBRANCH   9  11
ENDBRANCH   1   7
BRANCH   1  13
ATOM     13  S   UNL     1       4.241   3.595  18.491  0.00  0.00    +0.000 S 
ATOM     14  O   UNL     1       3.983   2.237  17.995  0.00  0.00    +0.000 OA
ATOM     15  O   UNL     1       5.191   3.711  19.578  0.00  0.00    +0.000 OA
BRANCH  13  19
ATOM     16  C   UNL     1       6.919   5.144  15.131  0.00  0.00    +0.000 A 
ATOM     17  C   UNL     1       7.099   5.575  16.446  0.00  0.00    +0.000 A 
ATOM     18  C   UNL     1       6.193   5.218  17.454  0.00  0.00    +0.000 A 
ATOM     19  C   UNL     1       5.052   4.463  17.147  0.00  0.00    +0.000 A 
ATOM     20  C   UNL     1       4.845   4.071  15.813  0.00  0.00    +0.000 A 
ATOM     21  C   UNL     1       5.774   4.415  14.810  0.00  0.00    +0.000 A 
BRANCH  16  23
ATOM     22  C   UNL     1       7.722   5.162  12.890  0.00  0.00    +0.000 C 
ATOM     23  O   UNL     1       7.910   5.510  14.260  0.00  0.00    +0.000 OA
ENDBRANCH  16  23
ENDBRANCH  13  19
ENDBRANCH   1  13
BRANCH   4  24
ATOM     24  C   UNL     1       2.652   8.472  17.825  0.00  0.00    +0.000 C 
BRANCH  24  25
ATOM     25  C   UNL     1       1.956   9.759  18.222  0.00  0.00    +0.000 A 
ATOM     26  C   UNL     1       0.770   9.731  18.975  0.00  0.00    +0.000 A 
ATOM     27  C   UNL     1       0.174  10.918  19.429  0.00  0.00    +0.000 A 
ATOM     28  C   UNL     1       0.749  12.163  19.149  0.00  0.00    +0.000 A 
ATOM     29  C   UNL     1       1.926  12.184  18.383  0.00  0.00    +0.000 A 
ATOM     30  C   UNL     1       2.523  11.001  17.930  0.00  0.00    +0.000 A 
BRANCH  28  31
ATOM     31  C   UNL     1       0.148  13.409  19.676  0.00  0.00    +0.000 A 
ATOM     32  C   UNL     1      -0.325  14.512  18.983  0.00  0.00    +0.000 A 
ATOM     33  C   UNL     1      -0.831  15.537  19.838  0.00  0.00    +0.000 A 
ATOM     34  C   UNL     1      -0.733  15.191  21.166  0.00  0.00    +0.000 A 
ATOM     35  S   UNL     1      -0.033  13.648  21.374  0.00  0.00    +0.000 S 
ENDBRANCH  28  31
ENDBRANCH  24  25
ENDBRANCH   4  24
TORSDOF 8
ENDMDL
