MODEL 1
REMARK VINA RESULT:      -7.9      0.000      0.000
REMARK  Name = 
REMARK  3 active torsions:
REMARK  status: ('A' for Active; 'I' for Inactive)
REMARK    1  A    between atoms: C_1  and  C_2
REMARK    2  A    between atoms: C_2  and  N_3
REMARK    3  A    between atoms: C_16  and  C_17
REMARK                            x       y       z     vdW  Elec       q    Type
REMARK                         _______ _______ _______ _____ _____    ______ ____
ROOT
ATOM      1  N   UNL     1       6.586   5.636  17.808  0.00  0.00    +0.000 N 
ATOM      2  C   UNL     1       6.983   4.540  17.067  0.00  0.00    +0.000 C 
ATOM      3  O   UNL     1       8.121   4.132  16.908  0.00  0.00    +0.000 OA
ATOM      4  N   UNL     1       5.877   3.939  16.562  0.00  0.00    +0.000 N 
ATOM      5  C   UNL     1       4.752   4.472  17.099  0.00  0.00    +0.000 C 
ATOM      6  O   UNL     1       3.630   4.014  16.941  0.00  0.00    +0.000 OA
ATOM      7  C   UNL     1       5.120   5.723  17.917  0.00  0.00    +0.000 C 
ATOM      8  C   UNL     1       4.631   5.573  19.366  0.00  0.00    +0.000 C 
ATOM      9  C   UNL     1       3.139   5.858  19.501  0.00  0.00    +0.000 C 
ATOM     10  N   UNL     1       2.853   7.121  18.839  0.00  0.00    +0.000 N 
ATOM     11  C   UNL     1       1.980   7.991  19.388  0.00  0.00    +0.000 A 
ATOM     12  N   UNL     1       1.187   8.885  18.836  0.00  0.00    +0.000 NA
ATOM     13  N   UNL     1       0.576   9.567  19.872  0.00  0.00    +0.000 NA
ATOM     14  C   UNL     1       1.075   9.069  20.983  0.00  0.00    +0.000 A 
ATOM     15  O   UNL     1       1.956   8.053  20.752  0.00  0.00    +0.000 OA
ATOM     16  C   UNL     1       3.093   7.157  17.408  0.00  0.00    +0.000 C 
ATOM     17  C   UNL     1       4.595   6.971  17.194  0.00  0.00    +0.000 C 
ATOM     18  H   UNL     1       5.906   3.087  16.028  0.00  0.00    +0.000 HD
ENDROOT
BRANCH  14  19
ATOM     19  C   UNL     1       0.728   9.583  22.367  0.00  0.00    +0.000 C 
ATOM     20  C   UNL     1      -0.430  10.553  22.507  0.00  0.00    +0.000 C 
ATOM     21  C   UNL     1      -0.587   9.151  22.986  0.00  0.00    +0.000 C 
ENDBRANCH  14  19
BRANCH   1  23
ATOM     22  C   UNL     1       7.945   7.713  17.880  0.00  0.00    +0.000 C 
ATOM     23  C   UNL     1       7.494   6.454  18.601  0.00  0.00    +0.000 C 
ENDBRANCH   1  23
TORSDOF 2
ENDMDL
MODEL 2
REMARK VINA RESULT:      -7.4      2.841      7.672
REMARK  Name = 
REMARK  3 active torsions:
REMARK  status: ('A' for Active; 'I' for Inactive)
REMARK    1  A    between atoms: C_1  and  C_2
REMARK    2  A    between atoms: C_2  and  N_3
REMARK    3  A    between atoms: C_16  and  C_17
REMARK                            x       y       z     vdW  Elec       q    Type
REMARK                         _______ _______ _______ _____ _____    ______ ____
ROOT
ATOM      1  N   UNL     1       2.460   6.432  18.994  0.00  0.00    +0.000 N 
ATOM      2  C   UNL     1       2.070   6.220  20.302  0.00  0.00    +0.000 C 
ATOM      3  O   UNL     1       1.172   6.783  20.904  0.00  0.00    +0.000 OA
ATOM      4  N   UNL     1       2.835   5.228  20.822  0.00  0.00    +0.000 N 
ATOM      5  C   UNL     1       3.579   4.636  19.855  0.00  0.00    +0.000 C 
ATOM      6  O   UNL     1       4.234   3.616  20.017  0.00  0.00    +0.000 OA
ATOM      7  C   UNL     1       3.464   5.450  18.554  0.00  0.00    +0.000 C 
ATOM      8  C   UNL     1       2.950   4.559  17.412  0.00  0.00    +0.000 C 
ATOM      9  C   UNL     1       4.053   3.680  16.829  0.00  0.00    +0.000 C 
ATOM     10  N   UNL     1       5.202   4.522  16.538  0.00  0.00    +0.000 N 
ATOM     11  C   UNL     1       5.921   4.321  15.414  0.00  0.00    +0.000 A 
ATOM     12  N   UNL     1       7.192   4.538  15.150  0.00  0.00    +0.000 NA
ATOM     13  N   UNL     1       7.377   4.239  13.813  0.00  0.00    +0.000 NA
ATOM     14  C   UNL     1       6.193   3.903  13.346  0.00  0.00    +0.000 A 
ATOM     15  O   UNL     1       5.227   3.914  14.310  0.00  0.00    +0.000 OA
ATOM     16  C   UNL     1       5.827   5.163  17.681  0.00  0.00    +0.000 C 
ATOM     17  C   UNL     1       4.807   6.138  18.269  0.00  0.00    +0.000 C 
ATOM     18  H   UNL     1       2.705   4.857  21.749  0.00  0.00    +0.000 HD
ENDROOT
BRANCH  14  19
ATOM     19  C   UNL     1       5.926   3.564  11.892  0.00  0.00    +0.000 C 
ATOM     20  C   UNL     1       5.533   2.142  11.543  0.00  0.00    +0.000 C 
ATOM     21  C   UNL     1       4.507   3.221  11.482  0.00  0.00    +0.000 C 
ENDBRANCH  14  19
BRANCH   1  23
ATOM     22  C   UNL     1       2.336   8.754  18.121  0.00  0.00    +0.000 C 
ATOM     23  C   UNL     1       1.780   7.341  18.080  0.00  0.00    +0.000 C 
ENDBRANCH   1  23
TORSDOF 2
ENDMDL
MODEL 3
REMARK VINA RESULT:      -7.1      4.056      7.764
REMARK  Name = 
REMARK  3 active torsions:
REMARK  status: ('A' for Active; 'I' for Inactive)
REMARK    1  A    between atoms: C_1  and  C_2
REMARK    2  A    between atoms: C_2  and  N_3
REMARK    3  A    between atoms: C_16  and  C_17
REMARK                            x       y       z     vdW  Elec       q    Type
REMARK                         _______ _______ _______ _____ _____    ______ ____
ROOT
ATOM      1  N   UNL     1       2.208   3.521  19.707  0.00  0.00    +0.000 N 
ATOM      2  C   UNL     1       2.019   2.921  20.937  0.00  0.00    +0.000 C 
ATOM      3  O   UNL     1       0.974   2.822  21.556  0.00  0.00    +0.000 OA
ATOM      4  N   UNL     1       3.203   2.402  21.347  0.00  0.00    +0.000 N 
ATOM      5  C   UNL     1       4.124   2.457  20.353  0.00  0.00    +0.000 C 
ATOM      6  O   UNL     1       5.220   1.918  20.399  0.00  0.00    +0.000 OA
ATOM      7  C   UNL     1       3.568   3.297  19.189  0.00  0.00    +0.000 C 
ATOM      8  C   UNL     1       3.572   2.476  17.891  0.00  0.00    +0.000 C 
ATOM      9  C   UNL     1       4.957   2.413  17.255  0.00  0.00    +0.000 C 
ATOM     10  N   UNL     1       5.485   3.766  17.177  0.00  0.00    +0.000 N 
ATOM     11  C   UNL     1       6.176   4.161  16.088  0.00  0.00    +0.000 A 
ATOM     12  N   UNL     1       7.138   5.050  15.948  0.00  0.00    +0.000 NA
ATOM     13  N   UNL     1       7.420   5.120  14.597  0.00  0.00    +0.000 NA
ATOM     14  C   UNL     1       6.578   4.301  14.004  0.00  0.00    +0.000 A 
ATOM     15  O   UNL     1       5.774   3.645  14.889  0.00  0.00    +0.000 OA
ATOM     16  C   UNL     1       5.708   4.435  18.446  0.00  0.00    +0.000 C 
ATOM     17  C   UNL     1       4.342   4.620  19.107  0.00  0.00    +0.000 C 
ATOM     18  H   UNL     1       3.310   1.868  22.194  0.00  0.00    +0.000 HD
ENDROOT
BRANCH  14  19
ATOM     19  C   UNL     1       6.494   4.123  12.499  0.00  0.00    +0.000 C 
ATOM     20  C   UNL     1       6.442   2.714  11.942  0.00  0.00    +0.000 C 
ATOM     21  C   UNL     1       5.215   3.559  11.912  0.00  0.00    +0.000 C 
ENDBRANCH  14  19
BRANCH   1  23
ATOM     22  C   UNL     1       1.606   5.142  17.923  0.00  0.00    +0.000 C 
ATOM     23  C   UNL     1       1.130   4.081  18.901  0.00  0.00    +0.000 C 
ENDBRANCH   1  23
TORSDOF 2
ENDMDL
MODEL 4
REMARK VINA RESULT:      -7.0      3.446      8.229
REMARK  Name = 
REMARK  3 active torsions:
REMARK  status: ('A' for Active; 'I' for Inactive)
REMARK    1  A    between atoms: C_1  and  C_2
REMARK    2  A    between atoms: C_2  and  N_3
REMARK    3  A    between atoms: C_16  and  C_17
REMARK                            x       y       z     vdW  Elec       q    Type
REMARK                         _______ _______ _______ _____ _____    ______ ____
ROOT
ATOM      1  N   UNL     1       3.064   5.265  18.423  0.00  0.00    +0.000 N 
ATOM      2  C   UNL     1       3.108   5.334  19.802  0.00  0.00    +0.000 C 
ATOM      3  O   UNL     1       2.162   5.417  20.565  0.00  0.00    +0.000 OA
ATOM      4  N   UNL     1       4.403   5.250  20.194  0.00  0.00    +0.000 N 
ATOM      5  C   UNL     1       5.204   4.926  19.148  0.00  0.00    +0.000 C 
ATOM      6  O   UNL     1       6.386   4.632  19.251  0.00  0.00    +0.000 OA
ATOM      7  C   UNL     1       4.391   4.997  17.844  0.00  0.00    +0.000 C 
ATOM      8  C   UNL     1       4.448   3.648  17.109  0.00  0.00    +0.000 C 
ATOM      9  C   UNL     1       5.756   3.464  16.347  0.00  0.00    +0.000 C 
ATOM     10  N   UNL     1       5.992   4.657  15.549  0.00  0.00    +0.000 N 
ATOM     11  C   UNL     1       6.492   4.548  14.301  0.00  0.00    +0.000 A 
ATOM     12  N   UNL     1       7.239   5.370  13.593  0.00  0.00    +0.000 NA
ATOM     13  N   UNL     1       7.382   4.798  12.342  0.00  0.00    +0.000 NA
ATOM     14  C   UNL     1       6.675   3.689  12.363  0.00  0.00    +0.000 A 
ATOM     15  O   UNL     1       6.099   3.457  13.578  0.00  0.00    +0.000 OA
ATOM     16  C   UNL     1       6.185   5.890  16.291  0.00  0.00    +0.000 C 
ATOM     17  C   UNL     1       4.873   6.195  17.013  0.00  0.00    +0.000 C 
ATOM     18  H   UNL     1       4.688   5.225  21.159  0.00  0.00    +0.000 HD
ENDROOT
BRANCH  14  19
ATOM     19  C   UNL     1       6.498   2.780  11.162  0.00  0.00    +0.000 C 
ATOM     20  C   UNL     1       7.372   1.546  11.057  0.00  0.00    +0.000 C 
ATOM     21  C   UNL     1       5.928   1.393  11.387  0.00  0.00    +0.000 C 
ENDBRANCH  14  19
BRANCH   1  23
ATOM     22  C   UNL     1       1.118   3.866  17.771  0.00  0.00    +0.000 C 
ATOM     23  C   UNL     1       1.830   5.202  17.650  0.00  0.00    +0.000 C 
ENDBRANCH   1  23
TORSDOF 2
ENDMDL
MODEL 5
REMARK VINA RESULT:      -6.9      2.728      4.044
REMARK  Name = 
REMARK  3 active torsions:
REMARK  status: ('A' for Active; 'I' for Inactive)
REMARK    1  A    between atoms: C_1  and  C_2
REMARK    2  A    between atoms: C_2  and  N_3
REMARK    3  A    between atoms: C_16  and  C_17
REMARK                            x       y       z     vdW  Elec       q    Type
REMARK                         _______ _______ _______ _____ _____    ______ ____
ROOT
ATOM      1  N   UNL     1       2.750   3.330  18.632  0.00  0.00    +0.000 N 
ATOM      2  C   UNL     1       3.867   2.517  18.659  0.00  0.00    +0.000 C 
ATOM      3  O   UNL     1       3.954   1.371  18.254  0.00  0.00    +0.000 OA
ATOM      4  N   UNL     1       4.899   3.224  19.183  0.00  0.00    +0.000 N 
ATOM      5  C   UNL     1       4.568   4.532  19.319  0.00  0.00    +0.000 C 
ATOM      6  O   UNL     1       5.359   5.415  19.616  0.00  0.00    +0.000 OA
ATOM      7  C   UNL     1       3.063   4.707  19.047  0.00  0.00    +0.000 C 
ATOM      8  C   UNL     1       2.842   5.724  17.916  0.00  0.00    +0.000 C 
ATOM      9  C   UNL     1       2.977   7.163  18.404  0.00  0.00    +0.000 C 
ATOM     10  N   UNL     1       2.161   7.320  19.596  0.00  0.00    +0.000 N 
ATOM     11  C   UNL     1       1.451   8.451  19.786  0.00  0.00    +0.000 A 
ATOM     12  N   UNL     1       1.073   9.061  20.890  0.00  0.00    +0.000 NA
ATOM     13  N   UNL     1       0.287  10.131  20.504  0.00  0.00    +0.000 NA
ATOM     14  C   UNL     1       0.205  10.071  19.193  0.00  0.00    +0.000 A 
ATOM     15  O   UNL     1       0.934   9.043  18.668  0.00  0.00    +0.000 OA
ATOM     16  C   UNL     1       2.549   6.520  20.743  0.00  0.00    +0.000 C 
ATOM     17  C   UNL     1       2.350   5.053  20.361  0.00  0.00    +0.000 C 
ATOM     18  H   UNL     1       5.835   2.862  19.258  0.00  0.00    +0.000 HD
ENDROOT
BRANCH  14  19
ATOM     19  C   UNL     1      -0.628  11.024  18.356  0.00  0.00    +0.000 C 
ATOM     20  C   UNL     1      -1.679  10.441  17.431  0.00  0.00    +0.000 C 
ATOM     21  C   UNL     1      -2.106  11.152  18.669  0.00  0.00    +0.000 C 
ENDBRANCH  14  19
BRANCH   1  23
ATOM     22  C   UNL     1       0.562   2.206  18.975  0.00  0.00    +0.000 C 
ATOM     23  C   UNL     1       1.482   2.950  18.022  0.00  0.00    +0.000 C 
ENDBRANCH   1  23
TORSDOF 2
ENDMDL
MODEL 6
REMARK VINA RESULT:      -6.9      1.108      1.193
REMARK  Name = 
REMARK  3 active torsions:
REMARK  status: ('A' for Active; 'I' for Inactive)
REMARK    1  A    between atoms: C_1  and  C_2
REMARK    2  A    between atoms: C_2  and  N_3
REMARK    3  A    between atoms: C_16  and  C_17
REMARK                            x       y       z     vdW  Elec       q    Type
REMARK                         _______ _______ _______ _____ _____    ______ ____
ROOT
ATOM      1  N   UNL     1       6.939   5.586  18.036  0.00  0.00    +0.000 N 
ATOM      2  C   UNL     1       7.440   4.424  17.482  0.00  0.00    +0.000 C 
ATOM      3  O   UNL     1       8.558   3.962  17.625  0.00  0.00    +0.000 OA
ATOM      4  N   UNL     1       6.454   3.831  16.764  0.00  0.00    +0.000 N 
ATOM      5  C   UNL     1       5.264   4.445  16.981  0.00  0.00    +0.000 C 
ATOM      6  O   UNL     1       4.188   4.020  16.587  0.00  0.00    +0.000 OA
ATOM      7  C   UNL     1       5.497   5.737  17.784  0.00  0.00    +0.000 C 
ATOM      8  C   UNL     1       4.671   5.714  19.080  0.00  0.00    +0.000 C 
ATOM      9  C   UNL     1       3.207   6.066  18.834  0.00  0.00    +0.000 C 
ATOM     10  N   UNL     1       3.157   7.287  18.046  0.00  0.00    +0.000 N 
ATOM     11  C   UNL     1       2.228   8.227  18.314  0.00  0.00    +0.000 A 
ATOM     12  N   UNL     1       1.638   9.109  17.534  0.00  0.00    +0.000 NA
ATOM     13  N   UNL     1       0.838   9.888  18.349  0.00  0.00    +0.000 NA
ATOM     14  C   UNL     1       1.032   9.454  19.575  0.00  0.00    +0.000 A 
ATOM     15  O   UNL     1       1.885   8.391  19.627  0.00  0.00    +0.000 OA
ATOM     16  C   UNL     1       3.730   7.208  16.715  0.00  0.00    +0.000 C 
ATOM     17  C   UNL     1       5.228   6.948  16.880  0.00  0.00    +0.000 C 
ATOM     18  H   UNL     1       6.561   2.941  16.306  0.00  0.00    +0.000 HD
ENDROOT
BRANCH  14  19
ATOM     19  C   UNL     1       0.395  10.082  20.801  0.00  0.00    +0.000 C 
ATOM     20  C   UNL     1       0.567  11.573  21.019  0.00  0.00    +0.000 C 
ATOM     21  C   UNL     1      -0.761  11.042  20.600  0.00  0.00    +0.000 C 
ENDBRANCH  14  19
BRANCH   1  23
ATOM     22  C   UNL     1       8.218   7.694  18.335  0.00  0.00    +0.000 C 
ATOM     23  C   UNL     1       7.678   6.425  18.971  0.00  0.00    +0.000 C 
ENDBRANCH   1  23
TORSDOF 2
ENDMDL
MODEL 7
REMARK VINA RESULT:      -6.6      3.421      6.335
REMARK  Name = 
REMARK  3 active torsions:
REMARK  status: ('A' for Active; 'I' for Inactive)
REMARK    1  A    between atoms: C_1  and  C_2
REMARK    2  A    between atoms: C_2  and  N_3
REMARK    3  A    between atoms: C_16  and  C_17
REMARK                            x       y       z     vdW  Elec       q    Type
REMARK                         _______ _______ _______ _____ _____    ______ ____
ROOT
ATOM      1  N   UNL     1       4.488   5.138  17.723  0.00  0.00    +0.000 N 
ATOM      2  C   UNL     1       4.348   3.856  17.227  0.00  0.00    +0.000 C 
ATOM      3  O   UNL     1       3.315   3.222  17.106  0.00  0.00    +0.000 OA
ATOM      4  N   UNL     1       5.570   3.409  16.843  0.00  0.00    +0.000 N 
ATOM      5  C   UNL     1       6.482   4.412  16.876  0.00  0.00    +0.000 C 
ATOM      6  O   UNL     1       7.617   4.325  16.430  0.00  0.00    +0.000 OA
ATOM      7  C   UNL     1       5.861   5.644  17.559  0.00  0.00    +0.000 C 
ATOM      8  C   UNL     1       5.927   6.860  16.622  0.00  0.00    +0.000 C 
ATOM      9  C   UNL     1       7.313   7.499  16.608  0.00  0.00    +0.000 C 
ATOM     10  N   UNL     1       7.734   7.706  17.984  0.00  0.00    +0.000 N 
ATOM     11  C   UNL     1       8.390   8.833  18.329  0.00  0.00    +0.000 A 
ATOM     12  N   UNL     1       9.279   9.063  19.273  0.00  0.00    +0.000 NA
ATOM     13  N   UNL     1       9.553  10.418  19.239  0.00  0.00    +0.000 NA
ATOM     14  C   UNL     1       8.778  10.925  18.305  0.00  0.00    +0.000 A 
ATOM     15  O   UNL     1       8.028   9.976  17.673  0.00  0.00    +0.000 OA
ATOM     16  C   UNL     1       7.905   6.508  18.784  0.00  0.00    +0.000 C 
ATOM     17  C   UNL     1       6.529   5.855  18.924  0.00  0.00    +0.000 C 
ATOM     18  H   UNL     1       5.718   2.518  16.400  0.00  0.00    +0.000 HD
ENDROOT
BRANCH  14  19
ATOM     19  C   UNL     1       8.706  12.406  17.982  0.00  0.00    +0.000 C 
ATOM     20  C   UNL     1       9.542  13.365  18.807  0.00  0.00    +0.000 C 
ATOM     21  C   UNL     1       9.936  13.075  17.400  0.00  0.00    +0.000 C 
ENDBRANCH  14  19
BRANCH   1  23
ATOM     22  C   UNL     1       2.930   5.755  19.556  0.00  0.00    +0.000 C 
ATOM     23  C   UNL     1       3.369   5.983  18.120  0.00  0.00    +0.000 C 
ENDBRANCH   1  23
TORSDOF 2
ENDMDL
MODEL 8
REMARK VINA RESULT:      -6.5      3.329      7.572
REMARK  Name = 
REMARK  3 active torsions:
REMARK  status: ('A' for Active; 'I' for Inactive)
REMARK    1  A    between atoms: C_1  and  C_2
REMARK    2  A    between atoms: C_2  and  N_3
REMARK    3  A    between atoms: C_16  and  C_17
REMARK                            x       y       z     vdW  Elec       q    Type
REMARK                         _______ _______ _______ _____ _____    ______ ____
ROOT
ATOM      1  N   UNL     1      -1.288  10.763  18.915  0.00  0.00    +0.000 N 
ATOM      2  C   UNL     1      -1.415  12.114  19.170  0.00  0.00    +0.000 C 
ATOM      3  O   UNL     1      -2.424  12.791  19.072  0.00  0.00    +0.000 OA
ATOM      4  N   UNL     1      -0.218  12.584  19.602  0.00  0.00    +0.000 N 
ATOM      5  C   UNL     1       0.644  11.563  19.836  0.00  0.00    +0.000 C 
ATOM      6  O   UNL     1       1.732  11.692  20.379  0.00  0.00    +0.000 OA
ATOM      7  C   UNL     1       0.036  10.252  19.308  0.00  0.00    +0.000 C 
ATOM      8  C   UNL     1      -0.050   9.213  20.438  0.00  0.00    +0.000 C 
ATOM      9  C   UNL     1       1.295   8.545  20.707  0.00  0.00    +0.000 C 
ATOM     10  N   UNL     1       1.841   8.091  19.438  0.00  0.00    +0.000 N 
ATOM     11  C   UNL     1       2.474   6.903  19.360  0.00  0.00    +0.000 A 
ATOM     12  N   UNL     1       3.441   6.487  18.569  0.00  0.00    +0.000 NA
ATOM     13  N   UNL     1       3.645   5.151  18.860  0.00  0.00    +0.000 NA
ATOM     14  C   UNL     1       2.757   4.836  19.777  0.00  0.00    +0.000 A 
ATOM     15  O   UNL     1       1.994   5.901  20.157  0.00  0.00    +0.000 OA
ATOM     16  C   UNL     1       2.148   9.128  18.470  0.00  0.00    +0.000 C 
ATOM     17  C   UNL     1       0.826   9.788  18.077  0.00  0.00    +0.000 C 
ATOM     18  H   UNL     1      -0.072  13.534  19.902  0.00  0.00    +0.000 HD
ENDROOT
BRANCH  14  19
ATOM     19  C   UNL     1       2.583   3.436  20.336  0.00  0.00    +0.000 C 
ATOM     20  C   UNL     1       1.825   3.269  21.639  0.00  0.00    +0.000 C 
ATOM     21  C   UNL     1       1.188   2.840  20.362  0.00  0.00    +0.000 C 
ENDBRANCH  14  19
BRANCH   1  23
ATOM     22  C   UNL     1      -2.649   9.844  17.052  0.00  0.00    +0.000 C 
ATOM     23  C   UNL     1      -2.401   9.896  18.549  0.00  0.00    +0.000 C 
ENDBRANCH   1  23
TORSDOF 2
ENDMDL
MODEL 9
REMARK VINA RESULT:      -5.9      3.303      7.571
REMARK  Name = 
REMARK  3 active torsions:
REMARK  status: ('A' for Active; 'I' for Inactive)
REMARK    1  A    between atoms: C_1  and  C_2
REMARK    2  A    between atoms: C_2  and  N_3
REMARK    3  A    between atoms: C_16  and  C_17
REMARK                            x       y       z     vdW  Elec       q    Type
REMARK                         _______ _______ _______ _____ _____    ______ ____
ROOT
ATOM      1  N   UNL     1       1.213  12.877  19.193  0.00  0.00    +0.000 N 
ATOM      2  C   UNL     1       0.178  13.743  18.898  0.00  0.00    +0.000 C 
ATOM      3  O   UNL     1       0.233  14.958  18.822  0.00  0.00    +0.000 OA
ATOM      4  N   UNL     1      -0.937  13.011  18.654  0.00  0.00    +0.000 N 
ATOM      5  C   UNL     1      -0.639  11.690  18.579  0.00  0.00    +0.000 C 
ATOM      6  O   UNL     1      -1.425  10.827  18.214  0.00  0.00    +0.000 OA
ATOM      7  C   UNL     1       0.817  11.469  19.025  0.00  0.00    +0.000 C 
ATOM      8  C   UNL     1       1.612  10.766  17.914  0.00  0.00    +0.000 C 
ATOM      9  C   UNL     1       1.340   9.265  17.875  0.00  0.00    +0.000 C 
ATOM     10  N   UNL     1       1.488   8.739  19.222  0.00  0.00    +0.000 N 
ATOM     11  C   UNL     1       2.080   7.543  19.420  0.00  0.00    +0.000 A 
ATOM     12  N   UNL     1       1.912   6.640  20.362  0.00  0.00    +0.000 NA
ATOM     13  N   UNL     1       2.846   5.646  20.131  0.00  0.00    +0.000 NA
ATOM     14  C   UNL     1       3.546   6.037  19.089  0.00  0.00    +0.000 A 
ATOM     15  O   UNL     1       3.105   7.222  18.575  0.00  0.00    +0.000 OA
ATOM     16  C   UNL     1       0.550   9.244  20.208  0.00  0.00    +0.000 C 
ATOM     17  C   UNL     1       0.826  10.738  20.374  0.00  0.00    +0.000 C 
ATOM     18  H   UNL     1      -1.812  13.416  18.366  0.00  0.00    +0.000 HD
ENDROOT
BRANCH  14  19
ATOM     19  C   UNL     1       4.731   5.270  18.534  0.00  0.00    +0.000 C 
ATOM     20  C   UNL     1       5.820   6.044  17.816  0.00  0.00    +0.000 C 
ATOM     21  C   UNL     1       6.091   5.486  19.170  0.00  0.00    +0.000 C 
ENDBRANCH  14  19
BRANCH   1  23
ATOM     22  C   UNL     1       2.877  13.769  20.807  0.00  0.00    +0.000 C 
ATOM     23  C   UNL     1       2.595  13.298  19.391  0.00  0.00    +0.000 C 
ENDBRANCH   1  23
TORSDOF 2
ENDMDL
