MODEL 1
REMARK VINA RESULT:      -8.5      0.000      0.000
REMARK  Name = 
REMARK  3 active torsions:
REMARK  status: ('A' for Active; 'I' for Inactive)
REMARK    1  A    between atoms: C_2  and  C_3
REMARK    2  A    between atoms: C_15  and  C_16
REMARK    3  A    between atoms: C_21  and  C_22
REMARK                            x       y       z     vdW  Elec       q    Type
REMARK                         _______ _______ _______ _____ _____    ______ ____
ROOT
ATOM      1  O   UNL     1       2.144   5.054  20.923  0.00  0.00    +0.000 OA
ATOM      2  C   UNL     1       2.143   5.923  20.048  0.00  0.00    +0.000 C 
ATOM      3  N   UNL     1       2.499   5.655  18.747  0.00  0.00    +0.000 N 
ATOM      4  C   UNL     1       2.993   4.410  18.199  0.00  0.00    +0.000 C 
ATOM      5  C   UNL     1       4.015   5.237  17.394  0.00  0.00    +0.000 C 
ATOM      6  C   UNL     1       3.220   6.497  17.803  0.00  0.00    +0.000 C 
ENDROOT
BRANCH   2   7
ATOM      7  C   UNL     1       1.699   7.276  20.322  0.00  0.00    +0.000 A 
ATOM      8  N   UNL     1       1.646   8.261  19.441  0.00  0.00    +0.000 NA
ATOM      9  C   UNL     1       1.056   9.309  20.094  0.00  0.00    +0.000 A 
ATOM     10  C   UNL     1       0.725  10.579  19.606  0.00  0.00    +0.000 A 
ATOM     11  C   UNL     1       0.108  11.488  20.475  0.00  0.00    +0.000 A 
ATOM     12  C   UNL     1      -0.161  11.132  21.798  0.00  0.00    +0.000 A 
ATOM     13 CL   UNL     1      -0.915  12.279  22.839  0.00  0.00    +0.000 Cl
ATOM     14  C   UNL     1       0.160   9.866  22.306  0.00  0.00    +0.000 A 
ATOM     15  C   UNL     1       0.769   8.979  21.410  0.00  0.00    +0.000 A 
ATOM     16  N   UNL     1       1.194   7.683  21.534  0.00  0.00    +0.000 N 
ATOM     17  H   UNL     1       1.117   7.088  22.349  0.00  0.00    +0.000 HD
ENDBRANCH   2   7
BRANCH   5  18
ATOM     18  C   UNL     1       5.552   5.165  17.761  0.00  0.00    +0.000 A 
ATOM     19  N   UNL     1       5.774   5.454  19.080  0.00  0.00    +0.000 NA
ATOM     20  C   UNL     1       7.044   5.428  19.525  0.00  0.00    +0.000 A 
ATOM     21  C   UNL     1       8.094   5.109  18.698  0.00  0.00    +0.000 A 
ATOM     22  N   UNL     1       7.915   4.819  17.392  0.00  0.00    +0.000 NA
ATOM     23  C   UNL     1       6.634   4.845  16.909  0.00  0.00    +0.000 A 
BRANCH  23  24
ATOM     24  C   UNL     1       6.537   4.555  15.454  0.00  0.00    +0.000 A 
ATOM     25  C   UNL     1       5.560   3.716  14.891  0.00  0.00    +0.000 A 
ATOM     26  C   UNL     1       5.455   3.518  13.510  0.00  0.00    +0.000 A 
ATOM     27  C   UNL     1       6.371   4.109  12.650  0.00  0.00    +0.000 A 
ATOM     28  C   UNL     1       7.393   4.891  13.174  0.00  0.00    +0.000 A 
ATOM     29  C   UNL     1       7.468   5.115  14.554  0.00  0.00    +0.000 A 
ENDBRANCH  23  24
ENDBRANCH   5  18
TORSDOF 3
ENDMDL
MODEL 2
REMARK VINA RESULT:      -8.1      2.761      4.205
REMARK  Name = 
REMARK  3 active torsions:
REMARK  status: ('A' for Active; 'I' for Inactive)
REMARK    1  A    between atoms: C_2  and  C_3
REMARK    2  A    between atoms: C_15  and  C_16
REMARK    3  A    between atoms: C_21  and  C_22
REMARK                            x       y       z     vdW  Elec       q    Type
REMARK                         _______ _______ _______ _____ _____    ______ ____
ROOT
ATOM      1  O   UNL     1       2.655   8.608  16.946  0.00  0.00    +0.000 OA
ATOM      2  C   UNL     1       2.041   8.530  18.012  0.00  0.00    +0.000 C 
ATOM      3  N   UNL     1       2.516   7.808  19.082  0.00  0.00    +0.000 N 
ATOM      4  C   UNL     1       3.704   6.983  19.140  0.00  0.00    +0.000 C 
ATOM      5  C   UNL     1       2.874   5.944  19.919  0.00  0.00    +0.000 C 
ATOM      6  C   UNL     1       1.775   7.022  20.058  0.00  0.00    +0.000 C 
ENDROOT
BRANCH   2   7
ATOM      7  C   UNL     1       0.804   9.255  18.232  0.00  0.00    +0.000 A 
ATOM      8  N   UNL     1       0.571  10.095  19.226  0.00  0.00    +0.000 NA
ATOM      9  C   UNL     1      -0.659  10.636  18.972  0.00  0.00    +0.000 A 
ATOM     10  C   UNL     1      -1.361  11.611  19.693  0.00  0.00    +0.000 A 
ATOM     11  C   UNL     1      -2.615  12.016  19.220  0.00  0.00    +0.000 A 
ATOM     12  C   UNL     1      -3.152  11.452  18.061  0.00  0.00    +0.000 A 
ATOM     13 CL   UNL     1      -4.701  11.972  17.514  0.00  0.00    +0.000 Cl
ATOM     14  C   UNL     1      -2.466  10.478  17.324  0.00  0.00    +0.000 A 
ATOM     15  C   UNL     1      -1.212  10.100  17.819  0.00  0.00    +0.000 A 
ATOM     16  N   UNL     1      -0.265   9.218  17.369  0.00  0.00    +0.000 N 
ATOM     17  H   UNL     1      -0.300   8.660  16.526  0.00  0.00    +0.000 HD
ENDBRANCH   2   7
BRANCH   5  18
ATOM     18  C   UNL     1       2.495   4.567  19.240  0.00  0.00    +0.000 A 
ATOM     19  N   UNL     1       1.319   4.065  19.730  0.00  0.00    +0.000 NA
ATOM     20  C   UNL     1       0.881   2.892  19.234  0.00  0.00    +0.000 A 
ATOM     21  C   UNL     1       1.572   2.216  18.258  0.00  0.00    +0.000 A 
ATOM     22  N   UNL     1       2.734   2.678  17.751  0.00  0.00    +0.000 NA
ATOM     23  C   UNL     1       3.209   3.865  18.242  0.00  0.00    +0.000 A 
BRANCH  23  24
ATOM     24  C   UNL     1       4.514   4.275  17.658  0.00  0.00    +0.000 A 
ATOM     25  C   UNL     1       5.723   4.266  18.372  0.00  0.00    +0.000 A 
ATOM     26  C   UNL     1       6.945   4.594  17.772  0.00  0.00    +0.000 A 
ATOM     27  C   UNL     1       6.981   5.003  16.446  0.00  0.00    +0.000 A 
ATOM     28  C   UNL     1       5.797   5.090  15.725  0.00  0.00    +0.000 A 
ATOM     29  C   UNL     1       4.584   4.725  16.322  0.00  0.00    +0.000 A 
ENDBRANCH  23  24
ENDBRANCH   5  18
TORSDOF 3
ENDMDL
MODEL 3
REMARK VINA RESULT:      -8.0      4.399      9.519
REMARK  Name = 
REMARK  3 active torsions:
REMARK  status: ('A' for Active; 'I' for Inactive)
REMARK    1  A    between atoms: C_2  and  C_3
REMARK    2  A    between atoms: C_15  and  C_16
REMARK    3  A    between atoms: C_21  and  C_22
REMARK                            x       y       z     vdW  Elec       q    Type
REMARK                         _______ _______ _______ _____ _____    ______ ____
ROOT
ATOM      1  O   UNL     1       0.379  10.715  22.393  0.00  0.00    +0.000 OA
ATOM      2  C   UNL     1       0.419  10.605  21.166  0.00  0.00    +0.000 C 
ATOM      3  N   UNL     1       0.024  11.619  20.324  0.00  0.00    +0.000 N 
ATOM      4  C   UNL     1      -0.558  12.896  20.683  0.00  0.00    +0.000 C 
ATOM      5  C   UNL     1      -1.541  12.712  19.509  0.00  0.00    +0.000 C 
ATOM      6  C   UNL     1      -0.660  11.531  19.042  0.00  0.00    +0.000 C 
ENDROOT
BRANCH   2   7
ATOM      7  C   UNL     1       0.952   9.418  20.526  0.00  0.00    +0.000 A 
ATOM      8  N   UNL     1       1.486   9.370  19.318  0.00  0.00    +0.000 NA
ATOM      9  C   UNL     1       1.964   8.096  19.176  0.00  0.00    +0.000 A 
ATOM     10  C   UNL     1       2.657   7.528  18.099  0.00  0.00    +0.000 A 
ATOM     11  C   UNL     1       3.058   6.189  18.195  0.00  0.00    +0.000 A 
ATOM     12  C   UNL     1       2.764   5.442  19.337  0.00  0.00    +0.000 A 
ATOM     13 CL   UNL     1       3.268   3.796  19.416  0.00  0.00    +0.000 Cl
ATOM     14  C   UNL     1       2.074   5.991  20.426  0.00  0.00    +0.000 A 
ATOM     15  C   UNL     1       1.693   7.332  20.301  0.00  0.00    +0.000 A 
ATOM     16  N   UNL     1       1.042   8.194  21.145  0.00  0.00    +0.000 N 
ATOM     17  H   UNL     1       0.717   8.003  22.084  0.00  0.00    +0.000 HD
ENDBRANCH   2   7
BRANCH   5  18
ATOM     18  C   UNL     1      -3.071  12.441  19.797  0.00  0.00    +0.000 A 
ATOM     19  N   UNL     1      -3.460  12.953  21.005  0.00  0.00    +0.000 NA
ATOM     20  C   UNL     1      -4.745  12.791  21.374  0.00  0.00    +0.000 A 
ATOM     21  C   UNL     1      -5.653  12.148  20.568  0.00  0.00    +0.000 A 
ATOM     22  N   UNL     1      -5.307  11.629  19.370  0.00  0.00    +0.000 NA
ATOM     23  C   UNL     1      -4.005  11.772  18.973  0.00  0.00    +0.000 A 
BRANCH  23  24
ATOM     24  C   UNL     1      -3.706  11.135  17.663  0.00  0.00    +0.000 A 
ATOM     25  C   UNL     1      -4.200  11.608  16.436  0.00  0.00    +0.000 A 
ATOM     26  C   UNL     1      -3.844  11.025  15.215  0.00  0.00    +0.000 A 
ATOM     27  C   UNL     1      -3.026   9.903  15.191  0.00  0.00    +0.000 A 
ATOM     28  C   UNL     1      -2.572   9.364  16.388  0.00  0.00    +0.000 A 
ATOM     29  C   UNL     1      -2.902   9.976  17.604  0.00  0.00    +0.000 A 
ENDBRANCH  23  24
ENDBRANCH   5  18
TORSDOF 3
ENDMDL
MODEL 4
REMARK VINA RESULT:      -8.0      8.060      9.535
REMARK  Name = 
REMARK  3 active torsions:
REMARK  status: ('A' for Active; 'I' for Inactive)
REMARK    1  A    between atoms: C_2  and  C_3
REMARK    2  A    between atoms: C_15  and  C_16
REMARK    3  A    between atoms: C_21  and  C_22
REMARK                            x       y       z     vdW  Elec       q    Type
REMARK                         _______ _______ _______ _____ _____    ______ ____
ROOT
ATOM      1  O   UNL     1       5.493  17.809  19.296  0.00  0.00    +0.000 OA
ATOM      2  C   UNL     1       5.637  16.658  19.713  0.00  0.00    +0.000 C 
ATOM      3  N   UNL     1       6.767  16.257  20.387  0.00  0.00    +0.000 N 
ATOM      4  C   UNL     1       7.965  17.026  20.649  0.00  0.00    +0.000 C 
ATOM      5  C   UNL     1       8.781  15.766  20.298  0.00  0.00    +0.000 C 
ATOM      6  C   UNL     1       7.455  14.974  20.341  0.00  0.00    +0.000 C 
ENDROOT
BRANCH   2   7
ATOM      7  C   UNL     1       4.590  15.665  19.578  0.00  0.00    +0.000 A 
ATOM      8  N   UNL     1       4.298  14.999  18.473  0.00  0.00    +0.000 NA
ATOM      9  C   UNL     1       3.341  14.090  18.832  0.00  0.00    +0.000 A 
ATOM     10  C   UNL     1       2.716  13.110  18.048  0.00  0.00    +0.000 A 
ATOM     11  C   UNL     1       1.764  12.280  18.653  0.00  0.00    +0.000 A 
ATOM     12  C   UNL     1       1.445  12.435  20.003  0.00  0.00    +0.000 A 
ATOM     13 CL   UNL     1       0.263  11.398  20.710  0.00  0.00    +0.000 Cl
ATOM     14  C   UNL     1       2.059  13.406  20.805  0.00  0.00    +0.000 A 
ATOM     15  C   UNL     1       3.010  14.215  20.173  0.00  0.00    +0.000 A 
ATOM     16  N   UNL     1       3.813  15.228  20.625  0.00  0.00    +0.000 N 
ATOM     17  H   UNL     1       3.878  15.582  21.571  0.00  0.00    +0.000 HD
ENDBRANCH   2   7
BRANCH   5  18
ATOM     18  C   UNL     1       9.638  15.727  18.969  0.00  0.00    +0.000 A 
ATOM     19  N   UNL     1       9.843  16.980  18.459  0.00  0.00    +0.000 NA
ATOM     20  C   UNL     1      10.560  17.088  17.325  0.00  0.00    +0.000 A 
ATOM     21  C   UNL     1      11.090  15.987  16.695  0.00  0.00    +0.000 A 
ATOM     22  N   UNL     1      10.908  14.735  17.168  0.00  0.00    +0.000 NA
ATOM     23  C   UNL     1      10.175  14.594  18.316  0.00  0.00    +0.000 A 
BRANCH  23  24
ATOM     24  C   UNL     1       9.991  13.180  18.738  0.00  0.00    +0.000 A 
ATOM     25  C   UNL     1      10.472  12.661  19.952  0.00  0.00    +0.000 A 
ATOM     26  C   UNL     1      10.223  11.343  20.349  0.00  0.00    +0.000 A 
ATOM     27  C   UNL     1       9.533  10.481  19.508  0.00  0.00    +0.000 A 
ATOM     28  C   UNL     1       9.101  10.937  18.269  0.00  0.00    +0.000 A 
ATOM     29  C   UNL     1       9.321  12.268  17.895  0.00  0.00    +0.000 A 
ENDBRANCH  23  24
ENDBRANCH   5  18
TORSDOF 3
ENDMDL
MODEL 5
REMARK VINA RESULT:      -8.0      4.702      9.627
REMARK  Name = 
REMARK  3 active torsions:
REMARK  status: ('A' for Active; 'I' for Inactive)
REMARK    1  A    between atoms: C_2  and  C_3
REMARK    2  A    between atoms: C_15  and  C_16
REMARK    3  A    between atoms: C_21  and  C_22
REMARK                            x       y       z     vdW  Elec       q    Type
REMARK                         _______ _______ _______ _____ _____    ______ ____
ROOT
ATOM      1  O   UNL     1      -0.084  11.004  22.791  0.00  0.00    +0.000 OA
ATOM      2  C   UNL     1       0.076  10.835  21.581  0.00  0.00    +0.000 C 
ATOM      3  N   UNL     1      -0.300  11.776  20.651  0.00  0.00    +0.000 N 
ATOM      4  C   UNL     1      -0.990  13.028  20.883  0.00  0.00    +0.000 C 
ATOM      5  C   UNL     1      -1.845  12.720  19.638  0.00  0.00    +0.000 C 
ATOM      6  C   UNL     1      -0.854  11.578  19.320  0.00  0.00    +0.000 C 
ENDROOT
BRANCH   2   7
ATOM      7  C   UNL     1       0.739   9.655  21.060  0.00  0.00    +0.000 A 
ATOM      8  N   UNL     1       0.735   8.458  21.623  0.00  0.00    +0.000 NA
ATOM      9  C   UNL     1       1.368   7.631  20.737  0.00  0.00    +0.000 A 
ATOM     10  C   UNL     1       1.597   6.251  20.826  0.00  0.00    +0.000 A 
ATOM     11  C   UNL     1       2.265   5.617  19.772  0.00  0.00    +0.000 A 
ATOM     12  C   UNL     1       2.697   6.348  18.664  0.00  0.00    +0.000 A 
ATOM     13 CL   UNL     1       3.521   5.533  17.389  0.00  0.00    +0.000 Cl
ATOM     14  C   UNL     1       2.476   7.727  18.554  0.00  0.00    +0.000 A 
ATOM     15  C   UNL     1       1.800   8.330  19.621  0.00  0.00    +0.000 A 
ATOM     16  N   UNL     1       1.394   9.618  19.852  0.00  0.00    +0.000 N 
ATOM     17  H   UNL     1       1.502  10.414  19.236  0.00  0.00    +0.000 HD
ENDBRANCH   2   7
BRANCH   5  18
ATOM     18  C   UNL     1      -3.377  12.364  19.802  0.00  0.00    +0.000 A 
ATOM     19  N   UNL     1      -3.889  12.849  20.975  0.00  0.00    +0.000 NA
ATOM     20  C   UNL     1      -5.188  12.613  21.239  0.00  0.00    +0.000 A 
ATOM     21  C   UNL     1      -5.991  11.924  20.364  0.00  0.00    +0.000 A 
ATOM     22  N   UNL     1      -5.522  11.430  19.198  0.00  0.00    +0.000 NA
ATOM     23  C   UNL     1      -4.202  11.647  18.906  0.00  0.00    +0.000 A 
BRANCH  23  24
ATOM     24  C   UNL     1      -3.764  11.032  17.625  0.00  0.00    +0.000 A 
ATOM     25  C   UNL     1      -2.912   9.918  17.548  0.00  0.00    +0.000 A 
ATOM     26  C   UNL     1      -2.574   9.323  16.327  0.00  0.00    +0.000 A 
ATOM     27  C   UNL     1      -3.032   9.868  15.136  0.00  0.00    +0.000 A 
ATOM     28  C   UNL     1      -3.821  11.011  15.167  0.00  0.00    +0.000 A 
ATOM     29  C   UNL     1      -4.186  11.579  16.394  0.00  0.00    +0.000 A 
ENDBRANCH  23  24
ENDBRANCH   5  18
TORSDOF 3
ENDMDL
MODEL 6
REMARK VINA RESULT:      -8.0      4.707      9.845
REMARK  Name = 
REMARK  3 active torsions:
REMARK  status: ('A' for Active; 'I' for Inactive)
REMARK    1  A    between atoms: C_2  and  C_3
REMARK    2  A    between atoms: C_15  and  C_16
REMARK    3  A    between atoms: C_21  and  C_22
REMARK                            x       y       z     vdW  Elec       q    Type
REMARK                         _______ _______ _______ _____ _____    ______ ____
ROOT
ATOM      1  O   UNL     1      -0.724  10.596  22.574  0.00  0.00    +0.000 OA
ATOM      2  C   UNL     1      -0.539  10.802  21.373  0.00  0.00    +0.000 C 
ATOM      3  N   UNL     1      -1.012  11.927  20.739  0.00  0.00    +0.000 N 
ATOM      4  C   UNL     1      -1.838  12.979  21.295  0.00  0.00    +0.000 C 
ATOM      5  C   UNL     1      -2.647  12.957  19.983  0.00  0.00    +0.000 C 
ATOM      6  C   UNL     1      -1.534  12.066  19.387  0.00  0.00    +0.000 C 
ENDROOT
BRANCH   2   7
ATOM      7  C   UNL     1       0.253   9.899  20.560  0.00  0.00    +0.000 A 
ATOM      8  N   UNL     1       0.698  10.151  19.341  0.00  0.00    +0.000 NA
ATOM      9  C   UNL     1       1.494   9.088  19.011  0.00  0.00    +0.000 A 
ATOM     10  C   UNL     1       2.241   8.874  17.845  0.00  0.00    +0.000 A 
ATOM     11  C   UNL     1       2.996   7.699  17.744  0.00  0.00    +0.000 A 
ATOM     12  C   UNL     1       2.994   6.764  18.781  0.00  0.00    +0.000 A 
ATOM     13 CL   UNL     1       3.931   5.327  18.618  0.00  0.00    +0.000 Cl
ATOM     14  C   UNL     1       2.255   6.960  19.955  0.00  0.00    +0.000 A 
ATOM     15  C   UNL     1       1.517   8.147  20.028  0.00  0.00    +0.000 A 
ATOM     16  N   UNL     1       0.714   8.681  21.001  0.00  0.00    +0.000 N 
ATOM     17  H   UNL     1       0.517   8.292  21.914  0.00  0.00    +0.000 HD
ENDBRANCH   2   7
BRANCH   5  18
ATOM     18  C   UNL     1      -4.131  12.410  19.981  0.00  0.00    +0.000 A 
ATOM     19  N   UNL     1      -4.822  12.811  21.092  0.00  0.00    +0.000 NA
ATOM     20  C   UNL     1      -6.102  12.412  21.214  0.00  0.00    +0.000 A 
ATOM     21  C   UNL     1      -6.715  11.640  20.256  0.00  0.00    +0.000 A 
ATOM     22  N   UNL     1      -6.065  11.225  19.148  0.00  0.00    +0.000 NA
ATOM     23  C   UNL     1      -4.759  11.609  19.000  0.00  0.00    +0.000 A 
BRANCH  23  24
ATOM     24  C   UNL     1      -4.113  11.072  17.774  0.00  0.00    +0.000 A 
ATOM     25  C   UNL     1      -4.334  11.590  16.487  0.00  0.00    +0.000 A 
ATOM     26  C   UNL     1      -3.657  11.105  15.362  0.00  0.00    +0.000 A 
ATOM     27  C   UNL     1      -2.779  10.036  15.485  0.00  0.00    +0.000 A 
ATOM     28  C   UNL     1      -2.586   9.452  16.730  0.00  0.00    +0.000 A 
ATOM     29  C   UNL     1      -3.238   9.968  17.857  0.00  0.00    +0.000 A 
ENDBRANCH  23  24
ENDBRANCH   5  18
TORSDOF 3
ENDMDL
MODEL 7
REMARK VINA RESULT:      -8.0      2.144      3.452
REMARK  Name = 
REMARK  3 active torsions:
REMARK  status: ('A' for Active; 'I' for Inactive)
REMARK    1  A    between atoms: C_2  and  C_3
REMARK    2  A    between atoms: C_15  and  C_16
REMARK    3  A    between atoms: C_21  and  C_22
REMARK                            x       y       z     vdW  Elec       q    Type
REMARK                         _______ _______ _______ _____ _____    ______ ____
ROOT
ATOM      1  O   UNL     1       1.112   9.054  17.171  0.00  0.00    +0.000 OA
ATOM      2  C   UNL     1       1.419   8.885  18.353  0.00  0.00    +0.000 C 
ATOM      3  N   UNL     1       2.565   8.221  18.726  0.00  0.00    +0.000 N 
ATOM      4  C   UNL     1       3.526   7.558  17.870  0.00  0.00    +0.000 C 
ATOM      5  C   UNL     1       3.565   6.411  18.899  0.00  0.00    +0.000 C 
ATOM      6  C   UNL     1       2.781   7.334  19.860  0.00  0.00    +0.000 C 
ENDROOT
BRANCH   2   7
ATOM      7  C   UNL     1       0.624   9.439  19.432  0.00  0.00    +0.000 A 
ATOM      8  N   UNL     1       0.587   8.983  20.672  0.00  0.00    +0.000 NA
ATOM      9  C   UNL     1      -0.184   9.872  21.369  0.00  0.00    +0.000 A 
ATOM     10  C   UNL     1      -0.509   9.880  22.732  0.00  0.00    +0.000 A 
ATOM     11  C   UNL     1      -1.316  10.916  23.219  0.00  0.00    +0.000 A 
ATOM     12  C   UNL     1      -1.788  11.910  22.360  0.00  0.00    +0.000 A 
ATOM     13 CL   UNL     1      -2.784  13.165  22.996  0.00  0.00    +0.000 Cl
ATOM     14  C   UNL     1      -1.473  11.922  20.995  0.00  0.00    +0.000 A 
ATOM     15  C   UNL     1      -0.660  10.878  20.541  0.00  0.00    +0.000 A 
ATOM     16  N   UNL     1      -0.138  10.577  19.311  0.00  0.00    +0.000 N 
ATOM     17  H   UNL     1      -0.239  11.109  18.456  0.00  0.00    +0.000 HD
ENDBRANCH   2   7
BRANCH   5  18
ATOM     18  C   UNL     1       2.944   5.003  18.535  0.00  0.00    +0.000 A 
ATOM     19  N   UNL     1       1.810   4.746  19.257  0.00  0.00    +0.000 NA
ATOM     20  C   UNL     1       1.180   3.576  19.043  0.00  0.00    +0.000 A 
ATOM     21  C   UNL     1       1.639   2.665  18.122  0.00  0.00    +0.000 A 
ATOM     22  N   UNL     1       2.753   2.883  17.393  0.00  0.00    +0.000 NA
ATOM     23  C   UNL     1       3.420   4.062  17.595  0.00  0.00    +0.000 A 
BRANCH  23  24
ATOM     24  C   UNL     1       4.657   4.197  16.780  0.00  0.00    +0.000 A 
ATOM     25  C   UNL     1       4.673   4.152  15.377  0.00  0.00    +0.000 A 
ATOM     26  C   UNL     1       5.845   4.350  14.638  0.00  0.00    +0.000 A 
ATOM     27  C   UNL     1       7.055   4.540  15.292  0.00  0.00    +0.000 A 
ATOM     28  C   UNL     1       7.092   4.523  16.680  0.00  0.00    +0.000 A 
ATOM     29  C   UNL     1       5.908   4.361  17.411  0.00  0.00    +0.000 A 
ENDBRANCH  23  24
ENDBRANCH   5  18
TORSDOF 3
ENDMDL
MODEL 8
REMARK VINA RESULT:      -7.9      0.810      1.363
REMARK  Name = 
REMARK  3 active torsions:
REMARK  status: ('A' for Active; 'I' for Inactive)
REMARK    1  A    between atoms: C_2  and  C_3
REMARK    2  A    between atoms: C_15  and  C_16
REMARK    3  A    between atoms: C_21  and  C_22
REMARK                            x       y       z     vdW  Elec       q    Type
REMARK                         _______ _______ _______ _____ _____    ______ ____
ROOT
ATOM      1  O   UNL     1       2.155   5.178  21.005  0.00  0.00    +0.000 OA
ATOM      2  C   UNL     1       2.109   5.942  20.039  0.00  0.00    +0.000 C 
ATOM      3  N   UNL     1       2.461   5.544  18.770  0.00  0.00    +0.000 N 
ATOM      4  C   UNL     1       2.999   4.265  18.358  0.00  0.00    +0.000 C 
ATOM      5  C   UNL     1       3.978   5.035  17.450  0.00  0.00    +0.000 C 
ATOM      6  C   UNL     1       3.137   6.301  17.727  0.00  0.00    +0.000 C 
ENDROOT
BRANCH   2   7
ATOM      7  C   UNL     1       1.614   7.299  20.167  0.00  0.00    +0.000 A 
ATOM      8  N   UNL     1       1.093   7.829  21.260  0.00  0.00    +0.000 NA
ATOM      9  C   UNL     1       0.882   9.148  20.968  0.00  0.00    +0.000 A 
ATOM     10  C   UNL     1       0.385  10.166  21.792  0.00  0.00    +0.000 A 
ATOM     11  C   UNL     1       0.269  11.457  21.261  0.00  0.00    +0.000 A 
ATOM     12  C   UNL     1       0.636  11.715  19.938  0.00  0.00    +0.000 A 
ATOM     13 CL   UNL     1       0.474  13.314  19.319  0.00  0.00    +0.000 Cl
ATOM     14  C   UNL     1       1.137  10.711  19.099  0.00  0.00    +0.000 A 
ATOM     15  C   UNL     1       1.246   9.434  19.661  0.00  0.00    +0.000 A 
ATOM     16  N   UNL     1       1.703   8.240  19.169  0.00  0.00    +0.000 N 
ATOM     17  H   UNL     1       2.090   8.064  18.250  0.00  0.00    +0.000 HD
ENDBRANCH   2   7
BRANCH   5  18
ATOM     18  C   UNL     1       5.520   5.065  17.798  0.00  0.00    +0.000 A 
ATOM     19  N   UNL     1       5.738   5.359  19.117  0.00  0.00    +0.000 NA
ATOM     20  C   UNL     1       7.012   5.416  19.547  0.00  0.00    +0.000 A 
ATOM     21  C   UNL     1       8.072   5.175  18.706  0.00  0.00    +0.000 A 
ATOM     22  N   UNL     1       7.897   4.883  17.400  0.00  0.00    +0.000 NA
ATOM     23  C   UNL     1       6.611   4.826  16.932  0.00  0.00    +0.000 A 
BRANCH  23  24
ATOM     24  C   UNL     1       6.517   4.540  15.476  0.00  0.00    +0.000 A 
ATOM     25  C   UNL     1       5.528   3.720  14.906  0.00  0.00    +0.000 A 
ATOM     26  C   UNL     1       5.427   3.527  13.524  0.00  0.00    +0.000 A 
ATOM     27  C   UNL     1       6.358   4.103  12.670  0.00  0.00    +0.000 A 
ATOM     28  C   UNL     1       7.391   4.864  13.201  0.00  0.00    +0.000 A 
ATOM     29  C   UNL     1       7.463   5.084  14.582  0.00  0.00    +0.000 A 
ENDBRANCH  23  24
ENDBRANCH   5  18
TORSDOF 3
ENDMDL
MODEL 9
REMARK VINA RESULT:      -7.9      5.307     11.495
REMARK  Name = 
REMARK  3 active torsions:
REMARK  status: ('A' for Active; 'I' for Inactive)
REMARK    1  A    between atoms: C_2  and  C_3
REMARK    2  A    between atoms: C_15  and  C_16
REMARK    3  A    between atoms: C_21  and  C_22
REMARK                            x       y       z     vdW  Elec       q    Type
REMARK                         _______ _______ _______ _____ _____    ______ ____
ROOT
ATOM      1  O   UNL     1       0.728  12.970  21.961  0.00  0.00    +0.000 OA
ATOM      2  C   UNL     1       0.111  12.456  21.026  0.00  0.00    +0.000 C 
ATOM      3  N   UNL     1      -0.997  13.046  20.464  0.00  0.00    +0.000 N 
ATOM      4  C   UNL     1      -1.666  14.260  20.884  0.00  0.00    +0.000 C 
ATOM      5  C   UNL     1      -3.005  13.535  20.646  0.00  0.00    +0.000 C 
ATOM      6  C   UNL     1      -2.202  12.419  19.940  0.00  0.00    +0.000 C 
ENDROOT
BRANCH   2   7
ATOM      7  C   UNL     1       0.557  11.221  20.410  0.00  0.00    +0.000 A 
ATOM      8  N   UNL     1       0.888  11.072  19.138  0.00  0.00    +0.000 NA
ATOM      9  C   UNL     1       1.362   9.794  19.027  0.00  0.00    +0.000 A 
ATOM     10  C   UNL     1       1.882   9.140  17.903  0.00  0.00    +0.000 A 
ATOM     11  C   UNL     1       2.319   7.816  18.044  0.00  0.00    +0.000 A 
ATOM     12  C   UNL     1       2.229   7.168  19.277  0.00  0.00    +0.000 A 
ATOM     13 CL   UNL     1       2.771   5.538  19.410  0.00  0.00    +0.000 Cl
ATOM     14  C   UNL     1       1.714   7.805  20.414  0.00  0.00    +0.000 A 
ATOM     15  C   UNL     1       1.292   9.128  20.242  0.00  0.00    +0.000 A 
ATOM     16  N   UNL     1       0.770  10.055  21.105  0.00  0.00    +0.000 N 
ATOM     17  H   UNL     1       0.606   9.943  22.097  0.00  0.00    +0.000 HD
ENDBRANCH   2   7
BRANCH   5  18
ATOM     18  C   UNL     1      -3.918  13.141  21.876  0.00  0.00    +0.000 A 
ATOM     19  N   UNL     1      -3.200  13.070  23.040  0.00  0.00    +0.000 NA
ATOM     20  C   UNL     1      -3.860  12.743  24.166  0.00  0.00    +0.000 A 
ATOM     21  C   UNL     1      -5.212  12.500  24.169  0.00  0.00    +0.000 A 
ATOM     22  N   UNL     1      -5.953  12.560  23.042  0.00  0.00    +0.000 NA
ATOM     23  C   UNL     1      -5.307  12.883  21.878  0.00  0.00    +0.000 A 
BRANCH  23  24
ATOM     24  C   UNL     1      -6.193  12.883  20.683  0.00  0.00    +0.000 A 
ATOM     25  C   UNL     1      -7.078  13.928  20.372  0.00  0.00    +0.000 A 
ATOM     26  C   UNL     1      -7.848  13.928  19.203  0.00  0.00    +0.000 A 
ATOM     27  C   UNL     1      -7.799  12.844  18.337  0.00  0.00    +0.000 A 
ATOM     28  C   UNL     1      -6.987  11.761  18.645  0.00  0.00    +0.000 A 
ATOM     29  C   UNL     1      -6.191  11.785  19.798  0.00  0.00    +0.000 A 
ENDBRANCH  23  24
ENDBRANCH   5  18
TORSDOF 3
ENDMDL
