MODEL 1
REMARK VINA RESULT:      -8.1      0.000      0.000
REMARK  Name = 
REMARK  7 active torsions:
REMARK  status: ('A' for Active; 'I' for Inactive)
REMARK    1  A    between atoms: C_1  and  O_2
REMARK    2  A    between atoms: O_2  and  C_3
REMARK    3  A    between atoms: C_8  and  O_9
REMARK    4  A    between atoms: O_9  and  C_10
REMARK    5  A    between atoms: C_10  and  C_11
REMARK    6  A    between atoms: C_11  and  O_13
REMARK    7  A    between atoms: N_16  and  C_17
REMARK                            x       y       z     vdW  Elec       q    Type
REMARK                         _______ _______ _______ _____ _____    ______ ____
ROOT
ATOM      1  C   UNL     1       6.773   6.205  17.320  0.00  0.00    +0.000 C 
ATOM      2  C   UNL     1       6.860   5.173  18.438  0.00  0.00    +0.000 C 
ATOM      3  C   UNL     1       5.607   4.365  18.722  0.00  0.00    +0.000 C 
ATOM      4  N   UNL     1       4.358   5.105  18.509  0.00  0.00    +0.000 N 
ATOM      5  C   UNL     1       4.170   6.056  17.415  0.00  0.00    +0.000 C 
ATOM      6  C   UNL     1       5.414   6.862  17.061  0.00  0.00    +0.000 C 
ENDROOT
BRANCH   4   7
ATOM      7  C   UNL     1       3.231   4.451  19.038  0.00  0.00    +0.000 A 
ATOM      8  N   UNL     1       2.894   4.764  20.316  0.00  0.00    +0.000 NA
ATOM      9  C   UNL     1       1.715   4.341  20.818  0.00  0.00    +0.000 A 
ATOM     10  C   UNL     1       0.815   3.570  20.114  0.00  0.00    +0.000 A 
ATOM     11  C   UNL     1       1.184   3.154  18.844  0.00  0.00    +0.000 A 
ATOM     12  C   UNL     1       2.399   3.582  18.311  0.00  0.00    +0.000 A 
ATOM     13  F   UNL     1       2.730   3.124  17.094  0.00  0.00    +0.000 F 
ENDBRANCH   4   7
BRANCH   1  14
ATOM     14  C   UNL     1       7.714   7.366  17.792  0.00  0.00    +0.000 C 
ATOM     15  O   UNL     1       7.866   8.442  17.207  0.00  0.00    +0.000 OA
BRANCH  14  16
ATOM     16  O   UNL     1       8.412   7.068  18.918  0.00  0.00    +0.000 OA
ATOM     17  H   UNL     1       9.359   6.901  18.698  0.00  0.00    +0.000 HD
ENDBRANCH  14  16
ENDBRANCH   1  14
BRANCH   1  18
ATOM     18  O   UNL     1       7.412   5.756  16.096  0.00  0.00    +0.000 OA
BRANCH  18  24
ATOM     19  C   UNL     1       7.387   5.022  13.859  0.00  0.00    +0.000 A 
ATOM     20  C   UNL     1       6.807   4.263  12.833  0.00  0.00    +0.000 A 
ATOM     21  C   UNL     1       5.651   3.495  13.080  0.00  0.00    +0.000 A 
ATOM     22  C   UNL     1       5.067   3.477  14.335  0.00  0.00    +0.000 A 
ATOM     23  C   UNL     1       5.659   4.243  15.328  0.00  0.00    +0.000 A 
ATOM     24  C   UNL     1       6.800   5.004  15.135  0.00  0.00    +0.000 A 
BRANCH  19  26
ATOM     25  C   UNL     1       9.061   6.212  12.553  0.00  0.00    +0.000 C 
ATOM     26  O   UNL     1       8.499   5.810  13.788  0.00  0.00    +0.000 OA
ENDBRANCH  19  26
ENDBRANCH  18  24
ENDBRANCH   1  18
TORSDOF 6
ENDMDL
MODEL 2
REMARK VINA RESULT:      -8.0      1.118      1.325
REMARK  Name = 
REMARK  7 active torsions:
REMARK  status: ('A' for Active; 'I' for Inactive)
REMARK    1  A    between atoms: C_1  and  O_2
REMARK    2  A    between atoms: O_2  and  C_3
REMARK    3  A    between atoms: C_8  and  O_9
REMARK    4  A    between atoms: O_9  and  C_10
REMARK    5  A    between atoms: C_10  and  C_11
REMARK    6  A    between atoms: C_11  and  O_13
REMARK    7  A    between atoms: N_16  and  C_17
REMARK                            x       y       z     vdW  Elec       q    Type
REMARK                         _______ _______ _______ _____ _____    ______ ____
ROOT
ATOM      1  C   UNL     1       6.687   5.926  17.307  0.00  0.00    +0.000 C 
ATOM      2  C   UNL     1       6.631   4.982  18.502  0.00  0.00    +0.000 C 
ATOM      3  C   UNL     1       5.321   4.253  18.736  0.00  0.00    +0.000 C 
ATOM      4  N   UNL     1       4.131   5.026  18.363  0.00  0.00    +0.000 N 
ATOM      5  C   UNL     1       4.082   5.896  17.189  0.00  0.00    +0.000 C 
ATOM      6  C   UNL     1       5.388   6.619  16.884  0.00  0.00    +0.000 C 
ENDROOT
BRANCH   4   7
ATOM      7  C   UNL     1       2.934   4.464  18.839  0.00  0.00    +0.000 A 
ATOM      8  N   UNL     1       2.585   3.257  18.323  0.00  0.00    +0.000 NA
ATOM      9  C   UNL     1       1.569   2.563  18.878  0.00  0.00    +0.000 A 
ATOM     10  C   UNL     1       0.824   3.017  19.945  0.00  0.00    +0.000 A 
ATOM     11  C   UNL     1       1.096   4.289  20.421  0.00  0.00    +0.000 A 
ATOM     12  C   UNL     1       2.142   5.020  19.858  0.00  0.00    +0.000 A 
ATOM     13  F   UNL     1       2.344   6.261  20.328  0.00  0.00    +0.000 F 
ENDBRANCH   4   7
BRANCH   1  14
ATOM     14  C   UNL     1       7.642   7.079  17.771  0.00  0.00    +0.000 C 
ATOM     15  O   UNL     1       7.843   8.129  17.153  0.00  0.00    +0.000 OA
BRANCH  14  16
ATOM     16  O   UNL     1       8.291   6.806  18.932  0.00  0.00    +0.000 OA
ATOM     17  H   UNL     1       8.217   7.571  19.551  0.00  0.00    +0.000 HD
ENDBRANCH  14  16
ENDBRANCH   1  14
BRANCH   1  18
ATOM     18  O   UNL     1       7.402   5.357  16.179  0.00  0.00    +0.000 OA
BRANCH  18  24
ATOM     19  C   UNL     1       7.374   4.983  13.855  0.00  0.00    +0.000 A 
ATOM     20  C   UNL     1       6.809   4.372  12.726  0.00  0.00    +0.000 A 
ATOM     21  C   UNL     1       5.687   3.531  12.857  0.00  0.00    +0.000 A 
ATOM     22  C   UNL     1       5.121   3.292  14.099  0.00  0.00    +0.000 A 
ATOM     23  C   UNL     1       5.697   3.916  15.195  0.00  0.00    +0.000 A 
ATOM     24  C   UNL     1       6.806   4.742  15.116  0.00  0.00    +0.000 A 
BRANCH  19  26
ATOM     25  C   UNL     1       9.200   6.147  12.744  0.00  0.00    +0.000 C 
ATOM     26  O   UNL     1       8.455   5.815  13.900  0.00  0.00    +0.000 OA
ENDBRANCH  19  26
ENDBRANCH  18  24
ENDBRANCH   1  18
TORSDOF 6
ENDMDL
MODEL 3
REMARK VINA RESULT:      -7.8      3.642      5.276
REMARK  Name = 
REMARK  7 active torsions:
REMARK  status: ('A' for Active; 'I' for Inactive)
REMARK    1  A    between atoms: C_1  and  O_2
REMARK    2  A    between atoms: O_2  and  C_3
REMARK    3  A    between atoms: C_8  and  O_9
REMARK    4  A    between atoms: O_9  and  C_10
REMARK    5  A    between atoms: C_10  and  C_11
REMARK    6  A    between atoms: C_11  and  O_13
REMARK    7  A    between atoms: N_16  and  C_17
REMARK                            x       y       z     vdW  Elec       q    Type
REMARK                         _______ _______ _______ _____ _____    ______ ____
ROOT
ATOM      1  C   UNL     1       3.187   3.813  18.752  0.00  0.00    +0.000 C 
ATOM      2  C   UNL     1       2.479   4.565  17.631  0.00  0.00    +0.000 C 
ATOM      3  C   UNL     1       2.424   6.077  17.751  0.00  0.00    +0.000 C 
ATOM      4  N   UNL     1       2.325   6.565  19.131  0.00  0.00    +0.000 N 
ATOM      5  C   UNL     1       3.033   5.943  20.249  0.00  0.00    +0.000 C 
ATOM      6  C   UNL     1       3.154   4.427  20.155  0.00  0.00    +0.000 C 
ENDROOT
BRANCH   4   7
ATOM      7  C   UNL     1       1.995   7.929  19.214  0.00  0.00    +0.000 A 
ATOM      8  N   UNL     1       2.277   8.687  18.123  0.00  0.00    +0.000 NA
ATOM      9  C   UNL     1       1.804   9.948  18.047  0.00  0.00    +0.000 A 
ATOM     10  C   UNL     1       1.054  10.547  19.036  0.00  0.00    +0.000 A 
ATOM     11  C   UNL     1       0.841   9.828  20.201  0.00  0.00    +0.000 A 
ATOM     12  C   UNL     1       1.324   8.523  20.297  0.00  0.00    +0.000 A 
ATOM     13  F   UNL     1       1.125   7.879  21.458  0.00  0.00    +0.000 F 
ENDBRANCH   4   7
BRANCH   1  14
ATOM     14  C   UNL     1       2.398   2.464  18.869  0.00  0.00    +0.000 C 
ATOM     15  O   UNL     1       1.821   2.062  19.884  0.00  0.00    +0.000 OA
BRANCH  14  16
ATOM     16  O   UNL     1       2.434   1.719  17.733  0.00  0.00    +0.000 OA
ATOM     17  H   UNL     1       2.504   2.308  16.944  0.00  0.00    +0.000 HD
ENDBRANCH  14  16
ENDBRANCH   1  14
BRANCH   1  18
ATOM     18  O   UNL     1       4.516   3.371  18.373  0.00  0.00    +0.000 OA
BRANCH  18  24
ATOM     19  C   UNL     1       6.348   4.696  17.715  0.00  0.00    +0.000 A 
ATOM     20  C   UNL     1       7.140   5.264  16.707  0.00  0.00    +0.000 A 
ATOM     21  C   UNL     1       6.833   5.044  15.349  0.00  0.00    +0.000 A 
ATOM     22  C   UNL     1       5.746   4.267  14.985  0.00  0.00    +0.000 A 
ATOM     23  C   UNL     1       4.978   3.725  16.004  0.00  0.00    +0.000 A 
ATOM     24  C   UNL     1       5.247   3.905  17.350  0.00  0.00    +0.000 A 
BRANCH  19  26
ATOM     25  C   UNL     1       7.513   5.621  19.641  0.00  0.00    +0.000 C 
ATOM     26  O   UNL     1       6.510   4.806  19.065  0.00  0.00    +0.000 OA
ENDBRANCH  19  26
ENDBRANCH  18  24
ENDBRANCH   1  18
TORSDOF 6
ENDMDL
MODEL 4
REMARK VINA RESULT:      -7.6      2.432      5.931
REMARK  Name = 
REMARK  7 active torsions:
REMARK  status: ('A' for Active; 'I' for Inactive)
REMARK    1  A    between atoms: C_1  and  O_2
REMARK    2  A    between atoms: O_2  and  C_3
REMARK    3  A    between atoms: C_8  and  O_9
REMARK    4  A    between atoms: O_9  and  C_10
REMARK    5  A    between atoms: C_10  and  C_11
REMARK    6  A    between atoms: C_11  and  O_13
REMARK    7  A    between atoms: N_16  and  C_17
REMARK                            x       y       z     vdW  Elec       q    Type
REMARK                         _______ _______ _______ _____ _____    ______ ____
ROOT
ATOM      1  C   UNL     1       6.832   5.716  18.397  0.00  0.00    +0.000 C 
ATOM      2  C   UNL     1       6.521   6.798  17.370  0.00  0.00    +0.000 C 
ATOM      3  C   UNL     1       6.172   6.330  15.969  0.00  0.00    +0.000 C 
ATOM      4  N   UNL     1       6.874   5.111  15.553  0.00  0.00    +0.000 N 
ATOM      5  C   UNL     1       7.143   3.997  16.460  0.00  0.00    +0.000 C 
ATOM      6  C   UNL     1       7.457   4.412  17.892  0.00  0.00    +0.000 C 
ENDROOT
BRANCH   4   7
ATOM      7  C   UNL     1       6.761   4.850  14.176  0.00  0.00    +0.000 A 
ATOM      8  N   UNL     1       7.712   5.397  13.376  0.00  0.00    +0.000 NA
ATOM      9  C   UNL     1       7.791   5.024  12.082  0.00  0.00    +0.000 A 
ATOM     10  C   UNL     1       6.935   4.120  11.491  0.00  0.00    +0.000 A 
ATOM     11  C   UNL     1       5.894   3.626  12.262  0.00  0.00    +0.000 A 
ATOM     12  C   UNL     1       5.798   4.003  13.601  0.00  0.00    +0.000 A 
ATOM     13  F   UNL     1       4.753   3.528  14.297  0.00  0.00    +0.000 F 
ENDBRANCH   4   7
BRANCH   1  14
ATOM     14  C   UNL     1       7.915   6.365  19.326  0.00  0.00    +0.000 C 
ATOM     15  O   UNL     1       8.571   7.375  19.057  0.00  0.00    +0.000 OA
BRANCH  14  16
ATOM     16  O   UNL     1       8.114   5.678  20.481  0.00  0.00    +0.000 OA
ATOM     17  H   UNL     1       7.374   5.852  21.111  0.00  0.00    +0.000 HD
ENDBRANCH  14  16
ENDBRANCH   1  14
BRANCH   1  18
ATOM     18  O   UNL     1       5.729   5.483  19.312  0.00  0.00    +0.000 OA
BRANCH  18  24
ATOM     19  C   UNL     1       3.997   3.912  19.039  0.00  0.00    +0.000 A 
ATOM     20  C   UNL     1       2.682   3.601  18.664  0.00  0.00    +0.000 A 
ATOM     21  C   UNL     1       1.822   4.607  18.180  0.00  0.00    +0.000 A 
ATOM     22  C   UNL     1       2.258   5.917  18.064  0.00  0.00    +0.000 A 
ATOM     23  C   UNL     1       3.565   6.192  18.436  0.00  0.00    +0.000 A 
ATOM     24  C   UNL     1       4.443   5.238  18.925  0.00  0.00    +0.000 A 
BRANCH  19  26
ATOM     25  C   UNL     1       4.632   2.001  20.407  0.00  0.00    +0.000 C 
ATOM     26  O   UNL     1       4.948   3.062  19.526  0.00  0.00    +0.000 OA
ENDBRANCH  19  26
ENDBRANCH  18  24
ENDBRANCH   1  18
TORSDOF 6
ENDMDL
MODEL 5
REMARK VINA RESULT:      -7.6      3.647      5.368
REMARK  Name = 
REMARK  7 active torsions:
REMARK  status: ('A' for Active; 'I' for Inactive)
REMARK    1  A    between atoms: C_1  and  O_2
REMARK    2  A    between atoms: O_2  and  C_3
REMARK    3  A    between atoms: C_8  and  O_9
REMARK    4  A    between atoms: O_9  and  C_10
REMARK    5  A    between atoms: C_10  and  C_11
REMARK    6  A    between atoms: C_11  and  O_13
REMARK    7  A    between atoms: N_16  and  C_17
REMARK                            x       y       z     vdW  Elec       q    Type
REMARK                         _______ _______ _______ _____ _____    ______ ____
ROOT
ATOM      1  C   UNL     1       3.096   3.812  18.647  0.00  0.00    +0.000 C 
ATOM      2  C   UNL     1       2.510   4.688  17.546  0.00  0.00    +0.000 C 
ATOM      3  C   UNL     1       2.443   6.179  17.822  0.00  0.00    +0.000 C 
ATOM      4  N   UNL     1       2.201   6.516  19.229  0.00  0.00    +0.000 N 
ATOM      5  C   UNL     1       2.788   5.771  20.341  0.00  0.00    +0.000 C 
ATOM      6  C   UNL     1       2.917   4.272  20.097  0.00  0.00    +0.000 C 
ENDROOT
BRANCH   4   7
ATOM      7  C   UNL     1       1.864   7.868  19.424  0.00  0.00    +0.000 A 
ATOM      8  N   UNL     1       2.011   8.688  18.351  0.00  0.00    +0.000 NA
ATOM      9  C   UNL     1       1.515   9.942  18.398  0.00  0.00    +0.000 A 
ATOM     10  C   UNL     1       0.875  10.473  19.497  0.00  0.00    +0.000 A 
ATOM     11  C   UNL     1       0.805   9.689  20.638  0.00  0.00    +0.000 A 
ATOM     12  C   UNL     1       1.314   8.390  20.606  0.00  0.00    +0.000 A 
ATOM     13  F   UNL     1       1.256   7.682  21.745  0.00  0.00    +0.000 F 
ENDBRANCH   4   7
BRANCH   1  14
ATOM     14  C   UNL     1       2.299   2.467  18.535  0.00  0.00    +0.000 C 
ATOM     15  O   UNL     1       1.071   2.359  18.594  0.00  0.00    +0.000 OA
BRANCH  14  16
ATOM     16  O   UNL     1       3.100   1.377  18.405  0.00  0.00    +0.000 OA
ATOM     17  H   UNL     1       2.610   0.646  17.957  0.00  0.00    +0.000 HD
ENDBRANCH  14  16
ENDBRANCH   1  14
BRANCH   1  18
ATOM     18  O   UNL     1       4.459   3.397  18.363  0.00  0.00    +0.000 OA
BRANCH  18  24
ATOM     19  C   UNL     1       6.061   4.462  17.006  0.00  0.00    +0.000 A 
ATOM     20  C   UNL     1       7.152   5.331  16.863  0.00  0.00    +0.000 A 
ATOM     21  C   UNL     1       7.702   5.976  17.989  0.00  0.00    +0.000 A 
ATOM     22  C   UNL     1       7.179   5.764  19.253  0.00  0.00    +0.000 A 
ATOM     23  C   UNL     1       6.105   4.894  19.364  0.00  0.00    +0.000 A 
ATOM     24  C   UNL     1       5.525   4.247  18.286  0.00  0.00    +0.000 A 
BRANCH  19  26
ATOM     25  C   UNL     1       5.528   4.110  14.657  0.00  0.00    +0.000 C 
ATOM     26  O   UNL     1       5.413   3.769  16.025  0.00  0.00    +0.000 OA
ENDBRANCH  19  26
ENDBRANCH  18  24
ENDBRANCH   1  18
TORSDOF 6
ENDMDL
MODEL 6
REMARK VINA RESULT:      -7.6      1.546      1.975
REMARK  Name = 
REMARK  7 active torsions:
REMARK  status: ('A' for Active; 'I' for Inactive)
REMARK    1  A    between atoms: C_1  and  O_2
REMARK    2  A    between atoms: O_2  and  C_3
REMARK    3  A    between atoms: C_8  and  O_9
REMARK    4  A    between atoms: O_9  and  C_10
REMARK    5  A    between atoms: C_10  and  C_11
REMARK    6  A    between atoms: C_11  and  O_13
REMARK    7  A    between atoms: N_16  and  C_17
REMARK                            x       y       z     vdW  Elec       q    Type
REMARK                         _______ _______ _______ _____ _____    ______ ____
ROOT
ATOM      1  C   UNL     1       5.788   5.496  16.276  0.00  0.00    +0.000 C 
ATOM      2  C   UNL     1       5.587   4.014  16.569  0.00  0.00    +0.000 C 
ATOM      3  C   UNL     1       4.217   3.597  17.073  0.00  0.00    +0.000 C 
ATOM      4  N   UNL     1       3.558   4.602  17.913  0.00  0.00    +0.000 N 
ATOM      5  C   UNL     1       3.641   6.038  17.654  0.00  0.00    +0.000 C 
ATOM      6  C   UNL     1       4.984   6.503  17.105  0.00  0.00    +0.000 C 
ENDROOT
BRANCH   4   7
ATOM      7  C   UNL     1       2.434   4.102  18.595  0.00  0.00    +0.000 A 
ATOM      8  N   UNL     1       1.728   3.128  17.965  0.00  0.00    +0.000 NA
ATOM      9  C   UNL     1       0.769   2.457  18.637  0.00  0.00    +0.000 A 
ATOM     10  C   UNL     1       0.430   2.714  19.948  0.00  0.00    +0.000 A 
ATOM     11  C   UNL     1       1.067   3.771  20.578  0.00  0.00    +0.000 A 
ATOM     12  C   UNL     1       2.059   4.475  19.897  0.00  0.00    +0.000 A 
ATOM     13  F   UNL     1       2.622   5.514  20.535  0.00  0.00    +0.000 F 
ENDBRANCH   4   7
BRANCH   1  14
ATOM     14  C   UNL     1       7.289   5.762  16.640  0.00  0.00    +0.000 C 
ATOM     15  O   UNL     1       7.800   6.876  16.788  0.00  0.00    +0.000 OA
BRANCH  14  16
ATOM     16  O   UNL     1       8.026   4.625  16.745  0.00  0.00    +0.000 OA
ATOM     17  H   UNL     1       8.735   4.615  16.058  0.00  0.00    +0.000 HD
ENDBRANCH  14  16
ENDBRANCH   1  14
BRANCH   1  18
ATOM     18  O   UNL     1       5.749   5.794  14.856  0.00  0.00    +0.000 OA
BRANCH  18  24
ATOM     19  C   UNL     1       7.056   4.717  13.221  0.00  0.00    +0.000 A 
ATOM     20  C   UNL     1       7.189   3.763  12.201  0.00  0.00    +0.000 A 
ATOM     21  C   UNL     1       6.093   2.957  11.832  0.00  0.00    +0.000 A 
ATOM     22  C   UNL     1       4.869   3.093  12.465  0.00  0.00    +0.000 A 
ATOM     23  C   UNL     1       4.766   4.049  13.463  0.00  0.00    +0.000 A 
ATOM     24  C   UNL     1       5.817   4.855  13.867  0.00  0.00    +0.000 A 
BRANCH  19  26
ATOM     25  C   UNL     1       9.052   6.068  12.879  0.00  0.00    +0.000 C 
ATOM     26  O   UNL     1       8.012   5.566  13.698  0.00  0.00    +0.000 OA
ENDBRANCH  19  26
ENDBRANCH  18  24
ENDBRANCH   1  18
TORSDOF 6
ENDMDL
MODEL 7
REMARK VINA RESULT:      -7.4      2.405      5.875
REMARK  Name = 
REMARK  7 active torsions:
REMARK  status: ('A' for Active; 'I' for Inactive)
REMARK    1  A    between atoms: C_1  and  O_2
REMARK    2  A    between atoms: O_2  and  C_3
REMARK    3  A    between atoms: C_8  and  O_9
REMARK    4  A    between atoms: O_9  and  C_10
REMARK    5  A    between atoms: C_10  and  C_11
REMARK    6  A    between atoms: C_11  and  O_13
REMARK    7  A    between atoms: N_16  and  C_17
REMARK                            x       y       z     vdW  Elec       q    Type
REMARK                         _______ _______ _______ _____ _____    ______ ____
ROOT
ATOM      1  C   UNL     1       6.584   5.670  18.505  0.00  0.00    +0.000 C 
ATOM      2  C   UNL     1       6.779   6.796  17.497  0.00  0.00    +0.000 C 
ATOM      3  C   UNL     1       6.487   6.470  16.043  0.00  0.00    +0.000 C 
ATOM      4  N   UNL     1       6.806   5.089  15.664  0.00  0.00    +0.000 N 
ATOM      5  C   UNL     1       6.578   3.947  16.547  0.00  0.00    +0.000 C 
ATOM      6  C   UNL     1       6.815   4.234  18.024  0.00  0.00    +0.000 C 
ENDROOT
BRANCH   4   7
ATOM      7  C   UNL     1       6.798   4.882  14.274  0.00  0.00    +0.000 A 
ATOM      8  N   UNL     1       7.781   5.496  13.565  0.00  0.00    +0.000 NA
ATOM      9  C   UNL     1       7.964   5.180  12.266  0.00  0.00    +0.000 A 
ATOM     10  C   UNL     1       7.187   4.271  11.582  0.00  0.00    +0.000 A 
ATOM     11  C   UNL     1       6.115   3.709  12.257  0.00  0.00    +0.000 A 
ATOM     12  C   UNL     1       5.912   4.025  13.599  0.00  0.00    +0.000 A 
ATOM     13  F   UNL     1       4.840   3.485  14.201  0.00  0.00    +0.000 F 
ENDBRANCH   4   7
BRANCH   1  14
ATOM     14  C   UNL     1       7.685   5.929  19.591  0.00  0.00    +0.000 C 
ATOM     15  O   UNL     1       7.803   5.303  20.648  0.00  0.00    +0.000 OA
BRANCH  14  16
ATOM     16  O   UNL     1       8.508   6.964  19.284  0.00  0.00    +0.000 OA
ATOM     17  H   UNL     1       8.053   7.592  18.673  0.00  0.00    +0.000 HD
ENDBRANCH  14  16
ENDBRANCH   1  14
BRANCH   1  18
ATOM     18  O   UNL     1       5.353   5.807  19.263  0.00  0.00    +0.000 OA
BRANCH  18  24
ATOM     19  C   UNL     1       3.198   5.757  18.318  0.00  0.00    +0.000 A 
ATOM     20  C   UNL     1       2.007   5.072  18.036  0.00  0.00    +0.000 A 
ATOM     21  C   UNL     1       1.835   3.738  18.456  0.00  0.00    +0.000 A 
ATOM     22  C   UNL     1       2.834   3.081  19.155  0.00  0.00    +0.000 A 
ATOM     23  C   UNL     1       3.996   3.786  19.426  0.00  0.00    +0.000 A 
ATOM     24  C   UNL     1       4.214   5.094  19.024  0.00  0.00    +0.000 A 
BRANCH  19  26
ATOM     25  C   UNL     1       2.558   8.073  17.927  0.00  0.00    +0.000 C 
ATOM     26  O   UNL     1       3.522   7.039  17.980  0.00  0.00    +0.000 OA
ENDBRANCH  19  26
ENDBRANCH  18  24
ENDBRANCH   1  18
TORSDOF 6
ENDMDL
MODEL 8
REMARK VINA RESULT:      -7.2      1.407      1.735
REMARK  Name = 
REMARK  7 active torsions:
REMARK  status: ('A' for Active; 'I' for Inactive)
REMARK    1  A    between atoms: C_1  and  O_2
REMARK    2  A    between atoms: O_2  and  C_3
REMARK    3  A    between atoms: C_8  and  O_9
REMARK    4  A    between atoms: O_9  and  C_10
REMARK    5  A    between atoms: C_10  and  C_11
REMARK    6  A    between atoms: C_11  and  O_13
REMARK    7  A    between atoms: N_16  and  C_17
REMARK                            x       y       z     vdW  Elec       q    Type
REMARK                         _______ _______ _______ _____ _____    ______ ____
ROOT
ATOM      1  C   UNL     1       5.912   5.205  16.461  0.00  0.00    +0.000 C 
ATOM      2  C   UNL     1       5.713   3.708  16.670  0.00  0.00    +0.000 C 
ATOM      3  C   UNL     1       4.404   3.274  17.304  0.00  0.00    +0.000 C 
ATOM      4  N   UNL     1       3.872   4.224  18.287  0.00  0.00    +0.000 N 
ATOM      5  C   UNL     1       3.957   5.675  18.123  0.00  0.00    +0.000 C 
ATOM      6  C   UNL     1       5.235   6.159  17.450  0.00  0.00    +0.000 C 
ENDROOT
BRANCH   4   7
ATOM      7  C   UNL     1       2.827   3.692  19.062  0.00  0.00    +0.000 A 
ATOM      8  N   UNL     1       3.181   3.098  20.231  0.00  0.00    +0.000 NA
ATOM      9  C   UNL     1       2.227   2.752  21.120  0.00  0.00    +0.000 A 
ATOM     10  C   UNL     1       0.878   2.941  20.909  0.00  0.00    +0.000 A 
ATOM     11  C   UNL     1       0.488   3.451  19.681  0.00  0.00    +0.000 A 
ATOM     12  C   UNL     1       1.461   3.812  18.751  0.00  0.00    +0.000 A 
ATOM     13  F   UNL     1       1.034   4.267  17.562  0.00  0.00    +0.000 F 
ENDBRANCH   4   7
BRANCH   1  14
ATOM     14  C   UNL     1       7.451   5.421  16.660  0.00  0.00    +0.000 C 
ATOM     15  O   UNL     1       8.246   4.564  17.056  0.00  0.00    +0.000 OA
BRANCH  14  16
ATOM     16  O   UNL     1       7.854   6.690  16.391  0.00  0.00    +0.000 OA
ATOM     17  H   UNL     1       7.881   7.222  17.222  0.00  0.00    +0.000 HD
ENDBRANCH  14  16
ENDBRANCH   1  14
BRANCH   1  18
ATOM     18  O   UNL     1       5.711   5.606  15.081  0.00  0.00    +0.000 OA
BRANCH  18  24
ATOM     19  C   UNL     1       6.957   4.719  13.292  0.00  0.00    +0.000 A 
ATOM     20  C   UNL     1       7.064   3.858  12.190  0.00  0.00    +0.000 A 
ATOM     21  C   UNL     1       5.977   3.043  11.814  0.00  0.00    +0.000 A 
ATOM     22  C   UNL     1       4.787   3.078  12.522  0.00  0.00    +0.000 A 
ATOM     23  C   UNL     1       4.710   3.944  13.602  0.00  0.00    +0.000 A 
ATOM     24  C   UNL     1       5.754   4.755  14.014  0.00  0.00    +0.000 A 
BRANCH  19  26
ATOM     25  C   UNL     1       8.970   6.054  12.988  0.00  0.00    +0.000 C 
ATOM     26  O   UNL     1       7.910   5.563  13.785  0.00  0.00    +0.000 OA
ENDBRANCH  19  26
ENDBRANCH  18  24
ENDBRANCH   1  18
TORSDOF 6
ENDMDL
MODEL 9
REMARK VINA RESULT:      -7.2      3.654      5.267
REMARK  Name = 
REMARK  7 active torsions:
REMARK  status: ('A' for Active; 'I' for Inactive)
REMARK    1  A    between atoms: C_1  and  O_2
REMARK    2  A    between atoms: O_2  and  C_3
REMARK    3  A    between atoms: C_8  and  O_9
REMARK    4  A    between atoms: O_9  and  C_10
REMARK    5  A    between atoms: C_10  and  C_11
REMARK    6  A    between atoms: C_11  and  O_13
REMARK    7  A    between atoms: N_16  and  C_17
REMARK                            x       y       z     vdW  Elec       q    Type
REMARK                         _______ _______ _______ _____ _____    ______ ____
ROOT
ATOM      1  C   UNL     1       3.034   4.219  18.875  0.00  0.00    +0.000 C 
ATOM      2  C   UNL     1       2.618   5.274  17.856  0.00  0.00    +0.000 C 
ATOM      3  C   UNL     1       2.423   6.687  18.376  0.00  0.00    +0.000 C 
ATOM      4  N   UNL     1       1.904   6.753  19.747  0.00  0.00    +0.000 N 
ATOM      5  C   UNL     1       2.311   5.825  20.800  0.00  0.00    +0.000 C 
ATOM      6  C   UNL     1       2.563   4.400  20.322  0.00  0.00    +0.000 C 
ENDROOT
BRANCH   4   7
ATOM      7  C   UNL     1       1.466   8.039  20.110  0.00  0.00    +0.000 A 
ATOM      8  N   UNL     1       1.357   8.287  21.441  0.00  0.00    +0.000 NA
ATOM      9  C   UNL     1       1.147   9.550  21.870  0.00  0.00    +0.000 A 
ATOM     10  C   UNL     1       1.006  10.631  21.027  0.00  0.00    +0.000 A 
ATOM     11  C   UNL     1       1.011  10.385  19.663  0.00  0.00    +0.000 A 
ATOM     12  C   UNL     1       1.227   9.086  19.204  0.00  0.00    +0.000 A 
ATOM     13  F   UNL     1       1.187   8.891  17.877  0.00  0.00    +0.000 F 
ENDBRANCH   4   7
BRANCH   1  14
ATOM     14  C   UNL     1       2.344   2.904  18.374  0.00  0.00    +0.000 C 
ATOM     15  O   UNL     1       2.857   1.782  18.383  0.00  0.00    +0.000 OA
BRANCH  14  16
ATOM     16  O   UNL     1       1.100   3.110  17.869  0.00  0.00    +0.000 OA
ATOM     17  H   UNL     1       0.508   2.356  18.105  0.00  0.00    +0.000 HD
ENDBRANCH  14  16
ENDBRANCH   1  14
BRANCH   1  18
ATOM     18  O   UNL     1       4.445   3.889  18.791  0.00  0.00    +0.000 OA
BRANCH  18  24
ATOM     19  C   UNL     1       6.478   4.736  17.960  0.00  0.00    +0.000 A 
ATOM     20  C   UNL     1       7.335   5.009  16.885  0.00  0.00    +0.000 A 
ATOM     21  C   UNL     1       6.951   4.686  15.568  0.00  0.00    +0.000 A 
ATOM     22  C   UNL     1       5.724   4.098  15.311  0.00  0.00    +0.000 A 
ATOM     23  C   UNL     1       4.895   3.847  16.394  0.00  0.00    +0.000 A 
ATOM     24  C   UNL     1       5.234   4.137  17.705  0.00  0.00    +0.000 A 
BRANCH  19  26
ATOM     25  C   UNL     1       7.810   5.728  19.740  0.00  0.00    +0.000 C 
ATOM     26  O   UNL     1       6.699   4.980  19.285  0.00  0.00    +0.000 OA
ENDBRANCH  19  26
ENDBRANCH  18  24
ENDBRANCH   1  18
TORSDOF 6
ENDMDL
