MODEL 1
REMARK VINA RESULT:      -7.7      0.000      0.000
REMARK  Name = 
REMARK  3 active torsions:
REMARK  status: ('A' for Active; 'I' for Inactive)
REMARK    1  A    between atoms: C_16  and  C_17
REMARK    2  A    between atoms: C_19  and  N_20
REMARK    3  A    between atoms: C_22  and  N_23
REMARK                            x       y       z     vdW  Elec       q    Type
REMARK                         _______ _______ _______ _____ _____    ______ ____
ROOT
ATOM      1  C   UNL     1       4.223   6.964  17.399  0.00  0.00    +0.000 C 
ATOM      2  C   UNL     1       3.258   6.411  18.160  0.00  0.00    +0.000 C 
ATOM      3  C   UNL     1       3.263   4.950  18.352  0.00  0.00    +0.000 A 
ATOM      4  C   UNL     1       3.721   4.022  17.404  0.00  0.00    +0.000 A 
ATOM      5  C   UNL     1       3.782   2.664  17.719  0.00  0.00    +0.000 A 
ATOM      6  C   UNL     1       3.371   2.222  18.975  0.00  0.00    +0.000 A 
ATOM      7  C   UNL     1       2.869   3.134  19.908  0.00  0.00    +0.000 A 
ATOM      8  C   UNL     1       2.799   4.494  19.593  0.00  0.00    +0.000 A 
ATOM      9  O   UNL     1       2.291   5.337  20.565  0.00  0.00    +0.000 OA
ATOM     10  C   UNL     1       1.964   6.643  20.219  0.00  0.00    +0.000 A 
ATOM     11  N   UNL     1       1.230   7.289  21.158  0.00  0.00    +0.000 NA
ATOM     12  C   UNL     1       0.863   8.557  20.964  0.00  0.00    +0.000 A 
ATOM     13  N   UNL     1       0.200   9.152  21.961  0.00  0.00    +0.000 NA
ATOM     14  C   UNL     1      -0.170  10.445  21.867  0.00  0.00    +0.000 A 
ATOM     15  N   UNL     1      -0.786  10.978  23.002  0.00  0.00    +0.000 N 
ATOM     16  C   UNL     1       0.111  11.218  20.752  0.00  0.00    +0.000 A 
ATOM     17  C   UNL     1       0.728  10.601  19.658  0.00  0.00    +0.000 A 
ATOM     18  C   UNL     1       1.161   9.236  19.766  0.00  0.00    +0.000 A 
ATOM     19  C   UNL     1       1.844   8.500  18.743  0.00  0.00    +0.000 A 
ATOM     20  C   UNL     1       2.366   7.225  19.019  0.00  0.00    +0.000 A 
ATOM     21  H   UNL     1      -0.965  10.225  23.663  0.00  0.00    +0.000 HD
ATOM     22  H   UNL     1      -1.615  11.531  22.810  0.00  0.00    +0.000 HD
ENDROOT
BRANCH  17  23
ATOM     23  N   UNL     1       1.139  11.383  18.539  0.00  0.00    +0.000 N 
ATOM     24  H   UNL     1       2.023  11.120  18.113  0.00  0.00    +0.000 HD
ATOM     25  H   UNL     1       1.121  12.378  18.794  0.00  0.00    +0.000 HD
ENDBRANCH  17  23
BRANCH  19  26
ATOM     26  N   UNL     1       2.126   9.153  17.499  0.00  0.00    +0.000 N 
ATOM     27  H   UNL     1       1.325   9.741  17.254  0.00  0.00    +0.000 HD
ATOM     28  H   UNL     1       2.966   9.726  17.568  0.00  0.00    +0.000 HD
ENDBRANCH  19  26
BRANCH  16  29
ATOM     29  C   UNL     1      -0.277  12.595  20.703  0.00  0.00    +0.000 C 
ATOM     30  N   UNL     1      -0.577  13.713  20.602  0.00  0.00    +0.000 NA
ENDBRANCH  16  29
TORSDOF 3
ENDMDL
MODEL 2
REMARK VINA RESULT:      -7.6      2.527      6.991
REMARK  Name = 
REMARK  3 active torsions:
REMARK  status: ('A' for Active; 'I' for Inactive)
REMARK    1  A    between atoms: C_16  and  C_17
REMARK    2  A    between atoms: C_19  and  N_20
REMARK    3  A    between atoms: C_22  and  N_23
REMARK                            x       y       z     vdW  Elec       q    Type
REMARK                         _______ _______ _______ _____ _____    ______ ____
ROOT
ATOM      1  C   UNL     1       0.395   9.954  18.229  0.00  0.00    +0.000 C 
ATOM      2  C   UNL     1       0.870   9.424  19.373  0.00  0.00    +0.000 C 
ATOM      3  C   UNL     1       0.296   9.881  20.652  0.00  0.00    +0.000 A 
ATOM      4  C   UNL     1      -0.202  11.171  20.888  0.00  0.00    +0.000 A 
ATOM      5  C   UNL     1      -0.821  11.478  22.100  0.00  0.00    +0.000 A 
ATOM      6  C   UNL     1      -0.932  10.503  23.091  0.00  0.00    +0.000 A 
ATOM      7  C   UNL     1      -0.395   9.229  22.882  0.00  0.00    +0.000 A 
ATOM      8  C   UNL     1       0.232   8.922  21.671  0.00  0.00    +0.000 A 
ATOM      9  O   UNL     1       0.739   7.642  21.536  0.00  0.00    +0.000 OA
ATOM     10  C   UNL     1       1.586   7.362  20.470  0.00  0.00    +0.000 A 
ATOM     11  N   UNL     1       2.234   6.178  20.583  0.00  0.00    +0.000 NA
ATOM     12  C   UNL     1       3.065   5.775  19.620  0.00  0.00    +0.000 A 
ATOM     13  N   UNL     1       3.616   4.565  19.766  0.00  0.00    +0.000 NA
ATOM     14  C   UNL     1       4.433   4.062  18.819  0.00  0.00    +0.000 A 
ATOM     15  N   UNL     1       4.885   2.760  19.046  0.00  0.00    +0.000 N 
ATOM     16  C   UNL     1       4.742   4.755  17.660  0.00  0.00    +0.000 A 
ATOM     17  C   UNL     1       4.249   6.057  17.518  0.00  0.00    +0.000 A 
ATOM     18  C   UNL     1       3.346   6.585  18.503  0.00  0.00    +0.000 A 
ATOM     19  C   UNL     1       2.734   7.880  18.455  0.00  0.00    +0.000 A 
ATOM     20  C   UNL     1       1.740   8.225  19.387  0.00  0.00    +0.000 A 
ATOM     21  H   UNL     1       4.608   2.474  19.982  0.00  0.00    +0.000 HD
ATOM     22  H   UNL     1       5.876   2.622  18.875  0.00  0.00    +0.000 HD
ENDROOT
BRANCH  17  23
ATOM     23  N   UNL     1       4.445   6.762  16.295  0.00  0.00    +0.000 N 
ATOM     24  H   UNL     1       5.121   6.359  15.651  0.00  0.00    +0.000 HD
ATOM     25  H   UNL     1       4.657   7.747  16.498  0.00  0.00    +0.000 HD
ENDBRANCH  17  23
BRANCH  19  26
ATOM     26  N   UNL     1       3.032   8.741  17.350  0.00  0.00    +0.000 N 
ATOM     27  H   UNL     1       2.188   8.840  16.780  0.00  0.00    +0.000 HD
ATOM     28  H   UNL     1       3.340   9.658  17.673  0.00  0.00    +0.000 HD
ENDBRANCH  19  26
BRANCH  16  29
ATOM     29  C   UNL     1       5.593   4.174  16.667  0.00  0.00    +0.000 C 
ATOM     30  N   UNL     1       6.265   3.746  15.821  0.00  0.00    +0.000 NA
ENDBRANCH  16  29
TORSDOF 3
ENDMDL
MODEL 3
REMARK VINA RESULT:      -7.6      1.159      1.536
REMARK  Name = 
REMARK  3 active torsions:
REMARK  status: ('A' for Active; 'I' for Inactive)
REMARK    1  A    between atoms: C_16  and  C_17
REMARK    2  A    between atoms: C_19  and  N_20
REMARK    3  A    between atoms: C_22  and  N_23
REMARK                            x       y       z     vdW  Elec       q    Type
REMARK                         _______ _______ _______ _____ _____    ______ ____
ROOT
ATOM      1  C   UNL     1       3.500   7.540  17.722  0.00  0.00    +0.000 C 
ATOM      2  C   UNL     1       2.524   7.239  18.602  0.00  0.00    +0.000 C 
ATOM      3  C   UNL     1       2.376   5.839  19.039  0.00  0.00    +0.000 A 
ATOM      4  C   UNL     1       2.671   4.720  18.245  0.00  0.00    +0.000 A 
ATOM      5  C   UNL     1       2.598   3.435  18.782  0.00  0.00    +0.000 A 
ATOM      6  C   UNL     1       2.213   3.257  20.110  0.00  0.00    +0.000 A 
ATOM      7  C   UNL     1       1.871   4.363  20.893  0.00  0.00    +0.000 A 
ATOM      8  C   UNL     1       1.937   5.652  20.355  0.00  0.00    +0.000 A 
ATOM      9  O   UNL     1       1.584   6.697  21.189  0.00  0.00    +0.000 OA
ATOM     10  C   UNL     1       1.386   7.959  20.640  0.00  0.00    +0.000 A 
ATOM     11  N   UNL     1       0.786   8.833  21.483  0.00  0.00    +0.000 NA
ATOM     12  C   UNL     1       0.553  10.087  21.092  0.00  0.00    +0.000 A 
ATOM     13  N   UNL     1       0.020  10.913  21.999  0.00  0.00    +0.000 NA
ATOM     14  C   UNL     1      -0.208  12.208  21.701  0.00  0.00    +0.000 A 
ATOM     15  N   UNL     1      -0.694  12.990  22.752  0.00  0.00    +0.000 N 
ATOM     16  C   UNL     1       0.093  12.749  20.462  0.00  0.00    +0.000 A 
ATOM     17  C   UNL     1       0.572  11.891  19.465  0.00  0.00    +0.000 A 
ATOM     18  C   UNL     1       0.855  10.520  19.786  0.00  0.00    +0.000 A 
ATOM     19  C   UNL     1       1.390   9.550  18.877  0.00  0.00    +0.000 A 
ATOM     20  C   UNL     1       1.781   8.284  19.344  0.00  0.00    +0.000 A 
ATOM     21  H   UNL     1      -0.917  12.382  23.538  0.00  0.00    +0.000 HD
ATOM     22  H   UNL     1      -1.465  13.600  22.502  0.00  0.00    +0.000 HD
ENDROOT
BRANCH  17  23
ATOM     23  N   UNL     1       1.003  12.424  18.215  0.00  0.00    +0.000 N 
ATOM     24  H   UNL     1       1.642  13.213  18.263  0.00  0.00    +0.000 HD
ATOM     25  H   UNL     1       0.183  12.636  17.634  0.00  0.00    +0.000 HD
ENDBRANCH  17  23
BRANCH  19  26
ATOM     26  N   UNL     1       1.671   9.952  17.530  0.00  0.00    +0.000 N 
ATOM     27  H   UNL     1       2.373  10.697  17.555  0.00  0.00    +0.000 HD
ATOM     28  H   UNL     1       2.019   9.167  16.979  0.00  0.00    +0.000 HD
ENDBRANCH  19  26
BRANCH  16  29
ATOM     29  C   UNL     1      -0.140  14.136  20.195  0.00  0.00    +0.000 C 
ATOM     30  N   UNL     1      -0.309  15.252  19.920  0.00  0.00    +0.000 NA
ENDBRANCH  16  29
TORSDOF 3
ENDMDL
MODEL 4
REMARK VINA RESULT:      -7.5      1.692      3.184
REMARK  Name = 
REMARK  3 active torsions:
REMARK  status: ('A' for Active; 'I' for Inactive)
REMARK    1  A    between atoms: C_16  and  C_17
REMARK    2  A    between atoms: C_19  and  N_20
REMARK    3  A    between atoms: C_22  and  N_23
REMARK                            x       y       z     vdW  Elec       q    Type
REMARK                         _______ _______ _______ _____ _____    ______ ____
ROOT
ATOM      1  C   UNL     1       2.270   5.355  20.305  0.00  0.00    +0.000 C 
ATOM      2  C   UNL     1       2.837   6.312  19.545  0.00  0.00    +0.000 C 
ATOM      3  C   UNL     1       3.954   5.937  18.658  0.00  0.00    +0.000 A 
ATOM      4  C   UNL     1       4.885   4.923  18.932  0.00  0.00    +0.000 A 
ATOM      5  C   UNL     1       5.845   4.573  17.983  0.00  0.00    +0.000 A 
ATOM      6  C   UNL     1       5.893   5.243  16.762  0.00  0.00    +0.000 A 
ATOM      7  C   UNL     1       5.000   6.286  16.501  0.00  0.00    +0.000 A 
ATOM      8  C   UNL     1       4.042   6.645  17.453  0.00  0.00    +0.000 A 
ATOM      9  O   UNL     1       3.192   7.686  17.125  0.00  0.00    +0.000 OA
ATOM     10  C   UNL     1       2.399   8.246  18.120  0.00  0.00    +0.000 A 
ATOM     11  N   UNL     1       1.820   9.418  17.761  0.00  0.00    +0.000 NA
ATOM     12  C   UNL     1       1.017  10.055  18.614  0.00  0.00    +0.000 A 
ATOM     13  N   UNL     1       0.426  11.169  18.169  0.00  0.00    +0.000 NA
ATOM     14  C   UNL     1      -0.436  11.852  18.950  0.00  0.00    +0.000 A 
ATOM     15  N   UNL     1      -1.049  12.953  18.348  0.00  0.00    +0.000 N 
ATOM     16  C   UNL     1      -0.754  11.445  20.236  0.00  0.00    +0.000 A 
ATOM     17  C   UNL     1      -0.087  10.332  20.761  0.00  0.00    +0.000 A 
ATOM     18  C   UNL     1       0.801   9.577  19.922  0.00  0.00    +0.000 A 
ATOM     19  C   UNL     1       1.508   8.395  20.317  0.00  0.00    +0.000 A 
ATOM     20  C   UNL     1       2.219   7.646  19.364  0.00  0.00    +0.000 A 
ATOM     21  H   UNL     1      -0.615  13.117  17.442  0.00  0.00    +0.000 HD
ATOM     22  H   UNL     1      -1.073  13.789  18.924  0.00  0.00    +0.000 HD
ENDROOT
BRANCH  17  23
ATOM     23  N   UNL     1      -0.466   9.812  22.032  0.00  0.00    +0.000 N 
ATOM     24  H   UNL     1      -0.851  10.482  22.692  0.00  0.00    +0.000 HD
ATOM     25  H   UNL     1       0.323   9.293  22.437  0.00  0.00    +0.000 HD
ENDBRANCH  17  23
BRANCH  19  26
ATOM     26  N   UNL     1       1.338   7.907  21.653  0.00  0.00    +0.000 N 
ATOM     27  H   UNL     1       1.766   8.576  22.299  0.00  0.00    +0.000 HD
ATOM     28  H   UNL     1       0.350   7.793  21.879  0.00  0.00    +0.000 HD
ENDBRANCH  19  26
BRANCH  16  29
ATOM     29  C   UNL     1      -1.693  12.184  21.023  0.00  0.00    +0.000 C 
ATOM     30  N   UNL     1      -2.472  12.731  21.690  0.00  0.00    +0.000 NA
ENDBRANCH  16  29
TORSDOF 3
ENDMDL
MODEL 5
REMARK VINA RESULT:      -7.4      1.652      3.272
REMARK  Name = 
REMARK  3 active torsions:
REMARK  status: ('A' for Active; 'I' for Inactive)
REMARK    1  A    between atoms: C_16  and  C_17
REMARK    2  A    between atoms: C_19  and  N_20
REMARK    3  A    between atoms: C_22  and  N_23
REMARK                            x       y       z     vdW  Elec       q    Type
REMARK                         _______ _______ _______ _____ _____    ______ ____
ROOT
ATOM      1  C   UNL     1       2.486   4.675  18.980  0.00  0.00    +0.000 C 
ATOM      2  C   UNL     1       3.139   5.760  18.519  0.00  0.00    +0.000 C 
ATOM      3  C   UNL     1       4.248   5.563  17.567  0.00  0.00    +0.000 A 
ATOM      4  C   UNL     1       5.096   4.446  17.551  0.00  0.00    +0.000 A 
ATOM      5  C   UNL     1       6.052   4.302  16.545  0.00  0.00    +0.000 A 
ATOM      6  C   UNL     1       6.178   5.279  15.559  0.00  0.00    +0.000 A 
ATOM      7  C   UNL     1       5.368   6.418  15.596  0.00  0.00    +0.000 A 
ATOM      8  C   UNL     1       4.415   6.569  16.607  0.00  0.00    +0.000 A 
ATOM      9  O   UNL     1       3.651   7.722  16.580  0.00  0.00    +0.000 OA
ATOM     10  C   UNL     1       2.876   8.042  17.689  0.00  0.00    +0.000 A 
ATOM     11  N   UNL     1       2.391   9.307  17.669  0.00  0.00    +0.000 NA
ATOM     12  C   UNL     1       1.615   9.741  18.664  0.00  0.00    +0.000 A 
ATOM     13  N   UNL     1       1.116  10.976  18.544  0.00  0.00    +0.000 NA
ATOM     14  C   UNL     1       0.287  11.478  19.482  0.00  0.00    +0.000 A 
ATOM     15  N   UNL     1      -0.231  12.746  19.209  0.00  0.00    +0.000 N 
ATOM     16  C   UNL     1      -0.090  10.755  20.602  0.00  0.00    +0.000 A 
ATOM     17  C   UNL     1       0.481   9.493  20.798  0.00  0.00    +0.000 A 
ATOM     18  C   UNL     1       1.333   8.936  19.785  0.00  0.00    +0.000 A 
ATOM     19  C   UNL     1       1.944   7.641  19.837  0.00  0.00    +0.000 A 
ATOM     20  C   UNL     1       2.623   7.135  18.715  0.00  0.00    +0.000 A 
ATOM     21  H   UNL     1       0.235  13.122  18.387  0.00  0.00    +0.000 HD
ATOM     22  H   UNL     1      -0.209  13.388  19.995  0.00  0.00    +0.000 HD
ENDROOT
BRANCH  17  23
ATOM     23  N   UNL     1       0.036   8.670  21.873  0.00  0.00    +0.000 N 
ATOM     24  H   UNL     1       0.470   7.754  21.942  0.00  0.00    +0.000 HD
ATOM     25  H   UNL     1      -0.989   8.602  21.848  0.00  0.00    +0.000 HD
ENDBRANCH  17  23
BRANCH  19  26
ATOM     26  N   UNL     1       1.707   6.815  20.983  0.00  0.00    +0.000 N 
ATOM     27  H   UNL     1       1.423   5.886  20.660  0.00  0.00    +0.000 HD
ATOM     28  H   UNL     1       2.546   6.738  21.559  0.00  0.00    +0.000 HD
ENDBRANCH  19  26
BRANCH  16  29
ATOM     29  C   UNL     1      -0.994  11.315  21.561  0.00  0.00    +0.000 C 
ATOM     30  N   UNL     1      -1.705  11.730  22.381  0.00  0.00    +0.000 NA
ENDBRANCH  16  29
TORSDOF 3
ENDMDL
MODEL 6
REMARK VINA RESULT:      -6.9      2.131      7.018
REMARK  Name = 
REMARK  3 active torsions:
REMARK  status: ('A' for Active; 'I' for Inactive)
REMARK    1  A    between atoms: C_16  and  C_17
REMARK    2  A    between atoms: C_19  and  N_20
REMARK    3  A    between atoms: C_22  and  N_23
REMARK                            x       y       z     vdW  Elec       q    Type
REMARK                         _______ _______ _______ _____ _____    ______ ____
ROOT
ATOM      1  C   UNL     1      -0.045  10.834  18.483  0.00  0.00    +0.000 C 
ATOM      2  C   UNL     1       0.333  10.337  19.677  0.00  0.00    +0.000 C 
ATOM      3  C   UNL     1      -0.222  10.945  20.901  0.00  0.00    +0.000 A 
ATOM      4  C   UNL     1      -0.574  12.296  21.031  0.00  0.00    +0.000 A 
ATOM      5  C   UNL     1      -1.188  12.756  22.196  0.00  0.00    +0.000 A 
ATOM      6  C   UNL     1      -1.439  11.873  23.245  0.00  0.00    +0.000 A 
ATOM      7  C   UNL     1      -1.048  10.535  23.142  0.00  0.00    +0.000 A 
ATOM      8  C   UNL     1      -0.425  10.073  21.978  0.00  0.00    +0.000 A 
ATOM      9  O   UNL     1      -0.065   8.738  21.948  0.00  0.00    +0.000 OA
ATOM     10  C   UNL     1       0.774   8.290  20.935  0.00  0.00    +0.000 A 
ATOM     11  N   UNL     1       1.278   7.050  21.151  0.00  0.00    +0.000 NA
ATOM     12  C   UNL     1       2.084   6.490  20.249  0.00  0.00    +0.000 A 
ATOM     13  N   UNL     1       2.488   5.239  20.495  0.00  0.00    +0.000 NA
ATOM     14  C   UNL     1       3.269   4.581  19.615  0.00  0.00    +0.000 A 
ATOM     15  N   UNL     1       3.561   3.255  19.944  0.00  0.00    +0.000 N 
ATOM     16  C   UNL     1       3.689   5.151  18.424  0.00  0.00    +0.000 A 
ATOM     17  C   UNL     1       3.354   6.487  18.177  0.00  0.00    +0.000 A 
ATOM     18  C   UNL     1       2.490   7.182  19.091  0.00  0.00    +0.000 A 
ATOM     19  C   UNL     1       2.032   8.531  18.934  0.00  0.00    +0.000 A 
ATOM     20  C   UNL     1       1.058   9.051  19.803  0.00  0.00    +0.000 A 
ATOM     21  H   UNL     1       3.226   3.069  20.887  0.00  0.00    +0.000 HD
ATOM     22  H   UNL     1       4.534   2.994  19.820  0.00  0.00    +0.000 HD
ENDROOT
BRANCH  17  23
ATOM     23  N   UNL     1       3.665   7.077  16.918  0.00  0.00    +0.000 N 
ATOM     24  H   UNL     1       4.068   8.010  16.950  0.00  0.00    +0.000 HD
ATOM     25  H   UNL     1       2.837   7.042  16.310  0.00  0.00    +0.000 HD
ENDBRANCH  17  23
BRANCH  19  26
ATOM     26  N   UNL     1       2.460   9.273  17.786  0.00  0.00    +0.000 N 
ATOM     27  H   UNL     1       1.767  10.002  17.595  0.00  0.00    +0.000 HD
ATOM     28  H   UNL     1       3.374   9.697  17.943  0.00  0.00    +0.000 HD
ENDBRANCH  19  26
BRANCH  16  29
ATOM     29  C   UNL     1       4.496   4.409  17.504  0.00  0.00    +0.000 C 
ATOM     30  N   UNL     1       5.147   3.854  16.718  0.00  0.00    +0.000 NA
ENDBRANCH  16  29
TORSDOF 3
ENDMDL
MODEL 7
REMARK VINA RESULT:      -6.8      2.404      7.571
REMARK  Name = 
REMARK  3 active torsions:
REMARK  status: ('A' for Active; 'I' for Inactive)
REMARK    1  A    between atoms: C_16  and  C_17
REMARK    2  A    between atoms: C_19  and  N_20
REMARK    3  A    between atoms: C_22  and  N_23
REMARK                            x       y       z     vdW  Elec       q    Type
REMARK                         _______ _______ _______ _____ _____    ______ ____
ROOT
ATOM      1  C   UNL     1       0.457   9.983  22.335  0.00  0.00    +0.000 C 
ATOM      2  C   UNL     1       0.314  10.049  20.997  0.00  0.00    +0.000 C 
ATOM      3  C   UNL     1      -0.434  11.182  20.423  0.00  0.00    +0.000 A 
ATOM      4  C   UNL     1      -1.504  11.834  21.056  0.00  0.00    +0.000 A 
ATOM      5  C   UNL     1      -2.083  12.964  20.477  0.00  0.00    +0.000 A 
ATOM      6  C   UNL     1      -1.608  13.441  19.256  0.00  0.00    +0.000 A 
ATOM      7  C   UNL     1      -0.574  12.769  18.597  0.00  0.00    +0.000 A 
ATOM      8  C   UNL     1       0.002  11.631  19.171  0.00  0.00    +0.000 A 
ATOM      9  O   UNL     1       1.019  11.019  18.461  0.00  0.00    +0.000 OA
ATOM     10  C   UNL     1       1.449   9.757  18.854  0.00  0.00    +0.000 A 
ATOM     11  N   UNL     1       2.242   9.142  17.943  0.00  0.00    +0.000 NA
ATOM     12  C   UNL     1       2.741   7.932  18.200  0.00  0.00    +0.000 A 
ATOM     13  N   UNL     1       3.570   7.415  17.287  0.00  0.00    +0.000 NA
ATOM     14  C   UNL     1       4.154   6.217  17.486  0.00  0.00    +0.000 A 
ATOM     15  N   UNL     1       5.060   5.818  16.500  0.00  0.00    +0.000 N 
ATOM     16  C   UNL     1       3.934   5.465  18.629  0.00  0.00    +0.000 A 
ATOM     17  C   UNL     1       3.006   5.938  19.563  0.00  0.00    +0.000 A 
ATOM     18  C   UNL     1       2.411   7.233  19.377  0.00  0.00    +0.000 A 
ATOM     19  C   UNL     1       1.485   7.855  20.277  0.00  0.00    +0.000 A 
ATOM     20  C   UNL     1       1.096   9.190  20.077  0.00  0.00    +0.000 A 
ATOM     21  H   UNL     1       5.008   6.471  15.722  0.00  0.00    +0.000 HD
ATOM     22  H   UNL     1       4.961   4.852  16.204  0.00  0.00    +0.000 HD
ENDROOT
BRANCH  17  23
ATOM     23  N   UNL     1       2.835   5.257  20.803  0.00  0.00    +0.000 N 
ATOM     24  H   UNL     1       1.933   5.378  21.258  0.00  0.00    +0.000 HD
ATOM     25  H   UNL     1       3.611   5.494  21.433  0.00  0.00    +0.000 HD
ENDBRANCH  17  23
BRANCH  19  26
ATOM     26  N   UNL     1       1.100   7.151  21.464  0.00  0.00    +0.000 N 
ATOM     27  H   UNL     1       0.557   7.785  22.055  0.00  0.00    +0.000 HD
ATOM     28  H   UNL     1       0.543   6.328  21.236  0.00  0.00    +0.000 HD
ENDBRANCH  19  26
BRANCH  16  29
ATOM     29  C   UNL     1       4.594   4.208  18.814  0.00  0.00    +0.000 C 
ATOM     30  N   UNL     1       5.130   3.200  19.025  0.00  0.00    +0.000 NA
ENDBRANCH  16  29
TORSDOF 3
ENDMDL
MODEL 8
REMARK VINA RESULT:      -6.8      2.937      5.174
REMARK  Name = 
REMARK  3 active torsions:
REMARK  status: ('A' for Active; 'I' for Inactive)
REMARK    1  A    between atoms: C_16  and  C_17
REMARK    2  A    between atoms: C_19  and  N_20
REMARK    3  A    between atoms: C_22  and  N_23
REMARK                            x       y       z     vdW  Elec       q    Type
REMARK                         _______ _______ _______ _____ _____    ______ ____
ROOT
ATOM      1  C   UNL     1       1.196  12.091  18.525  0.00  0.00    +0.000 C 
ATOM      2  C   UNL     1       0.611  11.116  19.249  0.00  0.00    +0.000 C 
ATOM      3  C   UNL     1       1.185   9.759  19.197  0.00  0.00    +0.000 A 
ATOM      4  C   UNL     1       1.831   9.209  18.080  0.00  0.00    +0.000 A 
ATOM      5  C   UNL     1       2.433   7.953  18.161  0.00  0.00    +0.000 A 
ATOM      6  C   UNL     1       2.379   7.231  19.353  0.00  0.00    +0.000 A 
ATOM      7  C   UNL     1       1.695   7.752  20.455  0.00  0.00    +0.000 A 
ATOM      8  C   UNL     1       1.084   9.007  20.374  0.00  0.00    +0.000 A 
ATOM      9  O   UNL     1       0.426   9.458  21.504  0.00  0.00    +0.000 OA
ATOM     10  C   UNL     1      -0.405  10.567  21.401  0.00  0.00    +0.000 A 
ATOM     11  N   UNL     1      -1.201  10.755  22.482  0.00  0.00    +0.000 NA
ATOM     12  C   UNL     1      -2.036  11.795  22.525  0.00  0.00    +0.000 A 
ATOM     13  N   UNL     1      -2.741  11.956  23.649  0.00  0.00    +0.000 NA
ATOM     14  C   UNL     1      -3.575  13.005  23.795  0.00  0.00    +0.000 A 
ATOM     15  N   UNL     1      -4.197  13.110  25.042  0.00  0.00    +0.000 N 
ATOM     16  C   UNL     1      -3.745  13.961  22.807  0.00  0.00    +0.000 A 
ATOM     17  C   UNL     1      -3.087  13.774  21.586  0.00  0.00    +0.000 A 
ATOM     18  C   UNL     1      -2.166  12.681  21.438  0.00  0.00    +0.000 A 
ATOM     19  C   UNL     1      -1.394  12.403  20.263  0.00  0.00    +0.000 A 
ATOM     20  C   UNL     1      -0.404  11.406  20.289  0.00  0.00    +0.000 A 
ATOM     21  H   UNL     1      -3.997  12.270  25.581  0.00  0.00    +0.000 HD
ATOM     22  H   UNL     1      -5.189  13.319  25.001  0.00  0.00    +0.000 HD
ENDROOT
BRANCH  17  23
ATOM     23  N   UNL     1      -3.141  14.788  20.586  0.00  0.00    +0.000 N 
ATOM     24  H   UNL     1      -3.703  15.605  20.810  0.00  0.00    +0.000 HD
ATOM     25  H   UNL     1      -3.422  14.369  19.690  0.00  0.00    +0.000 HD
ENDBRANCH  17  23
BRANCH  19  26
ATOM     26  N   UNL     1      -1.535  13.265  19.127  0.00  0.00    +0.000 N 
ATOM     27  H   UNL     1      -1.515  14.235  19.453  0.00  0.00    +0.000 HD
ATOM     28  H   UNL     1      -0.784  13.111  18.455  0.00  0.00    +0.000 HD
ENDBRANCH  19  26
BRANCH  16  29
ATOM     29  C   UNL     1      -4.621  15.074  23.011  0.00  0.00    +0.000 C 
ATOM     30  N   UNL     1      -5.326  15.992  23.117  0.00  0.00    +0.000 NA
ENDBRANCH  16  29
TORSDOF 3
ENDMDL
MODEL 9
REMARK VINA RESULT:      -6.6      1.851      3.296
REMARK  Name = 
REMARK  3 active torsions:
REMARK  status: ('A' for Active; 'I' for Inactive)
REMARK    1  A    between atoms: C_16  and  C_17
REMARK    2  A    between atoms: C_19  and  N_20
REMARK    3  A    between atoms: C_22  and  N_23
REMARK                            x       y       z     vdW  Elec       q    Type
REMARK                         _______ _______ _______ _____ _____    ______ ____
ROOT
ATOM      1  C   UNL     1       2.203  10.016  17.838  0.00  0.00    +0.000 C 
ATOM      2  C   UNL     1       1.531   9.271  18.737  0.00  0.00    +0.000 C 
ATOM      3  C   UNL     1       1.957   7.876  18.956  0.00  0.00    +0.000 A 
ATOM      4  C   UNL     1       2.521   7.051  17.972  0.00  0.00    +0.000 A 
ATOM      5  C   UNL     1       2.988   5.778  18.301  0.00  0.00    +0.000 A 
ATOM      6  C   UNL     1       2.878   5.315  19.612  0.00  0.00    +0.000 A 
ATOM      7  C   UNL     1       2.273   6.112  20.587  0.00  0.00    +0.000 A 
ATOM      8  C   UNL     1       1.798   7.385  20.258  0.00  0.00    +0.000 A 
ATOM      9  O   UNL     1       1.211   8.117  21.275  0.00  0.00    +0.000 OA
ATOM     10  C   UNL     1       0.501   9.268  20.953  0.00  0.00    +0.000 A 
ATOM     11  N   UNL     1      -0.252   9.748  21.972  0.00  0.00    +0.000 NA
ATOM     12  C   UNL     1      -0.970  10.860  21.806  0.00  0.00    +0.000 A 
ATOM     13  N   UNL     1      -1.634  11.314  22.874  0.00  0.00    +0.000 NA
ATOM     14  C   UNL     1      -2.350  12.455  22.807  0.00  0.00    +0.000 A 
ATOM     15  N   UNL     1      -2.934  12.869  24.006  0.00  0.00    +0.000 N 
ATOM     16  C   UNL     1      -2.435  13.210  21.649  0.00  0.00    +0.000 A 
ATOM     17  C   UNL     1      -1.822  12.718  20.491  0.00  0.00    +0.000 A 
ATOM     18  C   UNL     1      -1.025  11.524  20.565  0.00  0.00    +0.000 A 
ATOM     19  C   UNL     1      -0.308  10.939  19.471  0.00  0.00    +0.000 A 
ATOM     20  C   UNL     1       0.571   9.867  19.696  0.00  0.00    +0.000 A 
ATOM     21  H   UNL     1      -2.816  12.134  24.701  0.00  0.00    +0.000 HD
ATOM     22  H   UNL     1      -3.900  13.171  23.922  0.00  0.00    +0.000 HD
ENDROOT
BRANCH  17  23
ATOM     23  N   UNL     1      -1.787  13.515  19.311  0.00  0.00    +0.000 N 
ATOM     24  H   UNL     1      -1.095  14.260  19.296  0.00  0.00    +0.000 HD
ATOM     25  H   UNL     1      -2.730  13.870  19.110  0.00  0.00    +0.000 HD
ENDBRANCH  17  23
BRANCH  19  26
ATOM     26  N   UNL     1      -0.377  11.572  18.187  0.00  0.00    +0.000 N 
ATOM     27  H   UNL     1       0.549  11.943  17.959  0.00  0.00    +0.000 HD
ATOM     28  H   UNL     1      -0.670  10.910  17.468  0.00  0.00    +0.000 HD
ENDBRANCH  19  26
BRANCH  16  29
ATOM     29  C   UNL     1      -3.184  14.430  21.627  0.00  0.00    +0.000 C 
ATOM     30  N   UNL     1      -3.813  15.406  21.665  0.00  0.00    +0.000 NA
ENDBRANCH  16  29
TORSDOF 3
ENDMDL
