MODEL 1
REMARK VINA RESULT:      -9.1      0.000      0.000
REMARK  Name = 
REMARK  5 active torsions:
REMARK  status: ('A' for Active; 'I' for Inactive)
REMARK    1  A    between atoms: C_1  and  N_2
REMARK    2  A    between atoms: C_6  and  C_8
REMARK    3  A    between atoms: C_8  and  N_9
REMARK    4  A    between atoms: C_12  and  N_13
REMARK    5  A    between atoms: N_16  and  C_17
REMARK                            x       y       z     vdW  Elec       q    Type
REMARK                         _______ _______ _______ _____ _____    ______ ____
ROOT
ATOM      1  N   UNL     1      -0.731  12.888  20.966  0.00  0.00    +0.000 N 
ATOM      2  C   UNL     1       0.175  11.789  21.037  0.00  0.00    +0.000 C 
ATOM      3  O   UNL     1       1.203  11.798  20.352  0.00  0.00    +0.000 OA
ATOM      4  C   UNL     1      -0.292  10.511  21.840  0.00  0.00    +0.000 C 
ATOM      5  C   UNL     1      -0.827  10.860  23.247  0.00  0.00    +0.000 C 
ATOM      6  C   UNL     1      -1.930  11.927  23.343  0.00  0.00    +0.000 C 
ATOM      7  C   UNL     1      -1.405  13.341  23.259  0.00  0.00    +0.000 A 
ATOM      8  C   UNL     1      -1.610  14.268  24.306  0.00  0.00    +0.000 A 
ATOM      9  C   UNL     1      -1.204  15.599  24.202  0.00  0.00    +0.000 A 
ATOM     10  C   UNL     1      -0.591  16.030  23.014  0.00  0.00    +0.000 A 
ATOM     11  C   UNL     1      -0.405  15.120  21.966  0.00  0.00    +0.000 A 
ATOM     12  C   UNL     1      -0.806  13.795  22.080  0.00  0.00    +0.000 A 
ENDROOT
BRANCH   4  13
ATOM     13  N   UNL     1       0.735   9.328  21.960  0.00  0.00    +0.000 N 
ATOM     14  C   UNL     1       0.889   8.387  20.942  0.00  0.00    +0.000 C 
ATOM     15  O   UNL     1       0.234   8.470  19.924  0.00  0.00    +0.000 OA
ATOM     16  N   UNL     1       1.824   7.296  21.194  0.00  0.00    +0.000 N 
ATOM     17  H   UNL     1       1.550   9.529  22.526  0.00  0.00    +0.000 HD
ATOM     18  H   UNL     1       1.841   6.920  22.134  0.00  0.00    +0.000 HD
BRANCH  16  19
ATOM     19  C   UNL     1       2.225   6.412  20.103  0.00  0.00    +0.000 A 
ATOM     20  C   UNL     1       3.165   6.953  19.219  0.00  0.00    +0.000 A 
ATOM     21  C   UNL     1       3.675   6.202  18.205  0.00  0.00    +0.000 A 
ATOM     22  C   UNL     1       2.920   5.199  17.657  0.00  0.00    +0.000 A 
ATOM     23  C   UNL     1       2.065   4.521  18.504  0.00  0.00    +0.000 A 
ATOM     24  C   UNL     1       1.573   3.330  17.981  0.00  0.00    +0.000 A 
ATOM     25  C   UNL     1       1.038   2.359  18.825  0.00  0.00    +0.000 A 
ATOM     26  C   UNL     1       1.006   2.631  20.181  0.00  0.00    +0.000 A 
ATOM     27  C   UNL     1       1.370   3.923  20.691  0.00  0.00    +0.000 A 
ATOM     28  C   UNL     1       1.869   4.985  19.843  0.00  0.00    +0.000 A 
ENDBRANCH  16  19
ENDBRANCH   4  13
BRANCH   1  29
ATOM     29  C   UNL     1      -1.206  13.389  19.655  0.00  0.00    +0.000 C 
BRANCH  29  35
ATOM     30  C   UNL     1      -3.915  10.081  14.627  0.00  0.00    +0.000 C 
ATOM     31  N   UNL     1      -3.524  10.279  16.025  0.00  0.00    +0.000 NA
ATOM     32  C   UNL     1      -4.540  11.088  16.731  0.00  0.00    +0.000 C 
ATOM     33  C   UNL     1      -4.162  11.346  18.206  0.00  0.00    +0.000 C 
ATOM     34  N   UNL     1      -2.836  11.934  18.340  0.00  0.00    +0.000 N 
ATOM     35  C   UNL     1      -2.616  12.803  19.403  0.00  0.00    +0.000 C 
ATOM     36  O   UNL     1      -3.570  13.143  20.122  0.00  0.00    +0.000 OA
ATOM     37  C   UNL     1      -1.782  11.212  17.591  0.00  0.00    +0.000 C 
ATOM     38  C   UNL     1      -2.205  10.938  16.125  0.00  0.00    +0.000 C 
ENDBRANCH  29  35
ENDBRANCH   1  29
TORSDOF 4
ENDMDL
MODEL 2
REMARK VINA RESULT:      -8.7      1.706      2.580
REMARK  Name = 
REMARK  5 active torsions:
REMARK  status: ('A' for Active; 'I' for Inactive)
REMARK    1  A    between atoms: C_1  and  N_2
REMARK    2  A    between atoms: C_6  and  C_8
REMARK    3  A    between atoms: C_8  and  N_9
REMARK    4  A    between atoms: C_12  and  N_13
REMARK    5  A    between atoms: N_16  and  C_17
REMARK                            x       y       z     vdW  Elec       q    Type
REMARK                         _______ _______ _______ _____ _____    ______ ____
ROOT
ATOM      1  N   UNL     1      -1.004  13.024  21.027  0.00  0.00    +0.000 N 
ATOM      2  C   UNL     1      -0.022  11.991  21.060  0.00  0.00    +0.000 C 
ATOM      3  O   UNL     1       0.997  12.092  20.370  0.00  0.00    +0.000 OA
ATOM      4  C   UNL     1      -0.390  10.661  21.829  0.00  0.00    +0.000 C 
ATOM      5  C   UNL     1      -0.938  10.931  23.249  0.00  0.00    +0.000 C 
ATOM      6  C   UNL     1      -2.114  11.914  23.382  0.00  0.00    +0.000 C 
ATOM      7  C   UNL     1      -1.691  13.363  23.335  0.00  0.00    +0.000 A 
ATOM      8  C   UNL     1      -1.954  14.244  24.409  0.00  0.00    +0.000 A 
ATOM      9  C   UNL     1      -1.644  15.602  24.340  0.00  0.00    +0.000 A 
ATOM     10  C   UNL     1      -1.072  16.109  23.161  0.00  0.00    +0.000 A 
ATOM     11  C   UNL     1      -0.830  15.245  22.088  0.00  0.00    +0.000 A 
ATOM     12  C   UNL     1      -1.135  13.892  22.166  0.00  0.00    +0.000 A 
ENDROOT
BRANCH   4  13
ATOM     13  N   UNL     1       0.719   9.550  21.910  0.00  0.00    +0.000 N 
ATOM     14  C   UNL     1       0.805   8.533  20.961  0.00  0.00    +0.000 C 
ATOM     15  O   UNL     1       0.024   8.489  20.033  0.00  0.00    +0.000 OA
ATOM     16  N   UNL     1       1.834   7.522  21.175  0.00  0.00    +0.000 N 
ATOM     17  H   UNL     1       1.584   9.846  22.346  0.00  0.00    +0.000 HD
ATOM     18  H   UNL     1       1.994   7.232  22.133  0.00  0.00    +0.000 HD
BRANCH  16  19
ATOM     19  C   UNL     1       2.152   6.568  20.117  0.00  0.00    +0.000 A 
ATOM     20  C   UNL     1       2.864   7.099  19.036  0.00  0.00    +0.000 A 
ATOM     21  C   UNL     1       3.286   6.296  18.022  0.00  0.00    +0.000 A 
ATOM     22  C   UNL     1       2.576   5.168  17.709  0.00  0.00    +0.000 A 
ATOM     23  C   UNL     1       1.956   4.505  18.750  0.00  0.00    +0.000 A 
ATOM     24  C   UNL     1       1.529   3.220  18.434  0.00  0.00    +0.000 A 
ATOM     25  C   UNL     1       1.257   2.300  19.444  0.00  0.00    +0.000 A 
ATOM     26  C   UNL     1       1.417   2.715  20.753  0.00  0.00    +0.000 A 
ATOM     27  C   UNL     1       1.705   4.086  21.071  0.00  0.00    +0.000 A 
ATOM     28  C   UNL     1       1.930   5.092  20.056  0.00  0.00    +0.000 A 
ENDBRANCH  16  19
ENDBRANCH   4  13
BRANCH   1  29
ATOM     29  C   UNL     1      -1.524  13.526  19.732  0.00  0.00    +0.000 C 
BRANCH  29  35
ATOM     30  C   UNL     1      -7.526  12.881  22.401  0.00  0.00    +0.000 C 
ATOM     31  N   UNL     1      -6.581  13.172  21.319  0.00  0.00    +0.000 NA
ATOM     32  C   UNL     1      -6.164  11.919  20.654  0.00  0.00    +0.000 C 
ATOM     33  C   UNL     1      -5.147  12.170  19.518  0.00  0.00    +0.000 C 
ATOM     34  N   UNL     1      -3.993  12.934  19.972  0.00  0.00    +0.000 N 
ATOM     35  C   UNL     1      -2.769  12.685  19.361  0.00  0.00    +0.000 C 
ATOM     36  O   UNL     1      -2.670  11.750  18.549  0.00  0.00    +0.000 OA
ATOM     37  C   UNL     1      -4.344  14.167  20.715  0.00  0.00    +0.000 C 
ATOM     38  C   UNL     1      -5.391  13.888  21.824  0.00  0.00    +0.000 C 
ENDBRANCH  29  35
ENDBRANCH   1  29
TORSDOF 4
ENDMDL
MODEL 3
REMARK VINA RESULT:      -8.6      2.919      5.427
REMARK  Name = 
REMARK  5 active torsions:
REMARK  status: ('A' for Active; 'I' for Inactive)
REMARK    1  A    between atoms: C_1  and  N_2
REMARK    2  A    between atoms: C_6  and  C_8
REMARK    3  A    between atoms: C_8  and  N_9
REMARK    4  A    between atoms: C_12  and  N_13
REMARK    5  A    between atoms: N_16  and  C_17
REMARK                            x       y       z     vdW  Elec       q    Type
REMARK                         _______ _______ _______ _____ _____    ______ ____
ROOT
ATOM      1  N   UNL     1      -0.446  12.347  20.386  0.00  0.00    +0.000 N 
ATOM      2  C   UNL     1       0.263  11.161  20.738  0.00  0.00    +0.000 C 
ATOM      3  O   UNL     1       0.629  10.989  21.905  0.00  0.00    +0.000 OA
ATOM      4  C   UNL     1       0.728  10.215  19.561  0.00  0.00    +0.000 C 
ATOM      5  C   UNL     1      -0.419   9.887  18.577  0.00  0.00    +0.000 C 
ATOM      6  C   UNL     1      -1.198  11.068  17.976  0.00  0.00    +0.000 C 
ATOM      7  C   UNL     1      -2.242  11.635  18.909  0.00  0.00    +0.000 A 
ATOM      8  C   UNL     1      -3.610  11.666  18.555  0.00  0.00    +0.000 A 
ATOM      9  C   UNL     1      -4.569  12.263  19.373  0.00  0.00    +0.000 A 
ATOM     10  C   UNL     1      -4.158  12.867  20.572  0.00  0.00    +0.000 A 
ATOM     11  C   UNL     1      -2.801  12.856  20.917  0.00  0.00    +0.000 A 
ATOM     12  C   UNL     1      -1.853  12.254  20.101  0.00  0.00    +0.000 A 
ENDROOT
BRANCH   4  13
ATOM     13  N   UNL     1       1.458   8.882  19.961  0.00  0.00    +0.000 N 
ATOM     14  C   UNL     1       1.838   7.941  19.005  0.00  0.00    +0.000 C 
ATOM     15  O   UNL     1       1.621   8.139  17.827  0.00  0.00    +0.000 OA
ATOM     16  N   UNL     1       2.450   6.713  19.500  0.00  0.00    +0.000 N 
ATOM     17  H   UNL     1       2.029   8.945  20.795  0.00  0.00    +0.000 HD
ATOM     18  H   UNL     1       2.068   6.327  20.356  0.00  0.00    +0.000 HD
BRANCH  16  19
ATOM     19  C   UNL     1       3.092   5.790  18.569  0.00  0.00    +0.000 A 
ATOM     20  C   UNL     1       2.313   4.690  18.195  0.00  0.00    +0.000 A 
ATOM     21  C   UNL     1       2.770   3.798  17.275  0.00  0.00    +0.000 A 
ATOM     22  C   UNL     1       4.116   3.585  17.145  0.00  0.00    +0.000 A 
ATOM     23  C   UNL     1       4.948   4.666  17.364  0.00  0.00    +0.000 A 
ATOM     24  C   UNL     1       6.252   4.482  16.915  0.00  0.00    +0.000 A 
ATOM     25  C   UNL     1       7.083   5.579  16.699  0.00  0.00    +0.000 A 
ATOM     26  C   UNL     1       6.570   6.836  16.958  0.00  0.00    +0.000 A 
ATOM     27  C   UNL     1       5.281   7.006  17.569  0.00  0.00    +0.000 A 
ATOM     28  C   UNL     1       4.409   5.891  17.872  0.00  0.00    +0.000 A 
ENDBRANCH  16  19
ENDBRANCH   4  13
BRANCH   1  29
ATOM     29  C   UNL     1       0.077  13.679  20.773  0.00  0.00    +0.000 C 
BRANCH  29  35
ATOM     30  C   UNL     1       5.999  16.266  19.433  0.00  0.00    +0.000 C 
ATOM     31  N   UNL     1       4.873  15.355  19.219  0.00  0.00    +0.000 NA
ATOM     32  C   UNL     1       3.816  16.024  18.431  0.00  0.00    +0.000 C 
ATOM     33  C   UNL     1       2.592  15.110  18.197  0.00  0.00    +0.000 C 
ATOM     34  N   UNL     1       2.060  14.573  19.442  0.00  0.00    +0.000 N 
ATOM     35  C   UNL     1       0.692  14.333  19.513  0.00  0.00    +0.000 C 
ATOM     36  O   UNL     1      -0.041  14.692  18.576  0.00  0.00    +0.000 OA
ATOM     37  C   UNL     1       3.085  13.955  20.315  0.00  0.00    +0.000 C 
ATOM     38  C   UNL     1       4.313  14.882  20.502  0.00  0.00    +0.000 C 
ENDBRANCH  29  35
ENDBRANCH   1  29
TORSDOF 4
ENDMDL
MODEL 4
REMARK VINA RESULT:      -8.6      2.548      4.863
REMARK  Name = 
REMARK  5 active torsions:
REMARK  status: ('A' for Active; 'I' for Inactive)
REMARK    1  A    between atoms: C_1  and  N_2
REMARK    2  A    between atoms: C_6  and  C_8
REMARK    3  A    between atoms: C_8  and  N_9
REMARK    4  A    between atoms: C_12  and  N_13
REMARK    5  A    between atoms: N_16  and  C_17
REMARK                            x       y       z     vdW  Elec       q    Type
REMARK                         _______ _______ _______ _____ _____    ______ ____
ROOT
ATOM      1  N   UNL     1      -0.141  12.183  20.811  0.00  0.00    +0.000 N 
ATOM      2  C   UNL     1       0.462  10.919  21.078  0.00  0.00    +0.000 C 
ATOM      3  O   UNL     1       0.791  10.628  22.231  0.00  0.00    +0.000 OA
ATOM      4  C   UNL     1       0.869  10.031  19.836  0.00  0.00    +0.000 C 
ATOM      5  C   UNL     1      -0.282   9.875  18.816  0.00  0.00    +0.000 C 
ATOM      6  C   UNL     1      -0.951  11.160  18.299  0.00  0.00    +0.000 C 
ATOM      7  C   UNL     1      -1.962  11.738  19.261  0.00  0.00    +0.000 A 
ATOM      8  C   UNL     1      -3.316  11.909  18.894  0.00  0.00    +0.000 A 
ATOM      9  C   UNL     1      -4.238  12.520  19.745  0.00  0.00    +0.000 A 
ATOM     10  C   UNL     1      -3.801  12.993  20.993  0.00  0.00    +0.000 A 
ATOM     11  C   UNL     1      -2.456  12.844  21.352  0.00  0.00    +0.000 A 
ATOM     12  C   UNL     1      -1.545  12.229  20.502  0.00  0.00    +0.000 A 
ENDROOT
BRANCH   4  13
ATOM     13  N   UNL     1       1.481   8.615  20.139  0.00  0.00    +0.000 N 
ATOM     14  C   UNL     1       1.895   7.764  19.117  0.00  0.00    +0.000 C 
ATOM     15  O   UNL     1       1.802   8.105  17.956  0.00  0.00    +0.000 OA
ATOM     16  N   UNL     1       2.386   6.449  19.516  0.00  0.00    +0.000 N 
ATOM     17  H   UNL     1       1.973   8.546  21.022  0.00  0.00    +0.000 HD
ATOM     18  H   UNL     1       1.903   5.997  20.284  0.00  0.00    +0.000 HD
BRANCH  16  19
ATOM     19  C   UNL     1       3.059   5.594  18.543  0.00  0.00    +0.000 A 
ATOM     20  C   UNL     1       2.335   4.465  18.147  0.00  0.00    +0.000 A 
ATOM     21  C   UNL     1       2.822   3.630  17.188  0.00  0.00    +0.000 A 
ATOM     22  C   UNL     1       4.176   3.498  17.028  0.00  0.00    +0.000 A 
ATOM     23  C   UNL     1       4.951   4.615  17.268  0.00  0.00    +0.000 A 
ATOM     24  C   UNL     1       6.254   4.519  16.790  0.00  0.00    +0.000 A 
ATOM     25  C   UNL     1       7.019   5.667  16.598  0.00  0.00    +0.000 A 
ATOM     26  C   UNL     1       6.443   6.885  16.907  0.00  0.00    +0.000 A 
ATOM     27  C   UNL     1       5.159   6.962  17.546  0.00  0.00    +0.000 A 
ATOM     28  C   UNL     1       4.355   5.791  17.827  0.00  0.00    +0.000 A 
ENDBRANCH  16  19
ENDBRANCH   4  13
BRANCH   1  29
ATOM     29  C   UNL     1       0.482  13.434  21.307  0.00  0.00    +0.000 C 
BRANCH  29  35
ATOM     30  C   UNL     1      -2.466  18.571  18.394  0.00  0.00    +0.000 C 
ATOM     31  N   UNL     1      -1.354  17.880  19.052  0.00  0.00    +0.000 NA
ATOM     32  C   UNL     1      -0.592  17.083  18.067  0.00  0.00    +0.000 C 
ATOM     33  C   UNL     1       0.580  16.314  18.717  0.00  0.00    +0.000 C 
ATOM     34  N   UNL     1       0.144  15.490  19.837  0.00  0.00    +0.000 N 
ATOM     35  C   UNL     1       0.835  14.308  20.079  0.00  0.00    +0.000 C 
ATOM     36  O   UNL     1       1.706  13.933  19.277  0.00  0.00    +0.000 OA
ATOM     37  C   UNL     1      -0.691  16.213  20.824  0.00  0.00    +0.000 C 
ATOM     38  C   UNL     1      -1.836  17.001  20.138  0.00  0.00    +0.000 C 
ENDBRANCH  29  35
ENDBRANCH   1  29
TORSDOF 4
ENDMDL
MODEL 5
REMARK VINA RESULT:      -8.5      2.564      5.059
REMARK  Name = 
REMARK  5 active torsions:
REMARK  status: ('A' for Active; 'I' for Inactive)
REMARK    1  A    between atoms: C_1  and  N_2
REMARK    2  A    between atoms: C_6  and  C_8
REMARK    3  A    between atoms: C_8  and  N_9
REMARK    4  A    between atoms: C_12  and  N_13
REMARK    5  A    between atoms: N_16  and  C_17
REMARK                            x       y       z     vdW  Elec       q    Type
REMARK                         _______ _______ _______ _____ _____    ______ ____
ROOT
ATOM      1  N   UNL     1      -0.341  12.134  21.108  0.00  0.00    +0.000 N 
ATOM      2  C   UNL     1       0.275  10.869  21.339  0.00  0.00    +0.000 C 
ATOM      3  O   UNL     1       0.483  10.491  22.496  0.00  0.00    +0.000 OA
ATOM      4  C   UNL     1       0.854  10.102  20.085  0.00  0.00    +0.000 C 
ATOM      5  C   UNL     1      -0.168  10.001  18.929  0.00  0.00    +0.000 C 
ATOM      6  C   UNL     1      -0.823  11.306  18.445  0.00  0.00    +0.000 C 
ATOM      7  C   UNL     1      -1.958  11.770  19.327  0.00  0.00    +0.000 A 
ATOM      8  C   UNL     1      -3.267  11.933  18.821  0.00  0.00    +0.000 A 
ATOM      9  C   UNL     1      -4.302  12.443  19.606  0.00  0.00    +0.000 A 
ATOM     10  C   UNL     1      -4.026  12.821  20.931  0.00  0.00    +0.000 A 
ATOM     11  C   UNL     1      -2.726  12.680  21.430  0.00  0.00    +0.000 A 
ATOM     12  C   UNL     1      -1.703  12.166  20.644  0.00  0.00    +0.000 A 
ENDROOT
BRANCH   4  13
ATOM     13  N   UNL     1       1.481   8.684  20.340  0.00  0.00    +0.000 N 
ATOM     14  C   UNL     1       1.871   7.857  19.289  0.00  0.00    +0.000 C 
ATOM     15  O   UNL     1       1.743   8.222  18.139  0.00  0.00    +0.000 OA
ATOM     16  N   UNL     1       2.379   6.537  19.646  0.00  0.00    +0.000 N 
ATOM     17  H   UNL     1       1.998   8.599  21.207  0.00  0.00    +0.000 HD
ATOM     18  H   UNL     1       1.920   6.066  20.417  0.00  0.00    +0.000 HD
BRANCH  16  19
ATOM     19  C   UNL     1       3.029   5.706  18.637  0.00  0.00    +0.000 A 
ATOM     20  C   UNL     1       2.271   4.620  18.186  0.00  0.00    +0.000 A 
ATOM     21  C   UNL     1       2.736   3.816  17.192  0.00  0.00    +0.000 A 
ATOM     22  C   UNL     1       4.085   3.647  17.030  0.00  0.00    +0.000 A 
ATOM     23  C   UNL     1       4.894   4.727  17.323  0.00  0.00    +0.000 A 
ATOM     24  C   UNL     1       6.195   4.611  16.845  0.00  0.00    +0.000 A 
ATOM     25  C   UNL     1       6.998   5.742  16.708  0.00  0.00    +0.000 A 
ATOM     26  C   UNL     1       6.459   6.962  17.071  0.00  0.00    +0.000 A 
ATOM     27  C   UNL     1       5.175   7.051  17.710  0.00  0.00    +0.000 A 
ATOM     28  C   UNL     1       4.333   5.894  17.934  0.00  0.00    +0.000 A 
ENDBRANCH  16  19
ENDBRANCH   4  13
BRANCH   1  29
ATOM     29  C   UNL     1       0.174  13.355  21.773  0.00  0.00    +0.000 C 
BRANCH  29  35
ATOM     30  C   UNL     1       1.212  17.983  17.183  0.00  0.00    +0.000 C 
ATOM     31  N   UNL     1       1.441  17.316  18.468  0.00  0.00    +0.000 NA
ATOM     32  C   UNL     1       2.380  16.187  18.298  0.00  0.00    +0.000 C 
ATOM     33  C   UNL     1       2.636  15.434  19.622  0.00  0.00    +0.000 C 
ATOM     34  N   UNL     1       1.399  14.999  20.256  0.00  0.00    +0.000 N 
ATOM     35  C   UNL     1       1.429  13.824  20.999  0.00  0.00    +0.000 C 
ATOM     36  O   UNL     1       2.458  13.127  20.998  0.00  0.00    +0.000 OA
ATOM     37  C   UNL     1       0.384  16.069  20.388  0.00  0.00    +0.000 C 
ATOM     38  C   UNL     1       0.174  16.827  19.051  0.00  0.00    +0.000 C 
ENDBRANCH  29  35
ENDBRANCH   1  29
TORSDOF 4
ENDMDL
MODEL 6
REMARK VINA RESULT:      -8.5      0.643      1.904
REMARK  Name = 
REMARK  5 active torsions:
REMARK  status: ('A' for Active; 'I' for Inactive)
REMARK    1  A    between atoms: C_1  and  N_2
REMARK    2  A    between atoms: C_6  and  C_8
REMARK    3  A    between atoms: C_8  and  N_9
REMARK    4  A    between atoms: C_12  and  N_13
REMARK    5  A    between atoms: N_16  and  C_17
REMARK                            x       y       z     vdW  Elec       q    Type
REMARK                         _______ _______ _______ _____ _____    ______ ____
ROOT
ATOM      1  N   UNL     1      -0.577  12.701  20.896  0.00  0.00    +0.000 N 
ATOM      2  C   UNL     1       0.298  11.580  21.000  0.00  0.00    +0.000 C 
ATOM      3  O   UNL     1       1.334  11.546  20.329  0.00  0.00    +0.000 OA
ATOM      4  C   UNL     1      -0.214  10.332  21.822  0.00  0.00    +0.000 C 
ATOM      5  C   UNL     1      -0.758  10.723  23.215  0.00  0.00    +0.000 C 
ATOM      6  C   UNL     1      -1.833  11.822  23.275  0.00  0.00    +0.000 C 
ATOM      7  C   UNL     1      -1.268  13.219  23.169  0.00  0.00    +0.000 A 
ATOM      8  C   UNL     1      -1.461  14.172  24.194  0.00  0.00    +0.000 A 
ATOM      9  C   UNL     1      -1.017  15.489  24.069  0.00  0.00    +0.000 A 
ATOM     10  C   UNL     1      -0.378  15.879  22.881  0.00  0.00    +0.000 A 
ATOM     11  C   UNL     1      -0.203  14.943  21.855  0.00  0.00    +0.000 A 
ATOM     12  C   UNL     1      -0.641  13.633  21.989  0.00  0.00    +0.000 A 
ENDROOT
BRANCH   4  13
ATOM     13  N   UNL     1       0.778   9.123  21.980  0.00  0.00    +0.000 N 
ATOM     14  C   UNL     1       0.823   8.088  21.047  0.00  0.00    +0.000 C 
ATOM     15  O   UNL     1       0.098   8.104  20.075  0.00  0.00    +0.000 OA
ATOM     16  N   UNL     1       1.737   6.987  21.333  0.00  0.00    +0.000 N 
ATOM     17  H   UNL     1       1.639   9.342  22.465  0.00  0.00    +0.000 HD
ATOM     18  H   UNL     1       1.812   6.698  22.301  0.00  0.00    +0.000 HD
BRANCH  16  19
ATOM     19  C   UNL     1       2.026   5.992  20.305  0.00  0.00    +0.000 A 
ATOM     20  C   UNL     1       1.361   4.771  20.460  0.00  0.00    +0.000 A 
ATOM     21  C   UNL     1       1.487   3.789  19.527  0.00  0.00    +0.000 A 
ATOM     22  C   UNL     1       2.639   3.697  18.791  0.00  0.00    +0.000 A 
ATOM     23  C   UNL     1       3.282   4.878  18.477  0.00  0.00    +0.000 A 
ATOM     24  C   UNL     1       4.245   4.755  17.481  0.00  0.00    +0.000 A 
ATOM     25  C   UNL     1       4.687   5.879  16.787  0.00  0.00    +0.000 A 
ATOM     26  C   UNL     1       4.146   7.103  17.133  0.00  0.00    +0.000 A 
ATOM     27  C   UNL     1       3.273   7.240  18.266  0.00  0.00    +0.000 A 
ATOM     28  C   UNL     1       2.838   6.109  19.057  0.00  0.00    +0.000 A 
ENDBRANCH  16  19
ENDBRANCH   4  13
BRANCH   1  29
ATOM     29  C   UNL     1      -1.021  13.188  19.568  0.00  0.00    +0.000 C 
BRANCH  29  35
ATOM     30  C   UNL     1      -3.993  10.124  14.533  0.00  0.00    +0.000 C 
ATOM     31  N   UNL     1      -3.566  10.274  15.927  0.00  0.00    +0.000 NA
ATOM     32  C   UNL     1      -4.526  11.121  16.667  0.00  0.00    +0.000 C 
ATOM     33  C   UNL     1      -4.107  11.330  18.140  0.00  0.00    +0.000 C 
ATOM     34  N   UNL     1      -2.749  11.845  18.258  0.00  0.00    +0.000 N 
ATOM     35  C   UNL     1      -2.464  12.680  19.333  0.00  0.00    +0.000 C 
ATOM     36  O   UNL     1      -3.386  13.056  20.077  0.00  0.00    +0.000 OA
ATOM     37  C   UNL     1      -1.748  11.084  17.476  0.00  0.00    +0.000 C 
ATOM     38  C   UNL     1      -2.213  10.862  16.013  0.00  0.00    +0.000 C 
ENDBRANCH  29  35
ENDBRANCH   1  29
TORSDOF 4
ENDMDL
MODEL 7
REMARK VINA RESULT:      -8.4      2.217      4.208
REMARK  Name = 
REMARK  5 active torsions:
REMARK  status: ('A' for Active; 'I' for Inactive)
REMARK    1  A    between atoms: C_1  and  N_2
REMARK    2  A    between atoms: C_6  and  C_8
REMARK    3  A    between atoms: C_8  and  N_9
REMARK    4  A    between atoms: C_12  and  N_13
REMARK    5  A    between atoms: N_16  and  C_17
REMARK                            x       y       z     vdW  Elec       q    Type
REMARK                         _______ _______ _______ _____ _____    ______ ____
ROOT
ATOM      1  N   UNL     1      -1.216  12.762  21.915  0.00  0.00    +0.000 N 
ATOM      2  C   UNL     1      -0.522  11.556  22.226  0.00  0.00    +0.000 C 
ATOM      3  O   UNL     1      -0.427  11.188  23.400  0.00  0.00    +0.000 OA
ATOM      4  C   UNL     1       0.276  10.854  21.056  0.00  0.00    +0.000 C 
ATOM      5  C   UNL     1      -0.580  10.672  19.782  0.00  0.00    +0.000 C 
ATOM      6  C   UNL     1      -1.284  11.917  19.215  0.00  0.00    +0.000 C 
ATOM      7  C   UNL     1      -2.557  12.271  19.947  0.00  0.00    +0.000 A 
ATOM      8  C   UNL     1      -3.802  12.320  19.280  0.00  0.00    +0.000 A 
ATOM      9  C   UNL     1      -4.969  12.728  19.928  0.00  0.00    +0.000 A 
ATOM     10  C   UNL     1      -4.896  13.118  21.275  0.00  0.00    +0.000 A 
ATOM     11  C   UNL     1      -3.661  13.090  21.933  0.00  0.00    +0.000 A 
ATOM     12  C   UNL     1      -2.505  12.676  21.284  0.00  0.00    +0.000 A 
ENDROOT
BRANCH   4  13
ATOM     13  N   UNL     1       0.991   9.496  21.392  0.00  0.00    +0.000 N 
ATOM     14  C   UNL     1       1.232   8.534  20.413  0.00  0.00    +0.000 C 
ATOM     15  O   UNL     1       0.901   8.732  19.262  0.00  0.00    +0.000 OA
ATOM     16  N   UNL     1       1.843   7.286  20.856  0.00  0.00    +0.000 N 
ATOM     17  H   UNL     1       1.648   9.542  22.162  0.00  0.00    +0.000 HD
ATOM     18  H   UNL     1       1.537   6.922  21.750  0.00  0.00    +0.000 HD
BRANCH  16  19
ATOM     19  C   UNL     1       2.347   6.331  19.873  0.00  0.00    +0.000 A 
ATOM     20  C   UNL     1       3.410   6.794  19.090  0.00  0.00    +0.000 A 
ATOM     21  C   UNL     1       4.017   5.972  18.191  0.00  0.00    +0.000 A 
ATOM     22  C   UNL     1       3.303   4.962  17.604  0.00  0.00    +0.000 A 
ATOM     23  C   UNL     1       2.323   4.358  18.367  0.00  0.00    +0.000 A 
ATOM     24  C   UNL     1       1.859   3.153  17.849  0.00  0.00    +0.000 A 
ATOM     25  C   UNL     1       1.187   2.248  18.667  0.00  0.00    +0.000 A 
ATOM     26  C   UNL     1       0.994   2.596  19.991  0.00  0.00    +0.000 A 
ATOM     27  C   UNL     1       1.336   3.904  20.476  0.00  0.00    +0.000 A 
ATOM     28  C   UNL     1       1.977   4.902  19.645  0.00  0.00    +0.000 A 
ENDBRANCH  16  19
ENDBRANCH   4  13
BRANCH   1  29
ATOM     29  C   UNL     1      -0.900  14.019  22.636  0.00  0.00    +0.000 C 
BRANCH  29  35
ATOM     30  C   UNL     1      -0.397  17.939  17.350  0.00  0.00    +0.000 C 
ATOM     31  N   UNL     1      -0.204  17.582  18.758  0.00  0.00    +0.000 NA
ATOM     32  C   UNL     1       1.009  16.752  18.914  0.00  0.00    +0.000 C 
ATOM     33  C   UNL     1       1.243  16.329  20.382  0.00  0.00    +0.000 C 
ATOM     34  N   UNL     1       0.078  15.672  20.958  0.00  0.00    +0.000 N 
ATOM     35  C   UNL     1       0.296  14.690  21.919  0.00  0.00    +0.000 C 
ATOM     36  O   UNL     1       1.457  14.321  22.164  0.00  0.00    +0.000 OA
ATOM     37  C   UNL     1      -1.187  16.418  20.768  0.00  0.00    +0.000 C 
ATOM     38  C   UNL     1      -1.376  16.858  19.293  0.00  0.00    +0.000 C 
ENDBRANCH  29  35
ENDBRANCH   1  29
TORSDOF 4
ENDMDL
MODEL 8
REMARK VINA RESULT:      -8.3      2.679      4.901
REMARK  Name = 
REMARK  5 active torsions:
REMARK  status: ('A' for Active; 'I' for Inactive)
REMARK    1  A    between atoms: C_1  and  N_2
REMARK    2  A    between atoms: C_6  and  C_8
REMARK    3  A    between atoms: C_8  and  N_9
REMARK    4  A    between atoms: C_12  and  N_13
REMARK    5  A    between atoms: N_16  and  C_17
REMARK                            x       y       z     vdW  Elec       q    Type
REMARK                         _______ _______ _______ _____ _____    ______ ____
ROOT
ATOM      1  N   UNL     1      -0.962  12.728  20.391  0.00  0.00    +0.000 N 
ATOM      2  C   UNL     1      -0.203  11.580  20.767  0.00  0.00    +0.000 C 
ATOM      3  O   UNL     1       0.187  11.458  21.932  0.00  0.00    +0.000 OA
ATOM      4  C   UNL     1       0.279  10.617  19.611  0.00  0.00    +0.000 C 
ATOM      5  C   UNL     1      -0.869  10.216  18.657  0.00  0.00    +0.000 C 
ATOM      6  C   UNL     1      -1.702  11.349  18.033  0.00  0.00    +0.000 C 
ATOM      7  C   UNL     1      -2.753  11.904  18.966  0.00  0.00    +0.000 A 
ATOM      8  C   UNL     1      -4.126  11.872  18.634  0.00  0.00    +0.000 A 
ATOM      9  C   UNL     1      -5.095  12.458  19.449  0.00  0.00    +0.000 A 
ATOM     10  C   UNL     1      -4.688  13.113  20.623  0.00  0.00    +0.000 A 
ATOM     11  C   UNL     1      -3.327  13.164  20.946  0.00  0.00    +0.000 A 
ATOM     12  C   UNL     1      -2.369  12.573  20.132  0.00  0.00    +0.000 A 
ENDROOT
BRANCH   4  13
ATOM     13  N   UNL     1       1.066   9.326  20.038  0.00  0.00    +0.000 N 
ATOM     14  C   UNL     1       1.641   8.475  19.096  0.00  0.00    +0.000 C 
ATOM     15  O   UNL     1       1.556   8.722  17.911  0.00  0.00    +0.000 OA
ATOM     16  N   UNL     1       2.290   7.272  19.608  0.00  0.00    +0.000 N 
ATOM     17  H   UNL     1       1.521   9.386  20.941  0.00  0.00    +0.000 HD
ATOM     18  H   UNL     1       1.839   6.809  20.388  0.00  0.00    +0.000 HD
BRANCH  16  19
ATOM     19  C   UNL     1       3.120   6.458  18.725  0.00  0.00    +0.000 A 
ATOM     20  C   UNL     1       3.968   7.180  17.878  0.00  0.00    +0.000 A 
ATOM     21  C   UNL     1       4.845   6.536  17.061  0.00  0.00    +0.000 A 
ATOM     22  C   UNL     1       4.546   5.282  16.599  0.00  0.00    +0.000 A 
ATOM     23  C   UNL     1       3.826   4.456  17.439  0.00  0.00    +0.000 A 
ATOM     24  C   UNL     1       3.827   3.117  17.061  0.00  0.00    +0.000 A 
ATOM     25  C   UNL     1       3.500   2.125  17.983  0.00  0.00    +0.000 A 
ATOM     26  C   UNL     1       3.168   2.522  19.265  0.00  0.00    +0.000 A 
ATOM     27  C   UNL     1       3.016   3.910  19.601  0.00  0.00    +0.000 A 
ATOM     28  C   UNL     1       3.282   4.975  18.657  0.00  0.00    +0.000 A 
ENDBRANCH  16  19
ENDBRANCH   4  13
BRANCH   1  29
ATOM     29  C   UNL     1      -0.485  14.090  20.730  0.00  0.00    +0.000 C 
BRANCH  29  35
ATOM     30  C   UNL     1       5.892  15.633  20.010  0.00  0.00    +0.000 C 
ATOM     31  N   UNL     1       4.657  14.917  19.681  0.00  0.00    +0.000 NA
ATOM     32  C   UNL     1       3.813  15.737  18.785  0.00  0.00    +0.000 C 
ATOM     33  C   UNL     1       2.485  15.033  18.427  0.00  0.00    +0.000 C 
ATOM     34  N   UNL     1       1.746  14.617  19.611  0.00  0.00    +0.000 N 
ATOM     35  C   UNL     1       0.357  14.608  19.539  0.00  0.00    +0.000 C 
ATOM     36  O   UNL     1      -0.205  15.065  18.530  0.00  0.00    +0.000 OA
ATOM     37  C   UNL     1       2.558  13.854  20.587  0.00  0.00    +0.000 C 
ATOM     38  C   UNL     1       3.898  14.569  20.900  0.00  0.00    +0.000 C 
ENDBRANCH  29  35
ENDBRANCH   1  29
TORSDOF 4
ENDMDL
MODEL 9
REMARK VINA RESULT:      -8.2      2.344      3.372
REMARK  Name = 
REMARK  5 active torsions:
REMARK  status: ('A' for Active; 'I' for Inactive)
REMARK    1  A    between atoms: C_1  and  N_2
REMARK    2  A    between atoms: C_6  and  C_8
REMARK    3  A    between atoms: C_8  and  N_9
REMARK    4  A    between atoms: C_12  and  N_13
REMARK    5  A    between atoms: N_16  and  C_17
REMARK                            x       y       z     vdW  Elec       q    Type
REMARK                         _______ _______ _______ _____ _____    ______ ____
ROOT
ATOM      1  N   UNL     1      -0.534  11.755  19.196  0.00  0.00    +0.000 N 
ATOM      2  C   UNL     1       0.736  11.317  18.716  0.00  0.00    +0.000 C 
ATOM      3  O   UNL     1       1.471  12.108  18.118  0.00  0.00    +0.000 OA
ATOM      4  C   UNL     1       1.048   9.770  18.793  0.00  0.00    +0.000 C 
ATOM      5  C   UNL     1       0.768   9.179  20.194  0.00  0.00    +0.000 C 
ATOM      6  C   UNL     1      -0.622   9.428  20.804  0.00  0.00    +0.000 C 
ATOM      7  C   UNL     1      -0.769  10.799  21.420  0.00  0.00    +0.000 A 
ATOM      8  C   UNL     1      -1.086  10.964  22.787  0.00  0.00    +0.000 A 
ATOM      9  C   UNL     1      -1.308  12.224  23.345  0.00  0.00    +0.000 A 
ATOM     10  C   UNL     1      -1.232  13.356  22.517  0.00  0.00    +0.000 A 
ATOM     11  C   UNL     1      -0.939  13.195  21.158  0.00  0.00    +0.000 A 
ATOM     12  C   UNL     1      -0.713  11.939  20.611  0.00  0.00    +0.000 A 
ENDROOT
BRANCH   4  13
ATOM     13  N   UNL     1       2.470   9.303  18.315  0.00  0.00    +0.000 N 
ATOM     14  C   UNL     1       2.765   7.958  18.102  0.00  0.00    +0.000 C 
ATOM     15  O   UNL     1       1.916   7.108  18.273  0.00  0.00    +0.000 OA
ATOM     16  N   UNL     1       4.137   7.638  17.723  0.00  0.00    +0.000 N 
ATOM     17  H   UNL     1       2.969   9.978  17.747  0.00  0.00    +0.000 HD
ATOM     18  H   UNL     1       4.870   8.174  18.173  0.00  0.00    +0.000 HD
BRANCH  16  19
ATOM     19  C   UNL     1       4.471   6.298  17.249  0.00  0.00    +0.000 A 
ATOM     20  C   UNL     1       5.139   6.255  16.021  0.00  0.00    +0.000 A 
ATOM     21  C   UNL     1       5.572   5.070  15.509  0.00  0.00    +0.000 A 
ATOM     22  C   UNL     1       4.900   3.915  15.810  0.00  0.00    +0.000 A 
ATOM     23  C   UNL     1       4.328   3.827  17.064  0.00  0.00    +0.000 A 
ATOM     24  C   UNL     1       3.944   2.540  17.426  0.00  0.00    +0.000 A 
ATOM     25  C   UNL     1       3.730   2.221  18.765  0.00  0.00    +0.000 A 
ATOM     26  C   UNL     1       3.899   3.224  19.702  0.00  0.00    +0.000 A 
ATOM     27  C   UNL     1       4.140   4.584  19.304  0.00  0.00    +0.000 A 
ATOM     28  C   UNL     1       4.305   4.974  17.920  0.00  0.00    +0.000 A 
ENDBRANCH  16  19
ENDBRANCH   4  13
BRANCH   1  29
ATOM     29  C   UNL     1      -1.471  12.472  18.299  0.00  0.00    +0.000 C 
BRANCH  29  35
ATOM     30  C   UNL     1      -7.477  11.017  20.616  0.00  0.00    +0.000 C 
ATOM     31  N   UNL     1      -6.519  11.436  19.591  0.00  0.00    +0.000 NA
ATOM     32  C   UNL     1      -5.899  10.252  18.956  0.00  0.00    +0.000 C 
ATOM     33  C   UNL     1      -4.860  10.642  17.881  0.00  0.00    +0.000 C 
ATOM     34  N   UNL     1      -3.848  11.553  18.397  0.00  0.00    +0.000 N 
ATOM     35  C   UNL     1      -2.568  11.473  17.859  0.00  0.00    +0.000 C 
ATOM     36  O   UNL     1      -2.297  10.561  17.060  0.00  0.00    +0.000 OA
ATOM     37  C   UNL     1      -4.404  12.724  19.113  0.00  0.00    +0.000 C 
ATOM     38  C   UNL     1      -5.467  12.303  20.160  0.00  0.00    +0.000 C 
ENDBRANCH  29  35
ENDBRANCH   1  29
TORSDOF 4
ENDMDL
