MODEL 1
REMARK VINA RESULT:      -8.4      0.000      0.000
REMARK  Name = 
REMARK  6 active torsions:
REMARK  status: ('A' for Active; 'I' for Inactive)
REMARK    1  A    between atoms: C_1  and  C_2
REMARK    2  A    between atoms: C_2  and  C_3
REMARK    3  A    between atoms: C_6  and  O_7
REMARK    4  A    between atoms: O_7  and  C_8
REMARK    5  A    between atoms: N_12  and  C_13
REMARK    6  A    between atoms: C_16  and  C_17
REMARK                            x       y       z     vdW  Elec       q    Type
REMARK                         _______ _______ _______ _____ _____    ______ ____
ROOT
ATOM      1  C   UNL     1       6.976   5.509  18.092  0.00  0.00    +0.000 A 
ATOM      2  N   UNL     1       7.491   6.482  18.817  0.00  0.00    +0.000 NA
ATOM      3  N   UNL     1       7.952   7.410  17.926  0.00  0.00    +0.000 NA
ATOM      4  N   UNL     1       7.719   7.034  16.678  0.00  0.00    +0.000 NA
ATOM      5  N   UNL     1       7.054   5.850  16.754  0.00  0.00    +0.000 N 
ENDROOT
BRANCH   5   6
ATOM      6  C   UNL     1       6.616   5.174  15.585  0.00  0.00    +0.000 A 
ATOM      7  C   UNL     1       7.472   5.103  14.471  0.00  0.00    +0.000 A 
ATOM      8  C   UNL     1       7.084   4.418  13.313  0.00  0.00    +0.000 A 
ATOM      9  C   UNL     1       5.829   3.804  13.245  0.00  0.00    +0.000 A 
ATOM     10  C   UNL     1       4.968   3.900  14.347  0.00  0.00    +0.000 A 
ATOM     11  C   UNL     1       5.354   4.577  15.510  0.00  0.00    +0.000 A 
BRANCH   9  12
ATOM     12  C   UNL     1       5.348   3.039  12.057  0.00  0.00    +0.000 C 
ATOM     13  N   UNL     1       6.031   1.922  11.672  0.00  0.00    +0.000 N 
ATOM     14  O   UNL     1       4.353   3.393  11.435  0.00  0.00    +0.000 OA
ATOM     15  H   UNL     1       6.838   1.535  12.134  0.00  0.00    +0.000 HD
ATOM     16  H   UNL     1       5.658   1.420  10.875  0.00  0.00    +0.000 HD
ENDBRANCH   9  12
ENDBRANCH   5   6
BRANCH   1  17
ATOM     17  O   UNL     1       6.492   4.361  18.560  0.00  0.00    +0.000 OA
BRANCH  17  21
ATOM     18  C   UNL     1       2.579   3.866  19.936  0.00  0.00    +0.000 A 
ATOM     19  C   UNL     1       3.337   2.779  19.479  0.00  0.00    +0.000 A 
ATOM     20  C   UNL     1       4.637   2.975  19.007  0.00  0.00    +0.000 A 
ATOM     21  C   UNL     1       5.184   4.257  18.972  0.00  0.00    +0.000 A 
ATOM     22  C   UNL     1       4.432   5.344  19.429  0.00  0.00    +0.000 A 
ATOM     23  C   UNL     1       3.135   5.149  19.900  0.00  0.00    +0.000 A 
BRANCH  18  25
ATOM     24  C   UNL     1       1.277   2.687  21.706  0.00  0.00    +0.000 C 
ATOM     25  C   UNL     1       1.211   3.657  20.535  0.00  0.00    +0.000 C 
ENDBRANCH  18  25
ENDBRANCH  17  21
ENDBRANCH   1  17
TORSDOF 5
ENDMDL
MODEL 2
REMARK VINA RESULT:      -8.3      0.250      1.010
REMARK  Name = 
REMARK  6 active torsions:
REMARK  status: ('A' for Active; 'I' for Inactive)
REMARK    1  A    between atoms: C_1  and  C_2
REMARK    2  A    between atoms: C_2  and  C_3
REMARK    3  A    between atoms: C_6  and  O_7
REMARK    4  A    between atoms: O_7  and  C_8
REMARK    5  A    between atoms: N_12  and  C_13
REMARK    6  A    between atoms: C_16  and  C_17
REMARK                            x       y       z     vdW  Elec       q    Type
REMARK                         _______ _______ _______ _____ _____    ______ ____
ROOT
ATOM      1  C   UNL     1       7.003   5.442  18.025  0.00  0.00    +0.000 A 
ATOM      2  N   UNL     1       7.512   6.416  18.753  0.00  0.00    +0.000 NA
ATOM      3  N   UNL     1       7.930   7.368  17.866  0.00  0.00    +0.000 NA
ATOM      4  N   UNL     1       7.676   7.006  16.618  0.00  0.00    +0.000 NA
ATOM      5  N   UNL     1       7.041   5.806  16.691  0.00  0.00    +0.000 N 
ENDROOT
BRANCH   5   6
ATOM      6  C   UNL     1       6.591   5.138  15.522  0.00  0.00    +0.000 A 
ATOM      7  C   UNL     1       7.443   5.056  14.406  0.00  0.00    +0.000 A 
ATOM      8  C   UNL     1       7.043   4.378  13.248  0.00  0.00    +0.000 A 
ATOM      9  C   UNL     1       5.779   3.783  13.181  0.00  0.00    +0.000 A 
ATOM     10  C   UNL     1       4.921   3.891  14.285  0.00  0.00    +0.000 A 
ATOM     11  C   UNL     1       5.320   4.560  15.449  0.00  0.00    +0.000 A 
BRANCH   9  12
ATOM     12  C   UNL     1       5.285   3.028  11.994  0.00  0.00    +0.000 C 
ATOM     13  N   UNL     1       5.927   1.881  11.628  0.00  0.00    +0.000 N 
ATOM     14  O   UNL     1       4.313   3.415  11.354  0.00  0.00    +0.000 OA
ATOM     15  H   UNL     1       6.712   1.466  12.104  0.00  0.00    +0.000 HD
ATOM     16  H   UNL     1       5.546   1.387  10.830  0.00  0.00    +0.000 HD
ENDBRANCH   9  12
ENDBRANCH   5   6
BRANCH   1  17
ATOM     17  O   UNL     1       6.558   4.276  18.485  0.00  0.00    +0.000 OA
BRANCH  17  21
ATOM     18  C   UNL     1       2.724   4.094  20.137  0.00  0.00    +0.000 A 
ATOM     19  C   UNL     1       3.268   5.302  19.679  0.00  0.00    +0.000 A 
ATOM     20  C   UNL     1       4.560   5.339  19.148  0.00  0.00    +0.000 A 
ATOM     21  C   UNL     1       5.323   4.174  19.085  0.00  0.00    +0.000 A 
ATOM     22  C   UNL     1       4.785   2.966  19.537  0.00  0.00    +0.000 A 
ATOM     23  C   UNL     1       3.496   2.929  20.067  0.00  0.00    +0.000 A 
BRANCH  18  25
ATOM     24  C   UNL     1       1.066   2.750  21.425  0.00  0.00    +0.000 C 
ATOM     25  C   UNL     1       1.300   4.023  20.625  0.00  0.00    +0.000 C 
ENDBRANCH  18  25
ENDBRANCH  17  21
ENDBRANCH   1  17
TORSDOF 5
ENDMDL
MODEL 3
REMARK VINA RESULT:      -8.2      2.440      6.176
REMARK  Name = 
REMARK  6 active torsions:
REMARK  status: ('A' for Active; 'I' for Inactive)
REMARK    1  A    between atoms: C_1  and  C_2
REMARK    2  A    between atoms: C_2  and  C_3
REMARK    3  A    between atoms: C_6  and  O_7
REMARK    4  A    between atoms: O_7  and  C_8
REMARK    5  A    between atoms: N_12  and  C_13
REMARK    6  A    between atoms: C_16  and  C_17
REMARK                            x       y       z     vdW  Elec       q    Type
REMARK                         _______ _______ _______ _____ _____    ______ ____
ROOT
ATOM      1  C   UNL     1       6.849   6.016  18.026  0.00  0.00    +0.000 A 
ATOM      2  N   UNL     1       8.079   6.323  18.389  0.00  0.00    +0.000 NA
ATOM      3  N   UNL     1       8.227   5.838  19.659  0.00  0.00    +0.000 NA
ATOM      4  N   UNL     1       7.125   5.233  20.073  0.00  0.00    +0.000 NA
ATOM      5  N   UNL     1       6.248   5.287  19.036  0.00  0.00    +0.000 N 
ENDROOT
BRANCH   5   6
ATOM      6  C   UNL     1       4.960   4.695  19.128  0.00  0.00    +0.000 A 
ATOM      7  C   UNL     1       3.820   5.513  19.037  0.00  0.00    +0.000 A 
ATOM      8  C   UNL     1       2.535   4.958  19.093  0.00  0.00    +0.000 A 
ATOM      9  C   UNL     1       2.369   3.579  19.254  0.00  0.00    +0.000 A 
ATOM     10  C   UNL     1       3.508   2.770  19.373  0.00  0.00    +0.000 A 
ATOM     11  C   UNL     1       4.795   3.318  19.309  0.00  0.00    +0.000 A 
BRANCH   9  12
ATOM     12  C   UNL     1       1.037   2.909  19.305  0.00  0.00    +0.000 C 
ATOM     13  N   UNL     1       0.365   2.867  20.491  0.00  0.00    +0.000 N 
ATOM     14  O   UNL     1       0.540   2.408  18.302  0.00  0.00    +0.000 OA
ATOM     15  H   UNL     1       0.674   3.274  21.359  0.00  0.00    +0.000 HD
ATOM     16  H   UNL     1      -0.545   2.423  20.478  0.00  0.00    +0.000 HD
ENDBRANCH   9  12
ENDBRANCH   5   6
BRANCH   1  17
ATOM     17  O   UNL     1       6.258   6.379  16.891  0.00  0.00    +0.000 OA
BRANCH  17  21
ATOM     18  C   UNL     1       6.087   3.949  13.496  0.00  0.00    +0.000 A 
ATOM     19  C   UNL     1       5.017   4.023  14.398  0.00  0.00    +0.000 A 
ATOM     20  C   UNL     1       5.107   4.829  15.536  0.00  0.00    +0.000 A 
ATOM     21  C   UNL     1       6.271   5.554  15.789  0.00  0.00    +0.000 A 
ATOM     22  C   UNL     1       7.339   5.486  14.891  0.00  0.00    +0.000 A 
ATOM     23  C   UNL     1       7.249   4.682  13.756  0.00  0.00    +0.000 A 
BRANCH  18  25
ATOM     24  C   UNL     1       4.559   3.257  11.652  0.00  0.00    +0.000 C 
ATOM     25  C   UNL     1       5.967   3.158  12.219  0.00  0.00    +0.000 C 
ENDBRANCH  18  25
ENDBRANCH  17  21
ENDBRANCH   1  17
TORSDOF 5
ENDMDL
MODEL 4
REMARK VINA RESULT:      -8.0      0.369      1.112
REMARK  Name = 
REMARK  6 active torsions:
REMARK  status: ('A' for Active; 'I' for Inactive)
REMARK    1  A    between atoms: C_1  and  C_2
REMARK    2  A    between atoms: C_2  and  C_3
REMARK    3  A    between atoms: C_6  and  O_7
REMARK    4  A    between atoms: O_7  and  C_8
REMARK    5  A    between atoms: N_12  and  C_13
REMARK    6  A    between atoms: C_16  and  C_17
REMARK                            x       y       z     vdW  Elec       q    Type
REMARK                         _______ _______ _______ _____ _____    ______ ____
ROOT
ATOM      1  C   UNL     1       7.047   5.582  18.101  0.00  0.00    +0.000 A 
ATOM      2  N   UNL     1       7.553   6.578  18.800  0.00  0.00    +0.000 NA
ATOM      3  N   UNL     1       8.008   7.485  17.884  0.00  0.00    +0.000 NA
ATOM      4  N   UNL     1       7.780   7.074  16.646  0.00  0.00    +0.000 NA
ATOM      5  N   UNL     1       7.124   5.888  16.754  0.00  0.00    +0.000 N 
ENDROOT
BRANCH   5   6
ATOM      6  C   UNL     1       6.692   5.177  15.603  0.00  0.00    +0.000 A 
ATOM      7  C   UNL     1       5.443   4.531  15.623  0.00  0.00    +0.000 A 
ATOM      8  C   UNL     1       4.973   3.848  14.494  0.00  0.00    +0.000 A 
ATOM      9  C   UNL     1       5.749   3.788  13.333  0.00  0.00    +0.000 A 
ATOM     10  C   UNL     1       7.006   4.409  13.326  0.00  0.00    +0.000 A 
ATOM     11  C   UNL     1       7.477   5.101  14.449  0.00  0.00    +0.000 A 
BRANCH   9  12
ATOM     12  C   UNL     1       5.314   3.097  12.084  0.00  0.00    +0.000 C 
ATOM     13  N   UNL     1       6.018   2.011  11.652  0.00  0.00    +0.000 N 
ATOM     14  O   UNL     1       4.336   3.483  11.453  0.00  0.00    +0.000 OA
ATOM     15  H   UNL     1       6.813   1.600  12.115  0.00  0.00    +0.000 HD
ATOM     16  H   UNL     1       5.676   1.558  10.814  0.00  0.00    +0.000 HD
ENDBRANCH   9  12
ENDBRANCH   5   6
BRANCH   1  17
ATOM     17  O   UNL     1       6.572   4.443  18.598  0.00  0.00    +0.000 OA
BRANCH  17  21
ATOM     18  C   UNL     1       2.704   4.019  20.120  0.00  0.00    +0.000 A 
ATOM     19  C   UNL     1       3.534   2.909  19.909  0.00  0.00    +0.000 A 
ATOM     20  C   UNL     1       4.816   3.077  19.381  0.00  0.00    +0.000 A 
ATOM     21  C   UNL     1       5.274   4.350  19.046  0.00  0.00    +0.000 A 
ATOM     22  C   UNL     1       4.452   5.461  19.258  0.00  0.00    +0.000 A 
ATOM     23  C   UNL     1       3.172   5.294  19.784  0.00  0.00    +0.000 A 
BRANCH  18  25
ATOM     24  C   UNL     1       0.401   3.098  19.871  0.00  0.00    +0.000 C 
ATOM     25  C   UNL     1       1.356   3.863  20.776  0.00  0.00    +0.000 C 
ENDBRANCH  18  25
ENDBRANCH  17  21
ENDBRANCH   1  17
TORSDOF 5
ENDMDL
MODEL 5
REMARK VINA RESULT:      -8.0      4.028      7.123
REMARK  Name = 
REMARK  6 active torsions:
REMARK  status: ('A' for Active; 'I' for Inactive)
REMARK    1  A    between atoms: C_1  and  C_2
REMARK    2  A    between atoms: C_2  and  C_3
REMARK    3  A    between atoms: C_6  and  O_7
REMARK    4  A    between atoms: O_7  and  C_8
REMARK    5  A    between atoms: N_12  and  C_13
REMARK    6  A    between atoms: C_16  and  C_17
REMARK                            x       y       z     vdW  Elec       q    Type
REMARK                         _______ _______ _______ _____ _____    ______ ____
ROOT
ATOM      1  C   UNL     1       3.589   3.804  19.717  0.00  0.00    +0.000 A 
ATOM      2  N   UNL     1       3.284   2.540  19.936  0.00  0.00    +0.000 NA
ATOM      3  N   UNL     1       1.938   2.515  20.171  0.00  0.00    +0.000 NA
ATOM      4  N   UNL     1       1.413   3.727  20.087  0.00  0.00    +0.000 NA
ATOM      5  N   UNL     1       2.433   4.561  19.749  0.00  0.00    +0.000 N 
ENDROOT
BRANCH   5   6
ATOM      6  C   UNL     1       2.212   5.949  19.542  0.00  0.00    +0.000 A 
ATOM      7  C   UNL     1       2.465   6.502  18.274  0.00  0.00    +0.000 A 
ATOM      8  C   UNL     1       2.229   7.860  18.026  0.00  0.00    +0.000 A 
ATOM      9  C   UNL     1       1.749   8.689  19.044  0.00  0.00    +0.000 A 
ATOM     10  C   UNL     1       1.525   8.140  20.315  0.00  0.00    +0.000 A 
ATOM     11  C   UNL     1       1.751   6.781  20.566  0.00  0.00    +0.000 A 
BRANCH   9  12
ATOM     12  C   UNL     1       1.455  10.140  18.858  0.00  0.00    +0.000 C 
ATOM     13  N   UNL     1       2.044  10.804  17.821  0.00  0.00    +0.000 N 
ATOM     14  O   UNL     1       0.691  10.735  19.609  0.00  0.00    +0.000 OA
ATOM     15  H   UNL     1       2.660  10.399  17.135  0.00  0.00    +0.000 HD
ATOM     16  H   UNL     1       1.801  11.781  17.716  0.00  0.00    +0.000 HD
ENDBRANCH   9  12
ENDBRANCH   5   6
BRANCH   1  17
ATOM     17  O   UNL     1       4.814   4.289  19.533  0.00  0.00    +0.000 OA
BRANCH  17  21
ATOM     18  C   UNL     1       6.361   4.452  15.655  0.00  0.00    +0.000 A 
ATOM     19  C   UNL     1       5.071   3.969  15.908  0.00  0.00    +0.000 A 
ATOM     20  C   UNL     1       4.584   3.907  17.217  0.00  0.00    +0.000 A 
ATOM     21  C   UNL     1       5.387   4.313  18.282  0.00  0.00    +0.000 A 
ATOM     22  C   UNL     1       6.674   4.798  18.034  0.00  0.00    +0.000 A 
ATOM     23  C   UNL     1       7.160   4.860  16.728  0.00  0.00    +0.000 A 
BRANCH  18  25
ATOM     24  C   UNL     1       6.062   3.745  13.283  0.00  0.00    +0.000 C 
ATOM     25  C   UNL     1       6.864   4.612  14.243  0.00  0.00    +0.000 C 
ENDBRANCH  18  25
ENDBRANCH  17  21
ENDBRANCH   1  17
TORSDOF 5
ENDMDL
MODEL 6
REMARK VINA RESULT:      -8.0      3.971      7.196
REMARK  Name = 
REMARK  6 active torsions:
REMARK  status: ('A' for Active; 'I' for Inactive)
REMARK    1  A    between atoms: C_1  and  C_2
REMARK    2  A    between atoms: C_2  and  C_3
REMARK    3  A    between atoms: C_6  and  O_7
REMARK    4  A    between atoms: O_7  and  C_8
REMARK    5  A    between atoms: N_12  and  C_13
REMARK    6  A    between atoms: C_16  and  C_17
REMARK                            x       y       z     vdW  Elec       q    Type
REMARK                         _______ _______ _______ _____ _____    ______ ____
ROOT
ATOM      1  C   UNL     1       3.816   3.921  19.636  0.00  0.00    +0.000 A 
ATOM      2  N   UNL     1       3.605   2.645  19.891  0.00  0.00    +0.000 NA
ATOM      3  N   UNL     1       2.280   2.542  20.212  0.00  0.00    +0.000 NA
ATOM      4  N   UNL     1       1.677   3.718  20.145  0.00  0.00    +0.000 NA
ATOM      5  N   UNL     1       2.619   4.607  19.732  0.00  0.00    +0.000 N 
ENDROOT
BRANCH   5   6
ATOM      6  C   UNL     1       2.300   5.975  19.520  0.00  0.00    +0.000 A 
ATOM      7  C   UNL     1       1.807   6.739  20.592  0.00  0.00    +0.000 A 
ATOM      8  C   UNL     1       1.512   8.098  20.426  0.00  0.00    +0.000 A 
ATOM      9  C   UNL     1       1.692   8.711  19.183  0.00  0.00    +0.000 A 
ATOM     10  C   UNL     1       2.158   7.939  18.109  0.00  0.00    +0.000 A 
ATOM     11  C   UNL     1       2.463   6.583  18.271  0.00  0.00    +0.000 A 
BRANCH   9  12
ATOM     12  C   UNL     1       1.420  10.156  18.928  0.00  0.00    +0.000 C 
ATOM     13  N   UNL     1       1.736  10.681  17.709  0.00  0.00    +0.000 N 
ATOM     14  O   UNL     1       0.912  10.867  19.787  0.00  0.00    +0.000 OA
ATOM     15  H   UNL     1       2.127  10.174  16.931  0.00  0.00    +0.000 HD
ATOM     16  H   UNL     1       1.515  11.659  17.570  0.00  0.00    +0.000 HD
ENDBRANCH   9  12
ENDBRANCH   5   6
BRANCH   1  17
ATOM     17  O   UNL     1       4.995   4.477  19.366  0.00  0.00    +0.000 OA
BRANCH  17  21
ATOM     18  C   UNL     1       6.447   4.426  15.449  0.00  0.00    +0.000 A 
ATOM     19  C   UNL     1       5.111   4.117  15.739  0.00  0.00    +0.000 A 
ATOM     20  C   UNL     1       4.656   4.123  17.059  0.00  0.00    +0.000 A 
ATOM     21  C   UNL     1       5.533   4.422  18.101  0.00  0.00    +0.000 A 
ATOM     22  C   UNL     1       6.865   4.734  17.817  0.00  0.00    +0.000 A 
ATOM     23  C   UNL     1       7.321   4.728  16.499  0.00  0.00    +0.000 A 
BRANCH  18  25
ATOM     24  C   UNL     1       6.034   3.703  13.099  0.00  0.00    +0.000 C 
ATOM     25  C   UNL     1       6.929   4.515  14.023  0.00  0.00    +0.000 C 
ENDBRANCH  18  25
ENDBRANCH  17  21
ENDBRANCH   1  17
TORSDOF 5
ENDMDL
MODEL 7
REMARK VINA RESULT:      -8.0      3.980      7.169
REMARK  Name = 
REMARK  6 active torsions:
REMARK  status: ('A' for Active; 'I' for Inactive)
REMARK    1  A    between atoms: C_1  and  C_2
REMARK    2  A    between atoms: C_2  and  C_3
REMARK    3  A    between atoms: C_6  and  O_7
REMARK    4  A    between atoms: O_7  and  C_8
REMARK    5  A    between atoms: N_12  and  C_13
REMARK    6  A    between atoms: C_16  and  C_17
REMARK                            x       y       z     vdW  Elec       q    Type
REMARK                         _______ _______ _______ _____ _____    ______ ____
ROOT
ATOM      1  C   UNL     1       3.645   3.693  19.550  0.00  0.00    +0.000 A 
ATOM      2  N   UNL     1       3.351   2.426  19.763  0.00  0.00    +0.000 NA
ATOM      3  N   UNL     1       2.018   2.396  20.066  0.00  0.00    +0.000 NA
ATOM      4  N   UNL     1       1.490   3.610  20.029  0.00  0.00    +0.000 NA
ATOM      5  N   UNL     1       2.492   4.449  19.653  0.00  0.00    +0.000 N 
ENDROOT
BRANCH   5   6
ATOM      6  C   UNL     1       2.262   5.840  19.480  0.00  0.00    +0.000 A 
ATOM      7  C   UNL     1       2.466   6.418  18.214  0.00  0.00    +0.000 A 
ATOM      8  C   UNL     1       2.219   7.780  18.001  0.00  0.00    +0.000 A 
ATOM      9  C   UNL     1       1.777   8.588  19.052  0.00  0.00    +0.000 A 
ATOM     10  C   UNL     1       1.600   8.015  20.319  0.00  0.00    +0.000 A 
ATOM     11  C   UNL     1       1.838   6.652  20.536  0.00  0.00    +0.000 A 
BRANCH   9  12
ATOM     12  C   UNL     1       1.473  10.042  18.903  0.00  0.00    +0.000 C 
ATOM     13  N   UNL     1       1.947  10.705  17.809  0.00  0.00    +0.000 N 
ATOM     14  O   UNL     1       0.803  10.639  19.738  0.00  0.00    +0.000 OA
ATOM     15  H   UNL     1       2.478  10.298  17.056  0.00  0.00    +0.000 HD
ATOM     16  H   UNL     1       1.700  11.684  17.735  0.00  0.00    +0.000 HD
ENDBRANCH   9  12
ENDBRANCH   5   6
BRANCH   1  17
ATOM     17  O   UNL     1       4.859   4.181  19.311  0.00  0.00    +0.000 OA
BRANCH  17  21
ATOM     18  C   UNL     1       6.425   4.674  15.468  0.00  0.00    +0.000 A 
ATOM     19  C   UNL     1       7.129   5.094  16.605  0.00  0.00    +0.000 A 
ATOM     20  C   UNL     1       6.574   4.935  17.878  0.00  0.00    +0.000 A 
ATOM     21  C   UNL     1       5.308   4.370  18.023  0.00  0.00    +0.000 A 
ATOM     22  C   UNL     1       4.603   3.946  16.893  0.00  0.00    +0.000 A 
ATOM     23  C   UNL     1       5.157   4.105  15.623  0.00  0.00    +0.000 A 
BRANCH  18  25
ATOM     24  C   UNL     1       6.357   3.804  13.133  0.00  0.00    +0.000 C 
ATOM     25  C   UNL     1       7.050   4.753  14.099  0.00  0.00    +0.000 C 
ENDBRANCH  18  25
ENDBRANCH  17  21
ENDBRANCH   1  17
TORSDOF 5
ENDMDL
MODEL 8
REMARK VINA RESULT:      -8.0      3.917      7.192
REMARK  Name = 
REMARK  6 active torsions:
REMARK  status: ('A' for Active; 'I' for Inactive)
REMARK    1  A    between atoms: C_1  and  C_2
REMARK    2  A    between atoms: C_2  and  C_3
REMARK    3  A    between atoms: C_6  and  O_7
REMARK    4  A    between atoms: O_7  and  C_8
REMARK    5  A    between atoms: N_12  and  C_13
REMARK    6  A    between atoms: C_16  and  C_17
REMARK                            x       y       z     vdW  Elec       q    Type
REMARK                         _______ _______ _______ _____ _____    ______ ____
ROOT
ATOM      1  C   UNL     1       3.838   3.750  19.566  0.00  0.00    +0.000 A 
ATOM      2  N   UNL     1       3.619   2.478  19.833  0.00  0.00    +0.000 NA
ATOM      3  N   UNL     1       2.301   2.392  20.185  0.00  0.00    +0.000 NA
ATOM      4  N   UNL     1       1.709   3.575  20.126  0.00  0.00    +0.000 NA
ATOM      5  N   UNL     1       2.651   4.450  19.686  0.00  0.00    +0.000 N 
ENDROOT
BRANCH   5   6
ATOM      6  C   UNL     1       2.343   5.820  19.474  0.00  0.00    +0.000 A 
ATOM      7  C   UNL     1       1.858   6.589  20.547  0.00  0.00    +0.000 A 
ATOM      8  C   UNL     1       1.573   7.950  20.380  0.00  0.00    +0.000 A 
ATOM      9  C   UNL     1       1.756   8.561  19.136  0.00  0.00    +0.000 A 
ATOM     10  C   UNL     1       2.213   7.785  18.062  0.00  0.00    +0.000 A 
ATOM     11  C   UNL     1       2.507   6.426  18.224  0.00  0.00    +0.000 A 
BRANCH   9  12
ATOM     12  C   UNL     1       1.494  10.008  18.881  0.00  0.00    +0.000 C 
ATOM     13  N   UNL     1       1.857  10.541  17.679  0.00  0.00    +0.000 N 
ATOM     14  O   UNL     1       0.954  10.714  19.725  0.00  0.00    +0.000 OA
ATOM     15  H   UNL     1       2.277  10.039  16.913  0.00  0.00    +0.000 HD
ATOM     16  H   UNL     1       1.642  11.520  17.537  0.00  0.00    +0.000 HD
ENDBRANCH   9  12
ENDBRANCH   5   6
BRANCH   1  17
ATOM     17  O   UNL     1       5.016   4.291  19.266  0.00  0.00    +0.000 OA
BRANCH  17  21
ATOM     18  C   UNL     1       6.446   4.667  15.358  0.00  0.00    +0.000 A 
ATOM     19  C   UNL     1       7.158   5.180  16.450  0.00  0.00    +0.000 A 
ATOM     20  C   UNL     1       6.648   5.058  17.745  0.00  0.00    +0.000 A 
ATOM     21  C   UNL     1       5.418   4.436  17.958  0.00  0.00    +0.000 A 
ATOM     22  C   UNL     1       4.706   3.920  16.872  0.00  0.00    +0.000 A 
ATOM     23  C   UNL     1       5.215   4.042  15.579  0.00  0.00    +0.000 A 
BRANCH  18  25
ATOM     24  C   UNL     1       6.271   3.772  13.038  0.00  0.00    +0.000 C 
ATOM     25  C   UNL     1       7.028   4.708  13.968  0.00  0.00    +0.000 C 
ENDBRANCH  18  25
ENDBRANCH  17  21
ENDBRANCH   1  17
TORSDOF 5
ENDMDL
MODEL 9
REMARK VINA RESULT:      -7.9      3.790      7.110
REMARK  Name = 
REMARK  6 active torsions:
REMARK  status: ('A' for Active; 'I' for Inactive)
REMARK    1  A    between atoms: C_1  and  C_2
REMARK    2  A    between atoms: C_2  and  C_3
REMARK    3  A    between atoms: C_6  and  O_7
REMARK    4  A    between atoms: O_7  and  C_8
REMARK    5  A    between atoms: N_12  and  C_13
REMARK    6  A    between atoms: C_16  and  C_17
REMARK                            x       y       z     vdW  Elec       q    Type
REMARK                         _______ _______ _______ _____ _____    ______ ____
ROOT
ATOM      1  C   UNL     1       4.661   4.388  19.199  0.00  0.00    +0.000 A 
ATOM      2  N   UNL     1       4.758   3.126  19.564  0.00  0.00    +0.000 NA
ATOM      3  N   UNL     1       3.623   2.854  20.277  0.00  0.00    +0.000 NA
ATOM      4  N   UNL     1       2.832   3.913  20.342  0.00  0.00    +0.000 NA
ATOM      5  N   UNL     1       3.444   4.891  19.622  0.00  0.00    +0.000 N 
ENDROOT
BRANCH   5   6
ATOM      6  C   UNL     1       2.845   6.168  19.455  0.00  0.00    +0.000 A 
ATOM      7  C   UNL     1       2.938   6.812  18.208  0.00  0.00    +0.000 A 
ATOM      8  C   UNL     1       2.333   8.057  17.999  0.00  0.00    +0.000 A 
ATOM      9  C   UNL     1       1.637   8.685  19.037  0.00  0.00    +0.000 A 
ATOM     10  C   UNL     1       1.570   8.053  20.287  0.00  0.00    +0.000 A 
ATOM     11  C   UNL     1       2.166   6.804  20.498  0.00  0.00    +0.000 A 
BRANCH   9  12
ATOM     12  C   UNL     1       0.949  10.001  18.891  0.00  0.00    +0.000 C 
ATOM     13  N   UNL     1       0.210  10.237  17.769  0.00  0.00    +0.000 N 
ATOM     14  O   UNL     1       1.031  10.860  19.762  0.00  0.00    +0.000 OA
ATOM     15  H   UNL     1       0.057   9.587  17.015  0.00  0.00    +0.000 HD
ATOM     16  H   UNL     1      -0.259  11.134  17.719  0.00  0.00    +0.000 HD
ENDBRANCH   9  12
ENDBRANCH   5   6
BRANCH   1  17
ATOM     17  O   UNL     1       5.595   5.088  18.559  0.00  0.00    +0.000 OA
BRANCH  17  21
ATOM     18  C   UNL     1       6.420   4.296  14.541  0.00  0.00    +0.000 A 
ATOM     19  C   UNL     1       5.173   3.996  15.105  0.00  0.00    +0.000 A 
ATOM     20  C   UNL     1       4.929   4.253  16.456  0.00  0.00    +0.000 A 
ATOM     21  C   UNL     1       5.932   4.798  17.257  0.00  0.00    +0.000 A 
ATOM     22  C   UNL     1       7.177   5.101  16.699  0.00  0.00    +0.000 A 
ATOM     23  C   UNL     1       7.421   4.844  15.350  0.00  0.00    +0.000 A 
BRANCH  18  25
ATOM     24  C   UNL     1       5.493   3.402  12.407  0.00  0.00    +0.000 C 
ATOM     25  C   UNL     1       6.666   4.111  13.065  0.00  0.00    +0.000 C 
ENDBRANCH  18  25
ENDBRANCH  17  21
ENDBRANCH   1  17
TORSDOF 5
ENDMDL
