MODEL 1
REMARK VINA RESULT:      -7.6      0.000      0.000
REMARK  Name = 
REMARK  18 active torsions:
REMARK  status: ('A' for Active; 'I' for Inactive)
REMARK    1  A    between atoms: C_1  and  C_2
REMARK    2  A    between atoms: C_2  and  C_3
REMARK    3  A    between atoms: C_3  and  C_4
REMARK    4  A    between atoms: C_4  and  C_5
REMARK    5  A    between atoms: C_5  and  C_6
REMARK    6  A    between atoms: C_6  and  C_7
REMARK    7  A    between atoms: C_7  and  C_8
REMARK    8  A    between atoms: C_8  and  O_9
REMARK    9  A    between atoms: O_9  and  C_10
REMARK   10  A    between atoms: C_11  and  O_12
REMARK   11  A    between atoms: O_12  and  C_13
REMARK   12  A    between atoms: C_13  and  C_14
REMARK   13  A    between atoms: C_16  and  C_17
REMARK   14  A    between atoms: C_17  and  C_18
REMARK   15  A    between atoms: C_24  and  N_25
REMARK   16  A    between atoms: C_27  and  O_28
REMARK   17  A    between atoms: O_28  and  C_29
REMARK   18  A    between atoms: C_29  and  C_30
REMARK                            x       y       z     vdW  Elec       q    Type
REMARK                         _______ _______ _______ _____ _____    ______ ____
ROOT
ATOM      1  C   UNL     1       5.837   6.485  16.586  0.00  0.00    +0.000 A 
ATOM      2  C   UNL     1       4.616   6.611  17.280  0.00  0.00    +0.000 A 
ATOM      3  C   UNL     1       3.854   5.457  17.543  0.00  0.00    +0.000 A 
ATOM      4  C   UNL     1       4.234   4.195  17.084  0.00  0.00    +0.000 A 
ATOM      5  C   UNL     1       5.388   4.095  16.303  0.00  0.00    +0.000 A 
ATOM      6  C   UNL     1       6.185   5.226  16.036  0.00  0.00    +0.000 A 
ENDROOT
BRANCH   1   7
ATOM      7  O   UNL     1       6.743   7.504  16.438  0.00  0.00    +0.000 OA
BRANCH   7   8
ATOM      8  C   UNL     1       7.615   7.805  17.533  0.00  0.00    +0.000 C 
BRANCH   8   9
ATOM      9  C   UNL     1       7.925   9.269  17.776  0.00  0.00    +0.000 C 
BRANCH   9  10
ATOM     10  C   UNL     1       8.950   9.350  18.881  0.00  0.00    +0.000 C 
BRANCH  10  11
ATOM     11  C   UNL     1       9.390  10.778  19.099  0.00  0.00    +0.000 C 
BRANCH  11  12
ATOM     12  C   UNL     1      10.312  11.168  17.957  0.00  0.00    +0.000 C 
BRANCH  12  13
ATOM     13  C   UNL     1      11.096  12.404  18.329  0.00  0.00    +0.000 C 
BRANCH  13  15
ATOM     14  C   UNL     1      11.041  13.842  20.352  0.00  0.00    +0.000 C 
ATOM     15  C   UNL     1      11.335  12.451  19.825  0.00  0.00    +0.000 C 
ENDBRANCH  13  15
ENDBRANCH  12  13
ENDBRANCH  11  12
ENDBRANCH  10  11
ENDBRANCH   9  10
ENDBRANCH   8   9
ENDBRANCH   7   8
ENDBRANCH   1   7
BRANCH   2  16
ATOM     16  O   UNL     1       4.031   7.724  17.826  0.00  0.00    +0.000 OA
BRANCH  16  17
ATOM     17  C   UNL     1       2.678   7.681  18.270  0.00  0.00    +0.000 C 
ATOM     18  C   UNL     1       1.897   8.885  17.801  0.00  0.00    +0.000 C 
ENDBRANCH  16  17
ENDBRANCH   2  16
BRANCH   4  19
ATOM     19  C   UNL     1       3.413   2.966  17.414  0.00  0.00    +0.000 C 
BRANCH  19  20
ATOM     20  C   UNL     1       2.778   2.913  18.774  0.00  0.00    +0.000 A 
ATOM     21  C   UNL     1       1.422   3.091  18.984  0.00  0.00    +0.000 A 
ATOM     22  N   UNL     1       0.818   2.950  20.178  0.00  0.00    +0.000 NA
ATOM     23  C   UNL     1       1.604   2.640  21.206  0.00  0.00    +0.000 A 
ATOM     24  N   UNL     1       0.993   2.434  22.428  0.00  0.00    +0.000 N 
ATOM     25  N   UNL     1       2.921   2.439  21.124  0.00  0.00    +0.000 NA
ATOM     26  C   UNL     1       3.487   2.583  19.918  0.00  0.00    +0.000 A 
ATOM     27  H   UNL     1       0.020   2.207  22.277  0.00  0.00    +0.000 HD
ATOM     28  H   UNL     1       1.540   1.781  22.974  0.00  0.00    +0.000 HD
BRANCH  26  29
ATOM     29  N   UNL     1       4.868   2.372  19.890  0.00  0.00    +0.000 N 
ATOM     30  H   UNL     1       5.225   2.636  20.808  0.00  0.00    +0.000 HD
ATOM     31  H   UNL     1       5.114   1.417  19.660  0.00  0.00    +0.000 HD
ENDBRANCH  26  29
ENDBRANCH  19  20
ENDBRANCH   4  19
BRANCH   6  32
ATOM     32  O   UNL     1       7.271   4.880  15.271  0.00  0.00    +0.000 OA
BRANCH  32  33
ATOM     33  C   UNL     1       7.085   4.525  13.905  0.00  0.00    +0.000 C 
ATOM     34  C   UNL     1       7.992   5.408  13.055  0.00  0.00    +0.000 C 
ENDBRANCH  32  33
ENDBRANCH   6  32
TORSDOF 15
ENDMDL
MODEL 2
REMARK VINA RESULT:      -7.2      0.812      1.009
REMARK  Name = 
REMARK  18 active torsions:
REMARK  status: ('A' for Active; 'I' for Inactive)
REMARK    1  A    between atoms: C_1  and  C_2
REMARK    2  A    between atoms: C_2  and  C_3
REMARK    3  A    between atoms: C_3  and  C_4
REMARK    4  A    between atoms: C_4  and  C_5
REMARK    5  A    between atoms: C_5  and  C_6
REMARK    6  A    between atoms: C_6  and  C_7
REMARK    7  A    between atoms: C_7  and  C_8
REMARK    8  A    between atoms: C_8  and  O_9
REMARK    9  A    between atoms: O_9  and  C_10
REMARK   10  A    between atoms: C_11  and  O_12
REMARK   11  A    between atoms: O_12  and  C_13
REMARK   12  A    between atoms: C_13  and  C_14
REMARK   13  A    between atoms: C_16  and  C_17
REMARK   14  A    between atoms: C_17  and  C_18
REMARK   15  A    between atoms: C_24  and  N_25
REMARK   16  A    between atoms: C_27  and  O_28
REMARK   17  A    between atoms: O_28  and  C_29
REMARK   18  A    between atoms: C_29  and  C_30
REMARK                            x       y       z     vdW  Elec       q    Type
REMARK                         _______ _______ _______ _____ _____    ______ ____
ROOT
ATOM      1  C   UNL     1       5.892   6.229  16.624  0.00  0.00    +0.000 A 
ATOM      2  C   UNL     1       4.665   6.457  17.281  0.00  0.00    +0.000 A 
ATOM      3  C   UNL     1       3.812   5.367  17.536  0.00  0.00    +0.000 A 
ATOM      4  C   UNL     1       4.108   4.073  17.104  0.00  0.00    +0.000 A 
ATOM      5  C   UNL     1       5.273   3.876  16.358  0.00  0.00    +0.000 A 
ATOM      6  C   UNL     1       6.160   4.940  16.100  0.00  0.00    +0.000 A 
ENDROOT
BRANCH   1   7
ATOM      7  O   UNL     1       6.877   7.175  16.489  0.00  0.00    +0.000 OA
BRANCH   7   8
ATOM      8  C   UNL     1       6.975   8.202  17.482  0.00  0.00    +0.000 C 
BRANCH   8   9
ATOM      9  C   UNL     1       8.335   8.410  18.118  0.00  0.00    +0.000 C 
BRANCH   9  10
ATOM     10  C   UNL     1       8.614   9.893  18.146  0.00  0.00    +0.000 C 
BRANCH  10  11
ATOM     11  C   UNL     1       9.379  10.270  19.393  0.00  0.00    +0.000 C 
BRANCH  11  12
ATOM     12  C   UNL     1      10.024  11.625  19.160  0.00  0.00    +0.000 C 
BRANCH  12  13
ATOM     13  C   UNL     1      11.366  11.447  18.491  0.00  0.00    +0.000 C 
BRANCH  13  15
ATOM     14  C   UNL     1      11.318  13.229  16.764  0.00  0.00    +0.000 C 
ATOM     15  C   UNL     1      11.935  12.789  18.077  0.00  0.00    +0.000 C 
ENDBRANCH  13  15
ENDBRANCH  12  13
ENDBRANCH  11  12
ENDBRANCH  10  11
ENDBRANCH   9  10
ENDBRANCH   8   9
ENDBRANCH   7   8
ENDBRANCH   1   7
BRANCH   2  16
ATOM     16  O   UNL     1       4.151   7.618  17.795  0.00  0.00    +0.000 OA
BRANCH  16  17
ATOM     17  C   UNL     1       2.791   7.971  17.555  0.00  0.00    +0.000 C 
ATOM     18  C   UNL     1       2.067   8.308  18.836  0.00  0.00    +0.000 C 
ENDBRANCH  16  17
ENDBRANCH   2  16
BRANCH   4  19
ATOM     19  C   UNL     1       3.188   2.915  17.425  0.00  0.00    +0.000 C 
BRANCH  19  20
ATOM     20  C   UNL     1       2.610   2.864  18.811  0.00  0.00    +0.000 A 
ATOM     21  C   UNL     1       1.263   3.035  19.075  0.00  0.00    +0.000 A 
ATOM     22  N   UNL     1       0.709   2.896  20.293  0.00  0.00    +0.000 NA
ATOM     23  C   UNL     1       1.539   2.596  21.290  0.00  0.00    +0.000 A 
ATOM     24  N   UNL     1       0.980   2.392  22.538  0.00  0.00    +0.000 N 
ATOM     25  N   UNL     1       2.853   2.402  21.155  0.00  0.00    +0.000 NA
ATOM     26  C   UNL     1       3.368   2.544  19.925  0.00  0.00    +0.000 A 
ATOM     27  H   UNL     1       0.003   2.158  22.427  0.00  0.00    +0.000 HD
ATOM     28  H   UNL     1       1.554   1.746  23.063  0.00  0.00    +0.000 HD
BRANCH  26  29
ATOM     29  N   UNL     1       4.748   2.342  19.842  0.00  0.00    +0.000 N 
ATOM     30  H   UNL     1       4.930   1.402  20.192  0.00  0.00    +0.000 HD
ATOM     31  H   UNL     1       5.105   2.460  18.902  0.00  0.00    +0.000 HD
ENDBRANCH  26  29
ENDBRANCH  19  20
ENDBRANCH   4  19
BRANCH   6  32
ATOM     32  O   UNL     1       7.238   4.502  15.371  0.00  0.00    +0.000 OA
BRANCH  32  33
ATOM     33  C   UNL     1       7.316   4.801  13.982  0.00  0.00    +0.000 C 
ATOM     34  C   UNL     1       6.390   3.845  13.237  0.00  0.00    +0.000 C 
ENDBRANCH  32  33
ENDBRANCH   6  32
TORSDOF 15
ENDMDL
MODEL 3
REMARK VINA RESULT:      -7.0      3.457      7.510
REMARK  Name = 
REMARK  18 active torsions:
REMARK  status: ('A' for Active; 'I' for Inactive)
REMARK    1  A    between atoms: C_1  and  C_2
REMARK    2  A    between atoms: C_2  and  C_3
REMARK    3  A    between atoms: C_3  and  C_4
REMARK    4  A    between atoms: C_4  and  C_5
REMARK    5  A    between atoms: C_5  and  C_6
REMARK    6  A    between atoms: C_6  and  C_7
REMARK    7  A    between atoms: C_7  and  C_8
REMARK    8  A    between atoms: C_8  and  O_9
REMARK    9  A    between atoms: O_9  and  C_10
REMARK   10  A    between atoms: C_11  and  O_12
REMARK   11  A    between atoms: O_12  and  C_13
REMARK   12  A    between atoms: C_13  and  C_14
REMARK   13  A    between atoms: C_16  and  C_17
REMARK   14  A    between atoms: C_17  and  C_18
REMARK   15  A    between atoms: C_24  and  N_25
REMARK   16  A    between atoms: C_27  and  O_28
REMARK   17  A    between atoms: O_28  and  C_29
REMARK   18  A    between atoms: C_29  and  C_30
REMARK                            x       y       z     vdW  Elec       q    Type
REMARK                         _______ _______ _______ _____ _____    ______ ____
ROOT
ATOM      1  C   UNL     1       5.274   5.307  17.579  0.00  0.00    +0.000 A 
ATOM      2  C   UNL     1       3.981   4.992  18.046  0.00  0.00    +0.000 A 
ATOM      3  C   UNL     1       2.997   5.999  18.069  0.00  0.00    +0.000 A 
ATOM      4  C   UNL     1       3.274   7.318  17.705  0.00  0.00    +0.000 A 
ATOM      5  C   UNL     1       4.584   7.645  17.350  0.00  0.00    +0.000 A 
ATOM      6  C   UNL     1       5.590   6.659  17.297  0.00  0.00    +0.000 A 
ENDROOT
BRANCH   1   7
ATOM      7  O   UNL     1       6.250   4.374  17.339  0.00  0.00    +0.000 OA
BRANCH   7   8
ATOM      8  C   UNL     1       6.868   4.352  16.047  0.00  0.00    +0.000 C 
BRANCH   8   9
ATOM      9  C   UNL     1       6.031   3.825  14.899  0.00  0.00    +0.000 C 
BRANCH   9  10
ATOM     10  C   UNL     1       6.648   4.312  13.611  0.00  0.00    +0.000 C 
BRANCH  10  11
ATOM     11  C   UNL     1       6.190   3.469  12.445  0.00  0.00    +0.000 C 
BRANCH  11  12
ATOM     12  C   UNL     1       4.672   3.438  12.452  0.00  0.00    +0.000 C 
BRANCH  12  13
ATOM     13  C   UNL     1       4.161   2.995  11.102  0.00  0.00    +0.000 C 
BRANCH  13  15
ATOM     14  C   UNL     1       2.501   3.830   9.456  0.00  0.00    +0.000 C 
ATOM     15  C   UNL     1       3.721   4.191  10.281  0.00  0.00    +0.000 C 
ENDBRANCH  13  15
ENDBRANCH  12  13
ENDBRANCH  11  12
ENDBRANCH  10  11
ENDBRANCH   9  10
ENDBRANCH   8   9
ENDBRANCH   7   8
ENDBRANCH   1   7
BRANCH   2  16
ATOM     16  O   UNL     1       3.467   3.790  18.454  0.00  0.00    +0.000 OA
BRANCH  16  17
ATOM     17  C   UNL     1       2.764   2.958  17.536  0.00  0.00    +0.000 C 
ATOM     18  C   UNL     1       2.162   1.755  18.219  0.00  0.00    +0.000 C 
ENDBRANCH  16  17
ENDBRANCH   2  16
BRANCH   4  19
ATOM     19  C   UNL     1       2.186   8.371  17.707  0.00  0.00    +0.000 C 
BRANCH  19  20
ATOM     20  C   UNL     1       1.549   8.694  19.028  0.00  0.00    +0.000 A 
ATOM     21  C   UNL     1       1.814   7.989  20.188  0.00  0.00    +0.000 A 
ATOM     22  N   UNL     1       1.334   8.321  21.401  0.00  0.00    +0.000 NA
ATOM     23  C   UNL     1       0.538   9.387  21.450  0.00  0.00    +0.000 A 
ATOM     24  N   UNL     1       0.082   9.778  22.695  0.00  0.00    +0.000 N 
ATOM     25  N   UNL     1       0.216  10.147  20.401  0.00  0.00    +0.000 NA
ATOM     26  C   UNL     1       0.719   9.789  19.210  0.00  0.00    +0.000 A 
ATOM     27  H   UNL     1       0.700   9.408  23.404  0.00  0.00    +0.000 HD
ATOM     28  H   UNL     1      -0.080  10.775  22.698  0.00  0.00    +0.000 HD
BRANCH  26  29
ATOM     29  N   UNL     1       0.342  10.610  18.145  0.00  0.00    +0.000 N 
ATOM     30  H   UNL     1      -0.656  10.465  17.999  0.00  0.00    +0.000 HD
ATOM     31  H   UNL     1       0.552  11.587  18.310  0.00  0.00    +0.000 HD
ENDBRANCH  26  29
ENDBRANCH  19  20
ENDBRANCH   4  19
BRANCH   6  32
ATOM     32  O   UNL     1       6.785   7.211  16.905  0.00  0.00    +0.000 OA
BRANCH  32  33
ATOM     33  C   UNL     1       7.795   7.465  17.875  0.00  0.00    +0.000 C 
ATOM     34  C   UNL     1       8.071   8.965  17.894  0.00  0.00    +0.000 C 
ENDBRANCH  32  33
ENDBRANCH   6  32
TORSDOF 15
ENDMDL
MODEL 4
REMARK VINA RESULT:      -6.9      3.753      7.633
REMARK  Name = 
REMARK  18 active torsions:
REMARK  status: ('A' for Active; 'I' for Inactive)
REMARK    1  A    between atoms: C_1  and  C_2
REMARK    2  A    between atoms: C_2  and  C_3
REMARK    3  A    between atoms: C_3  and  C_4
REMARK    4  A    between atoms: C_4  and  C_5
REMARK    5  A    between atoms: C_5  and  C_6
REMARK    6  A    between atoms: C_6  and  C_7
REMARK    7  A    between atoms: C_7  and  C_8
REMARK    8  A    between atoms: C_8  and  O_9
REMARK    9  A    between atoms: O_9  and  C_10
REMARK   10  A    between atoms: C_11  and  O_12
REMARK   11  A    between atoms: O_12  and  C_13
REMARK   12  A    between atoms: C_13  and  C_14
REMARK   13  A    between atoms: C_16  and  C_17
REMARK   14  A    between atoms: C_17  and  C_18
REMARK   15  A    between atoms: C_24  and  N_25
REMARK   16  A    between atoms: C_27  and  O_28
REMARK   17  A    between atoms: O_28  and  C_29
REMARK   18  A    between atoms: C_29  and  C_30
REMARK                            x       y       z     vdW  Elec       q    Type
REMARK                         _______ _______ _______ _____ _____    ______ ____
ROOT
ATOM      1  C   UNL     1       4.231   5.296  17.487  0.00  0.00    +0.000 A 
ATOM      2  C   UNL     1       2.986   5.166  18.137  0.00  0.00    +0.000 A 
ATOM      3  C   UNL     1       2.209   6.318  18.365  0.00  0.00    +0.000 A 
ATOM      4  C   UNL     1       2.656   7.596  18.028  0.00  0.00    +0.000 A 
ATOM      5  C   UNL     1       3.937   7.727  17.486  0.00  0.00    +0.000 A 
ATOM      6  C   UNL     1       4.735   6.595  17.226  0.00  0.00    +0.000 A 
ENDROOT
BRANCH   1   7
ATOM      7  O   UNL     1       4.982   4.235  17.050  0.00  0.00    +0.000 OA
BRANCH   7   8
ATOM      8  C   UNL     1       5.140   4.048  15.639  0.00  0.00    +0.000 C 
BRANCH   8   9
ATOM      9  C   UNL     1       6.545   3.772  15.140  0.00  0.00    +0.000 C 
BRANCH   9  10
ATOM     10  C   UNL     1       6.557   3.982  13.646  0.00  0.00    +0.000 C 
BRANCH  10  11
ATOM     11  C   UNL     1       5.158   3.912  13.084  0.00  0.00    +0.000 C 
BRANCH  11  12
ATOM     12  C   UNL     1       5.219   3.183  11.753  0.00  0.00    +0.000 C 
BRANCH  12  13
ATOM     13  C   UNL     1       6.229   2.063  11.827  0.00  0.00    +0.000 C 
BRANCH  13  15
ATOM     14  C   UNL     1       6.219  -0.385  11.411  0.00  0.00    +0.000 C 
ATOM     15  C   UNL     1       5.890   0.975  10.827  0.00  0.00    +0.000 C 
ENDBRANCH  13  15
ENDBRANCH  12  13
ENDBRANCH  11  12
ENDBRANCH  10  11
ENDBRANCH   9  10
ENDBRANCH   8   9
ENDBRANCH   7   8
ENDBRANCH   1   7
BRANCH   2  16
ATOM     16  O   UNL     1       2.335   4.038  18.562  0.00  0.00    +0.000 OA
BRANCH  16  17
ATOM     17  C   UNL     1       2.669   3.443  19.812  0.00  0.00    +0.000 C 
ATOM     18  C   UNL     1       1.512   3.489  20.781  0.00  0.00    +0.000 C 
ENDBRANCH  16  17
ENDBRANCH   2  16
BRANCH   4  19
ATOM     19  C   UNL     1       1.783   8.812  18.253  0.00  0.00    +0.000 C 
BRANCH  19  20
ATOM     20  C   UNL     1       1.148   8.956  19.607  0.00  0.00    +0.000 A 
ATOM     21  C   UNL     1       1.665   8.375  20.751  0.00  0.00    +0.000 A 
ATOM     22  N   UNL     1       1.171   8.571  21.987  0.00  0.00    +0.000 NA
ATOM     23  C   UNL     1       0.105   9.362  22.080  0.00  0.00    +0.000 A 
ATOM     24  N   UNL     1      -0.380   9.622  23.348  0.00  0.00    +0.000 N 
ATOM     25  N   UNL     1      -0.476   9.981  21.050  0.00  0.00    +0.000 NA
ATOM     26  C   UNL     1       0.047   9.767  19.834  0.00  0.00    +0.000 A 
ATOM     27  H   UNL     1       0.354   9.457  24.022  0.00  0.00    +0.000 HD
ATOM     28  H   UNL     1      -0.824  10.530  23.360  0.00  0.00    +0.000 HD
BRANCH  26  29
ATOM     29  N   UNL     1      -0.605  10.429  18.791  0.00  0.00    +0.000 N 
ATOM     30  H   UNL     1      -0.936   9.711  18.148  0.00  0.00    +0.000 HD
ATOM     31  H   UNL     1      -1.366  11.014  19.114  0.00  0.00    +0.000 HD
ENDBRANCH  26  29
ENDBRANCH  19  20
ENDBRANCH   4  19
BRANCH   6  32
ATOM     32  O   UNL     1       5.937   6.968  16.677  0.00  0.00    +0.000 OA
BRANCH  32  33
ATOM     33  C   UNL     1       6.958   7.499  17.514  0.00  0.00    +0.000 C 
ATOM     34  C   UNL     1       7.639   6.337  18.229  0.00  0.00    +0.000 C 
ENDBRANCH  32  33
ENDBRANCH   6  32
TORSDOF 15
ENDMDL
MODEL 5
REMARK VINA RESULT:      -6.9      3.491      7.670
REMARK  Name = 
REMARK  18 active torsions:
REMARK  status: ('A' for Active; 'I' for Inactive)
REMARK    1  A    between atoms: C_1  and  C_2
REMARK    2  A    between atoms: C_2  and  C_3
REMARK    3  A    between atoms: C_3  and  C_4
REMARK    4  A    between atoms: C_4  and  C_5
REMARK    5  A    between atoms: C_5  and  C_6
REMARK    6  A    between atoms: C_6  and  C_7
REMARK    7  A    between atoms: C_7  and  C_8
REMARK    8  A    between atoms: C_8  and  O_9
REMARK    9  A    between atoms: O_9  and  C_10
REMARK   10  A    between atoms: C_11  and  O_12
REMARK   11  A    between atoms: O_12  and  C_13
REMARK   12  A    between atoms: C_13  and  C_14
REMARK   13  A    between atoms: C_16  and  C_17
REMARK   14  A    between atoms: C_17  and  C_18
REMARK   15  A    between atoms: C_24  and  N_25
REMARK   16  A    between atoms: C_27  and  O_28
REMARK   17  A    between atoms: O_28  and  C_29
REMARK   18  A    between atoms: C_29  and  C_30
REMARK                            x       y       z     vdW  Elec       q    Type
REMARK                         _______ _______ _______ _____ _____    ______ ____
ROOT
ATOM      1  C   UNL     1       4.120   4.873  17.775  0.00  0.00    +0.000 A 
ATOM      2  C   UNL     1       4.809   6.094  17.928  0.00  0.00    +0.000 A 
ATOM      3  C   UNL     1       4.072   7.281  18.095  0.00  0.00    +0.000 A 
ATOM      4  C   UNL     1       2.677   7.303  18.052  0.00  0.00    +0.000 A 
ATOM      5  C   UNL     1       2.005   6.107  17.790  0.00  0.00    +0.000 A 
ATOM      6  C   UNL     1       2.709   4.896  17.636  0.00  0.00    +0.000 A 
ENDROOT
BRANCH   1   7
ATOM      7  O   UNL     1       4.726   3.643  17.790  0.00  0.00    +0.000 OA
BRANCH   7   8
ATOM      8  C   UNL     1       5.506   3.255  16.653  0.00  0.00    +0.000 C 
BRANCH   8   9
ATOM      9  C   UNL     1       5.156   3.905  15.330  0.00  0.00    +0.000 C 
BRANCH   9  10
ATOM     10  C   UNL     1       6.445   4.259  14.629  0.00  0.00    +0.000 C 
BRANCH  10  11
ATOM     11  C   UNL     1       6.422   3.787  13.195  0.00  0.00    +0.000 C 
BRANCH  11  12
ATOM     12  C   UNL     1       4.987   3.840  12.702  0.00  0.00    +0.000 C 
BRANCH  12  13
ATOM     13  C   UNL     1       4.860   3.079  11.404  0.00  0.00    +0.000 C 
BRANCH  13  15
ATOM     14  C   UNL     1       3.176   4.009   9.835  0.00  0.00    +0.000 C 
ATOM     15  C   UNL     1       3.412   3.021  10.962  0.00  0.00    +0.000 C 
ENDBRANCH  13  15
ENDBRANCH  12  13
ENDBRANCH  11  12
ENDBRANCH  10  11
ENDBRANCH   9  10
ENDBRANCH   8   9
ENDBRANCH   7   8
ENDBRANCH   1   7
BRANCH   2  16
ATOM     16  O   UNL     1       6.156   6.334  18.001  0.00  0.00    +0.000 OA
BRANCH  16  17
ATOM     17  C   UNL     1       6.802   7.121  17.004  0.00  0.00    +0.000 C 
ATOM     18  C   UNL     1       7.822   8.057  17.605  0.00  0.00    +0.000 C 
ENDBRANCH  16  17
ENDBRANCH   2  16
BRANCH   4  19
ATOM     19  C   UNL     1       1.911   8.590  18.272  0.00  0.00    +0.000 C 
BRANCH  19  20
ATOM     20  C   UNL     1       1.243   8.768  19.605  0.00  0.00    +0.000 A 
ATOM     21  C   UNL     1       1.569   8.019  20.721  0.00  0.00    +0.000 A 
ATOM     22  N   UNL     1       1.057   8.228  21.948  0.00  0.00    +0.000 NA
ATOM     23  C   UNL     1       0.165   9.210  22.057  0.00  0.00    +0.000 A 
ATOM     24  N   UNL     1      -0.329   9.478  23.320  0.00  0.00    +0.000 N 
ATOM     25  N   UNL     1      -0.223  10.002  21.054  0.00  0.00    +0.000 NA
ATOM     26  C   UNL     1       0.314   9.768  19.848  0.00  0.00    +0.000 A 
ATOM     27  H   UNL     1       0.320   9.123  24.009  0.00  0.00    +0.000 HD
ATOM     28  H   UNL     1      -0.583  10.454  23.383  0.00  0.00    +0.000 HD
BRANCH  26  29
ATOM     29  N   UNL     1      -0.135  10.616  18.833  0.00  0.00    +0.000 N 
ATOM     30  H   UNL     1      -0.331  10.029  18.023  0.00  0.00    +0.000 HD
ATOM     31  H   UNL     1      -0.950  11.153  19.103  0.00  0.00    +0.000 HD
ENDBRANCH  26  29
ENDBRANCH  19  20
ENDBRANCH   4  19
BRANCH   6  32
ATOM     32  O   UNL     1       1.840   3.858  17.408  0.00  0.00    +0.000 OA
BRANCH  32  33
ATOM     33  C   UNL     1       0.990   3.410  18.458  0.00  0.00    +0.000 C 
ATOM     34  C   UNL     1       1.843   2.657  19.474  0.00  0.00    +0.000 C 
ENDBRANCH  32  33
ENDBRANCH   6  32
TORSDOF 15
ENDMDL
MODEL 6
REMARK VINA RESULT:      -6.8      4.173      7.622
REMARK  Name = 
REMARK  18 active torsions:
REMARK  status: ('A' for Active; 'I' for Inactive)
REMARK    1  A    between atoms: C_1  and  C_2
REMARK    2  A    between atoms: C_2  and  C_3
REMARK    3  A    between atoms: C_3  and  C_4
REMARK    4  A    between atoms: C_4  and  C_5
REMARK    5  A    between atoms: C_5  and  C_6
REMARK    6  A    between atoms: C_6  and  C_7
REMARK    7  A    between atoms: C_7  and  C_8
REMARK    8  A    between atoms: C_8  and  O_9
REMARK    9  A    between atoms: O_9  and  C_10
REMARK   10  A    between atoms: C_11  and  O_12
REMARK   11  A    between atoms: O_12  and  C_13
REMARK   12  A    between atoms: C_13  and  C_14
REMARK   13  A    between atoms: C_16  and  C_17
REMARK   14  A    between atoms: C_17  and  C_18
REMARK   15  A    between atoms: C_24  and  N_25
REMARK   16  A    between atoms: C_27  and  O_28
REMARK   17  A    between atoms: O_28  and  C_29
REMARK   18  A    between atoms: C_29  and  C_30
REMARK                            x       y       z     vdW  Elec       q    Type
REMARK                         _______ _______ _______ _____ _____    ______ ____
ROOT
ATOM      1  C   UNL     1       3.742   4.744  17.759  0.00  0.00    +0.000 A 
ATOM      2  C   UNL     1       2.337   4.872  17.755  0.00  0.00    +0.000 A 
ATOM      3  C   UNL     1       1.766   6.156  17.846  0.00  0.00    +0.000 A 
ATOM      4  C   UNL     1       2.541   7.306  18.004  0.00  0.00    +0.000 A 
ATOM      5  C   UNL     1       3.925   7.159  18.118  0.00  0.00    +0.000 A 
ATOM      6  C   UNL     1       4.533   5.892  18.013  0.00  0.00    +0.000 A 
ENDROOT
BRANCH   1   7
ATOM      7  O   UNL     1       4.406   3.574  17.492  0.00  0.00    +0.000 OA
BRANCH   7   8
ATOM      8  C   UNL     1       5.514   3.612  16.587  0.00  0.00    +0.000 C 
BRANCH   8   9
ATOM      9  C   UNL     1       5.237   4.125  15.187  0.00  0.00    +0.000 C 
BRANCH   9  10
ATOM     10  C   UNL     1       6.362   3.668  14.292  0.00  0.00    +0.000 C 
BRANCH  10  11
ATOM     11  C   UNL     1       6.167   4.179  12.884  0.00  0.00    +0.000 C 
BRANCH  11  12
ATOM     12  C   UNL     1       6.338   3.010  11.930  0.00  0.00    +0.000 C 
BRANCH  12  13
ATOM     13  C   UNL     1       4.986   2.530  11.458  0.00  0.00    +0.000 C 
BRANCH  13  15
ATOM     14  C   UNL     1       3.203   3.522  10.044  0.00  0.00    +0.000 C 
ATOM     15  C   UNL     1       4.033   3.698  11.301  0.00  0.00    +0.000 C 
ENDBRANCH  13  15
ENDBRANCH  12  13
ENDBRANCH  11  12
ENDBRANCH  10  11
ENDBRANCH   9  10
ENDBRANCH   8   9
ENDBRANCH   7   8
ENDBRANCH   1   7
BRANCH   2  16
ATOM     16  O   UNL     1       1.372   3.910  17.615  0.00  0.00    +0.000 OA
BRANCH  16  17
ATOM     17  C   UNL     1       1.370   2.764  18.461  0.00  0.00    +0.000 C 
ATOM     18  C   UNL     1       1.050   3.125  19.891  0.00  0.00    +0.000 C 
ENDBRANCH  16  17
ENDBRANCH   2  16
BRANCH   4  19
ATOM     19  C   UNL     1       1.899   8.675  18.063  0.00  0.00    +0.000 C 
BRANCH  19  20
ATOM     20  C   UNL     1       1.220   9.058  19.347  0.00  0.00    +0.000 A 
ATOM     21  C   UNL     1       1.511   8.464  20.563  0.00  0.00    +0.000 A 
ATOM     22  N   UNL     1       0.989   8.857  21.739  0.00  0.00    +0.000 NA
ATOM     23  C   UNL     1       0.125   9.868  21.695  0.00  0.00    +0.000 A 
ATOM     24  N   UNL     1      -0.376  10.324  22.899  0.00  0.00    +0.000 N 
ATOM     25  N   UNL     1      -0.227  10.522  20.585  0.00  0.00    +0.000 NA
ATOM     26  C   UNL     1       0.318  10.106  19.433  0.00  0.00    +0.000 A 
ATOM     27  H   UNL     1       0.253  10.052  23.643  0.00  0.00    +0.000 HD
ATOM     28  H   UNL     1      -0.603  11.306  22.822  0.00  0.00    +0.000 HD
BRANCH  26  29
ATOM     29  N   UNL     1      -0.093  10.815  18.301  0.00  0.00    +0.000 N 
ATOM     30  H   UNL     1       0.657  10.738  17.616  0.00  0.00    +0.000 HD
ATOM     31  H   UNL     1      -0.971  10.479  17.926  0.00  0.00    +0.000 HD
ENDBRANCH  26  29
ENDBRANCH  19  20
ENDBRANCH   4  19
BRANCH   6  32
ATOM     32  O   UNL     1       5.897   6.001  18.135  0.00  0.00    +0.000 OA
BRANCH  32  33
ATOM     33  C   UNL     1       6.530   5.590  19.341  0.00  0.00    +0.000 C 
ATOM     34  C   UNL     1       8.035   5.774  19.176  0.00  0.00    +0.000 C 
ENDBRANCH  32  33
ENDBRANCH   6  32
TORSDOF 15
ENDMDL
MODEL 7
REMARK VINA RESULT:      -6.8      3.679      7.861
REMARK  Name = 
REMARK  18 active torsions:
REMARK  status: ('A' for Active; 'I' for Inactive)
REMARK    1  A    between atoms: C_1  and  C_2
REMARK    2  A    between atoms: C_2  and  C_3
REMARK    3  A    between atoms: C_3  and  C_4
REMARK    4  A    between atoms: C_4  and  C_5
REMARK    5  A    between atoms: C_5  and  C_6
REMARK    6  A    between atoms: C_6  and  C_7
REMARK    7  A    between atoms: C_7  and  C_8
REMARK    8  A    between atoms: C_8  and  O_9
REMARK    9  A    between atoms: O_9  and  C_10
REMARK   10  A    between atoms: C_11  and  O_12
REMARK   11  A    between atoms: O_12  and  C_13
REMARK   12  A    between atoms: C_13  and  C_14
REMARK   13  A    between atoms: C_16  and  C_17
REMARK   14  A    between atoms: C_17  and  C_18
REMARK   15  A    between atoms: C_24  and  N_25
REMARK   16  A    between atoms: C_27  and  O_28
REMARK   17  A    between atoms: O_28  and  C_29
REMARK   18  A    between atoms: C_29  and  C_30
REMARK                            x       y       z     vdW  Elec       q    Type
REMARK                         _______ _______ _______ _____ _____    ______ ____
ROOT
ATOM      1  C   UNL     1       4.334   5.463  17.529  0.00  0.00    +0.000 A 
ATOM      2  C   UNL     1       4.791   6.757  17.203  0.00  0.00    +0.000 A 
ATOM      3  C   UNL     1       3.949   7.860  17.437  0.00  0.00    +0.000 A 
ATOM      4  C   UNL     1       2.649   7.714  17.923  0.00  0.00    +0.000 A 
ATOM      5  C   UNL     1       2.166   6.422  18.140  0.00  0.00    +0.000 A 
ATOM      6  C   UNL     1       2.987   5.295  17.934  0.00  0.00    +0.000 A 
ENDROOT
BRANCH   1   7
ATOM      7  O   UNL     1       5.128   4.344  17.518  0.00  0.00    +0.000 OA
BRANCH   7   8
ATOM      8  C   UNL     1       5.433   3.739  16.257  0.00  0.00    +0.000 C 
BRANCH   8   9
ATOM      9  C   UNL     1       6.397   4.486  15.356  0.00  0.00    +0.000 C 
BRANCH   9  10
ATOM     10  C   UNL     1       6.566   3.684  14.089  0.00  0.00    +0.000 C 
BRANCH  10  11
ATOM     11  C   UNL     1       5.357   3.834  13.196  0.00  0.00    +0.000 C 
BRANCH  11  12
ATOM     12  C   UNL     1       5.766   3.464  11.781  0.00  0.00    +0.000 C 
BRANCH  12  13
ATOM     13  C   UNL     1       5.314   2.059  11.467  0.00  0.00    +0.000 C 
BRANCH  13  15
ATOM     14  C   UNL     1       6.137  -0.279  11.328  0.00  0.00    +0.000 C 
ATOM     15  C   UNL     1       6.504   1.179  11.136  0.00  0.00    +0.000 C 
ENDBRANCH  13  15
ENDBRANCH  12  13
ENDBRANCH  11  12
ENDBRANCH  10  11
ENDBRANCH   9  10
ENDBRANCH   8   9
ENDBRANCH   7   8
ENDBRANCH   1   7
BRANCH   2  16
ATOM     16  O   UNL     1       6.008   7.158  16.718  0.00  0.00    +0.000 OA
BRANCH  16  17
ATOM     17  C   UNL     1       6.990   7.698  17.597  0.00  0.00    +0.000 C 
ATOM     18  C   UNL     1       7.726   6.615  18.347  0.00  0.00    +0.000 C 
ENDBRANCH  16  17
ENDBRANCH   2  16
BRANCH   4  19
ATOM     19  C   UNL     1       1.780   8.923  18.199  0.00  0.00    +0.000 C 
BRANCH  19  20
ATOM     20  C   UNL     1       1.152   9.017  19.561  0.00  0.00    +0.000 A 
ATOM     21  C   UNL     1       1.614   8.311  20.657  0.00  0.00    +0.000 A 
ATOM     22  N   UNL     1       1.133   8.455  21.905  0.00  0.00    +0.000 NA
ATOM     23  C   UNL     1       0.134   9.321  22.058  0.00  0.00    +0.000 A 
ATOM     24  N   UNL     1      -0.335   9.524  23.342  0.00  0.00    +0.000 N 
ATOM     25  N   UNL     1      -0.390  10.061  21.078  0.00  0.00    +0.000 NA
ATOM     26  C   UNL     1       0.120   9.895  19.849  0.00  0.00    +0.000 A 
ATOM     27  H   UNL     1       0.380   9.250  24.002  0.00  0.00    +0.000 HD
ATOM     28  H   UNL     1      -0.703  10.463  23.423  0.00  0.00    +0.000 HD
BRANCH  26  29
ATOM     29  N   UNL     1      -0.471  10.684  18.859  0.00  0.00    +0.000 N 
ATOM     30  H   UNL     1      -1.450  10.797  19.118  0.00  0.00    +0.000 HD
ATOM     31  H   UNL     1      -0.014  11.581  18.748  0.00  0.00    +0.000 HD
ENDBRANCH  26  29
ENDBRANCH  19  20
ENDBRANCH   4  19
BRANCH   6  32
ATOM     32  O   UNL     1       2.304   4.141  18.231  0.00  0.00    +0.000 OA
BRANCH  32  33
ATOM     33  C   UNL     1       2.395   3.587  19.539  0.00  0.00    +0.000 C 
ATOM     34  C   UNL     1       1.019   3.678  20.191  0.00  0.00    +0.000 C 
ENDBRANCH  32  33
ENDBRANCH   6  32
TORSDOF 15
ENDMDL
MODEL 8
REMARK VINA RESULT:      -6.7      5.480      8.876
REMARK  Name = 
REMARK  18 active torsions:
REMARK  status: ('A' for Active; 'I' for Inactive)
REMARK    1  A    between atoms: C_1  and  C_2
REMARK    2  A    between atoms: C_2  and  C_3
REMARK    3  A    between atoms: C_3  and  C_4
REMARK    4  A    between atoms: C_4  and  C_5
REMARK    5  A    between atoms: C_5  and  C_6
REMARK    6  A    between atoms: C_6  and  C_7
REMARK    7  A    between atoms: C_7  and  C_8
REMARK    8  A    between atoms: C_8  and  O_9
REMARK    9  A    between atoms: O_9  and  C_10
REMARK   10  A    between atoms: C_11  and  O_12
REMARK   11  A    between atoms: O_12  and  C_13
REMARK   12  A    between atoms: C_13  and  C_14
REMARK   13  A    between atoms: C_16  and  C_17
REMARK   14  A    between atoms: C_17  and  C_18
REMARK   15  A    between atoms: C_24  and  N_25
REMARK   16  A    between atoms: C_27  and  O_28
REMARK   17  A    between atoms: O_28  and  C_29
REMARK   18  A    between atoms: C_29  and  C_30
REMARK                            x       y       z     vdW  Elec       q    Type
REMARK                         _______ _______ _______ _____ _____    ______ ____
ROOT
ATOM      1  C   UNL     1       2.154   7.559  19.622  0.00  0.00    +0.000 A 
ATOM      2  C   UNL     1       1.438   8.408  20.491  0.00  0.00    +0.000 A 
ATOM      3  C   UNL     1       0.800   9.548  19.964  0.00  0.00    +0.000 A 
ATOM      4  C   UNL     1       0.905   9.903  18.619  0.00  0.00    +0.000 A 
ATOM      5  C   UNL     1       1.708   9.118  17.788  0.00  0.00    +0.000 A 
ATOM      6  C   UNL     1       2.346   7.960  18.276  0.00  0.00    +0.000 A 
ENDROOT
BRANCH   1   7
ATOM      7  O   UNL     1       2.655   6.335  19.987  0.00  0.00    +0.000 OA
BRANCH   7   8
ATOM      8  C   UNL     1       1.742   5.342  20.466  0.00  0.00    +0.000 C 
BRANCH   8   9
ATOM      9  C   UNL     1       2.317   4.260  21.359  0.00  0.00    +0.000 C 
BRANCH   9  10
ATOM     10  C   UNL     1       1.871   2.924  20.819  0.00  0.00    +0.000 C 
BRANCH  10  11
ATOM     11  C   UNL     1       0.605   3.070  20.009  0.00  0.00    +0.000 C 
BRANCH  11  12
ATOM     12  C   UNL     1       0.795   2.328  18.698  0.00  0.00    +0.000 C 
BRANCH  12  13
ATOM     13  C   UNL     1       2.267   2.202  18.387  0.00  0.00    +0.000 C 
BRANCH  13  15
ATOM     14  C   UNL     1       4.171   3.392  17.328  0.00  0.00    +0.000 C 
ATOM     15  C   UNL     1       2.669   3.191  17.310  0.00  0.00    +0.000 C 
ENDBRANCH  13  15
ENDBRANCH  12  13
ENDBRANCH  11  12
ENDBRANCH  10  11
ENDBRANCH   9  10
ENDBRANCH   8   9
ENDBRANCH   7   8
ENDBRANCH   1   7
BRANCH   2  16
ATOM     16  O   UNL     1       1.192   8.280  21.833  0.00  0.00    +0.000 OA
BRANCH  16  17
ATOM     17  C   UNL     1       1.011   9.437  22.644  0.00  0.00    +0.000 C 
ATOM     18  C   UNL     1      -0.349   9.453  23.300  0.00  0.00    +0.000 C 
ENDBRANCH  16  17
ENDBRANCH   2  16
BRANCH   4  19
ATOM     19  C   UNL     1       0.179  11.115  18.074  0.00  0.00    +0.000 C 
BRANCH  19  20
ATOM     20  C   UNL     1      -1.318  11.029  17.980  0.00  0.00    +0.000 A 
ATOM     21  C   UNL     1      -1.979   9.973  17.379  0.00  0.00    +0.000 A 
ATOM     22  N   UNL     1      -3.317   9.825  17.370  0.00  0.00    +0.000 NA
ATOM     23  C   UNL     1      -4.021  10.783  17.967  0.00  0.00    +0.000 A 
ATOM     24  N   UNL     1      -5.393  10.619  18.019  0.00  0.00    +0.000 N 
ATOM     25  N   UNL     1      -3.496  11.844  18.584  0.00  0.00    +0.000 NA
ATOM     26  C   UNL     1      -2.159  11.954  18.577  0.00  0.00    +0.000 A 
ATOM     27  H   UNL     1      -5.612   9.639  17.908  0.00  0.00    +0.000 HD
ATOM     28  H   UNL     1      -5.758  11.085  18.839  0.00  0.00    +0.000 HD
BRANCH  26  29
ATOM     29  N   UNL     1      -1.662  13.087  19.226  0.00  0.00    +0.000 N 
ATOM     30  H   UNL     1      -1.420  12.801  20.174  0.00  0.00    +0.000 HD
ATOM     31  H   UNL     1      -0.867  13.494  18.750  0.00  0.00    +0.000 HD
ENDBRANCH  26  29
ENDBRANCH  19  20
ENDBRANCH   4  19
BRANCH   6  32
ATOM     32  O   UNL     1       3.057   7.345  17.277  0.00  0.00    +0.000 OA
BRANCH  32  33
ATOM     33  C   UNL     1       4.447   7.093  17.455  0.00  0.00    +0.000 C 
ATOM     34  C   UNL     1       5.015   6.593  16.131  0.00  0.00    +0.000 C 
ENDBRANCH  32  33
ENDBRANCH   6  32
TORSDOF 15
ENDMDL
MODEL 9
REMARK VINA RESULT:      -6.6      3.879      8.041
REMARK  Name = 
REMARK  18 active torsions:
REMARK  status: ('A' for Active; 'I' for Inactive)
REMARK    1  A    between atoms: C_1  and  C_2
REMARK    2  A    between atoms: C_2  and  C_3
REMARK    3  A    between atoms: C_3  and  C_4
REMARK    4  A    between atoms: C_4  and  C_5
REMARK    5  A    between atoms: C_5  and  C_6
REMARK    6  A    between atoms: C_6  and  C_7
REMARK    7  A    between atoms: C_7  and  C_8
REMARK    8  A    between atoms: C_8  and  O_9
REMARK    9  A    between atoms: O_9  and  C_10
REMARK   10  A    between atoms: C_11  and  O_12
REMARK   11  A    between atoms: O_12  and  C_13
REMARK   12  A    between atoms: C_13  and  C_14
REMARK   13  A    between atoms: C_16  and  C_17
REMARK   14  A    between atoms: C_17  and  C_18
REMARK   15  A    between atoms: C_24  and  N_25
REMARK   16  A    between atoms: C_27  and  O_28
REMARK   17  A    between atoms: O_28  and  C_29
REMARK   18  A    between atoms: C_29  and  C_30
REMARK                            x       y       z     vdW  Elec       q    Type
REMARK                         _______ _______ _______ _____ _____    ______ ____
ROOT
ATOM      1  C   UNL     1       3.966   5.939  18.404  0.00  0.00    +0.000 A 
ATOM      2  C   UNL     1       4.340   7.029  17.590  0.00  0.00    +0.000 A 
ATOM      3  C   UNL     1       3.438   8.096  17.416  0.00  0.00    +0.000 A 
ATOM      4  C   UNL     1       2.157   8.085  17.970  0.00  0.00    +0.000 A 
ATOM      5  C   UNL     1       1.755   6.953  18.683  0.00  0.00    +0.000 A 
ATOM      6  C   UNL     1       2.637   5.874  18.893  0.00  0.00    +0.000 A 
ENDROOT
BRANCH   1   7
ATOM      7  O   UNL     1       4.823   4.942  18.791  0.00  0.00    +0.000 OA
BRANCH   7   8
ATOM      8  C   UNL     1       4.793   3.701  18.076  0.00  0.00    +0.000 C 
BRANCH   8   9
ATOM      9  C   UNL     1       4.457   3.772  16.599  0.00  0.00    +0.000 C 
BRANCH   9  10
ATOM     10  C   UNL     1       5.752   3.732  15.825  0.00  0.00    +0.000 C 
BRANCH  10  11
ATOM     11  C   UNL     1       5.668   4.605  14.596  0.00  0.00    +0.000 C 
BRANCH  11  12
ATOM     12  C   UNL     1       6.917   4.372  13.765  0.00  0.00    +0.000 C 
BRANCH  12  13
ATOM     13  C   UNL     1       6.540   4.161  12.318  0.00  0.00    +0.000 C 
BRANCH  13  15
ATOM     14  C   UNL     1       4.410   3.242  11.435  0.00  0.00    +0.000 C 
ATOM     15  C   UNL     1       5.695   2.911  12.167  0.00  0.00    +0.000 C 
ENDBRANCH  13  15
ENDBRANCH  12  13
ENDBRANCH  11  12
ENDBRANCH  10  11
ENDBRANCH   9  10
ENDBRANCH   8   9
ENDBRANCH   7   8
ENDBRANCH   1   7
BRANCH   2  16
ATOM     16  O   UNL     1       5.523   7.271  16.943  0.00  0.00    +0.000 OA
BRANCH  16  17
ATOM     17  C   UNL     1       6.762   6.936  17.561  0.00  0.00    +0.000 C 
ATOM     18  C   UNL     1       7.715   8.107  17.574  0.00  0.00    +0.000 C 
ENDBRANCH  16  17
ENDBRANCH   2  16
BRANCH   4  19
ATOM     19  C   UNL     1       1.223   9.263  17.796  0.00  0.00    +0.000 C 
BRANCH  19  20
ATOM     20  C   UNL     1       1.444  10.450  18.691  0.00  0.00    +0.000 A 
ATOM     21  C   UNL     1       2.167  11.564  18.305  0.00  0.00    +0.000 A 
ATOM     22  N   UNL     1       2.295  12.677  19.050  0.00  0.00    +0.000 NA
ATOM     23  C   UNL     1       1.694  12.665  20.237  0.00  0.00    +0.000 A 
ATOM     24  N   UNL     1       1.765  13.821  20.992  0.00  0.00    +0.000 N 
ATOM     25  N   UNL     1       0.966  11.653  20.713  0.00  0.00    +0.000 NA
ATOM     26  C   UNL     1       0.856  10.563  19.940  0.00  0.00    +0.000 A 
ATOM     27  H   UNL     1       1.960  14.603  20.381  0.00  0.00    +0.000 HD
ATOM     28  H   UNL     1       0.948  13.889  21.584  0.00  0.00    +0.000 HD
BRANCH  26  29
ATOM     29  N   UNL     1       0.094   9.529  20.490  0.00  0.00    +0.000 N 
ATOM     30  H   UNL     1       0.726   8.967  21.058  0.00  0.00    +0.000 HD
ATOM     31  H   UNL     1      -0.688   9.868  21.037  0.00  0.00    +0.000 HD
ENDBRANCH  26  29
ENDBRANCH  19  20
ENDBRANCH   4  19
BRANCH   6  32
ATOM     32  O   UNL     1       2.029   4.892  19.634  0.00  0.00    +0.000 OA
BRANCH  32  33
ATOM     33  C   UNL     1       2.125   4.920  21.054  0.00  0.00    +0.000 C 
ATOM     34  C   UNL     1       2.026   3.487  21.567  0.00  0.00    +0.000 C 
ENDBRANCH  32  33
ENDBRANCH   6  32
TORSDOF 15
ENDMDL
