MODEL 1
REMARK VINA RESULT:      -6.8      0.000      0.000
REMARK  Name = 
REMARK  6 active torsions:
REMARK  status: ('A' for Active; 'I' for Inactive)
REMARK    1  A    between atoms: C_1  and  O_2
REMARK    2  A    between atoms: O_2  and  C_3
REMARK    3  A    between atoms: C_3  and  C_5
REMARK    4  A    between atoms: C_9  and  C_10
REMARK    5  A    between atoms: C_10  and  C_11
REMARK    6  A    between atoms: C_11  and  O_12
REMARK                            x       y       z     vdW  Elec       q    Type
REMARK                         _______ _______ _______ _____ _____    ______ ____
ROOT
ATOM      1  C   UNL     1       5.927   4.824  17.783  0.00  0.00    +0.000 A 
ATOM      2  C   UNL     1       5.672   5.111  19.129  0.00  0.00    +0.000 A 
ATOM      3  C   UNL     1       4.403   4.898  19.686  0.00  0.00    +0.000 A 
ATOM      4  C   UNL     1       3.366   4.382  18.881  0.00  0.00    +0.000 A 
ATOM      5  C   UNL     1       1.994   4.035  19.119  0.00  0.00    +0.000 A 
ATOM      6  C   UNL     1       1.490   3.579  17.916  0.00  0.00    +0.000 A 
ATOM      7  N   UNL     1       2.480   3.642  16.976  0.00  0.00    +0.000 N 
ATOM      8  C   UNL     1       3.641   4.117  17.539  0.00  0.00    +0.000 A 
ATOM      9  C   UNL     1       4.902   4.330  16.961  0.00  0.00    +0.000 A 
ATOM     10  H   UNL     1       2.382   3.378  16.004  0.00  0.00    +0.000 HD
ENDROOT
BRANCH   1  11
ATOM     11  C   UNL     1       7.278   5.016  17.177  0.00  0.00    +0.000 C 
ATOM     12  O   UNL     1       8.190   4.214  17.277  0.00  0.00    +0.000 OA
BRANCH  11  14
ATOM     13  C   UNL     1       7.507   7.345  17.368  0.00  0.00    +0.000 C 
ATOM     14  O   UNL     1       7.330   6.207  16.526  0.00  0.00    +0.000 OA
ENDBRANCH  11  14
ENDBRANCH   1  11
BRANCH   5  15
ATOM     15  C   UNL     1       1.234   4.157  20.406  0.00  0.00    +0.000 C 
BRANCH  15  16
ATOM     16  C   UNL     1       1.354   2.933  21.314  0.00  0.00    +0.000 C 
BRANCH  16  17
ATOM     17  O   UNL     1       2.364   3.100  22.304  0.00  0.00    +0.000 OA
ATOM     18  H   UNL     1       2.991   2.363  22.185  0.00  0.00    +0.000 HD
ENDBRANCH  16  17
ENDBRANCH  15  16
ENDBRANCH   5  15
TORSDOF 5
ENDMDL
MODEL 2
REMARK VINA RESULT:      -6.7      0.837      1.072
REMARK  Name = 
REMARK  6 active torsions:
REMARK  status: ('A' for Active; 'I' for Inactive)
REMARK    1  A    between atoms: C_1  and  O_2
REMARK    2  A    between atoms: O_2  and  C_3
REMARK    3  A    between atoms: C_3  and  C_5
REMARK    4  A    between atoms: C_9  and  C_10
REMARK    5  A    between atoms: C_10  and  C_11
REMARK    6  A    between atoms: C_11  and  O_12
REMARK                            x       y       z     vdW  Elec       q    Type
REMARK                         _______ _______ _______ _____ _____    ______ ____
ROOT
ATOM      1  C   UNL     1       5.730   4.576  17.463  0.00  0.00    +0.000 A 
ATOM      2  C   UNL     1       5.590   4.985  18.794  0.00  0.00    +0.000 A 
ATOM      3  C   UNL     1       4.383   4.801  19.484  0.00  0.00    +0.000 A 
ATOM      4  C   UNL     1       3.292   4.193  18.830  0.00  0.00    +0.000 A 
ATOM      5  C   UNL     1       1.957   3.844  19.224  0.00  0.00    +0.000 A 
ATOM      6  C   UNL     1       1.358   3.268  18.121  0.00  0.00    +0.000 A 
ATOM      7  N   UNL     1       2.258   3.260  17.091  0.00  0.00    +0.000 N 
ATOM      8  C   UNL     1       3.451   3.807  17.498  0.00  0.00    +0.000 A 
ATOM      9  C   UNL     1       4.649   3.988  16.788  0.00  0.00    +0.000 A 
ATOM     10  H   UNL     1       2.079   2.904  16.161  0.00  0.00    +0.000 HD
ENDROOT
BRANCH   1  11
ATOM     11  C   UNL     1       7.015   4.735  16.720  0.00  0.00    +0.000 C 
ATOM     12  O   UNL     1       8.069   4.231  17.065  0.00  0.00    +0.000 OA
BRANCH  11  14
ATOM     13  C   UNL     1       7.106   4.903  14.379  0.00  0.00    +0.000 C 
ATOM     14  O   UNL     1       6.827   5.526  15.632  0.00  0.00    +0.000 OA
ENDBRANCH  11  14
ENDBRANCH   1  11
BRANCH   5  15
ATOM     15  C   UNL     1       1.313   4.074  20.560  0.00  0.00    +0.000 C 
BRANCH  15  16
ATOM     16  C   UNL     1       1.351   2.855  21.482  0.00  0.00    +0.000 C 
BRANCH  16  17
ATOM     17  O   UNL     1       2.568   2.780  22.218  0.00  0.00    +0.000 OA
ATOM     18  H   UNL     1       2.340   2.964  23.148  0.00  0.00    +0.000 HD
ENDBRANCH  16  17
ENDBRANCH  15  16
ENDBRANCH   5  15
TORSDOF 5
ENDMDL
MODEL 3
REMARK VINA RESULT:      -6.7      1.590      1.657
REMARK  Name = 
REMARK  6 active torsions:
REMARK  status: ('A' for Active; 'I' for Inactive)
REMARK    1  A    between atoms: C_1  and  O_2
REMARK    2  A    between atoms: O_2  and  C_3
REMARK    3  A    between atoms: C_3  and  C_5
REMARK    4  A    between atoms: C_9  and  C_10
REMARK    5  A    between atoms: C_10  and  C_11
REMARK    6  A    between atoms: C_11  and  O_12
REMARK                            x       y       z     vdW  Elec       q    Type
REMARK                         _______ _______ _______ _____ _____    ______ ____
ROOT
ATOM      1  C   UNL     1       4.592   5.512  16.926  0.00  0.00    +0.000 A 
ATOM      2  C   UNL     1       3.861   6.220  17.887  0.00  0.00    +0.000 A 
ATOM      3  C   UNL     1       2.943   5.568  18.723  0.00  0.00    +0.000 A 
ATOM      4  C   UNL     1       2.754   4.176  18.598  0.00  0.00    +0.000 A 
ATOM      5  C   UNL     1       1.935   3.213  19.278  0.00  0.00    +0.000 A 
ATOM      6  C   UNL     1       2.193   1.991  18.688  0.00  0.00    +0.000 A 
ATOM      7  N   UNL     1       3.113   2.172  17.693  0.00  0.00    +0.000 N 
ATOM      8  C   UNL     1       3.483   3.495  17.623  0.00  0.00    +0.000 A 
ATOM      9  C   UNL     1       4.401   4.130  16.772  0.00  0.00    +0.000 A 
ATOM     10  H   UNL     1       3.475   1.444  17.091  0.00  0.00    +0.000 HD
ENDROOT
BRANCH   1  11
ATOM     11  C   UNL     1       5.595   6.182  16.046  0.00  0.00    +0.000 C 
ATOM     12  O   UNL     1       5.854   5.823  14.911  0.00  0.00    +0.000 OA
BRANCH  11  14
ATOM     13  C   UNL     1       7.394   6.909  17.368  0.00  0.00    +0.000 C 
ATOM     14  O   UNL     1       6.170   7.221  16.705  0.00  0.00    +0.000 OA
ENDBRANCH  11  14
ENDBRANCH   1  11
BRANCH   5  15
ATOM     15  C   UNL     1       0.966   3.468  20.394  0.00  0.00    +0.000 C 
BRANCH  15  16
ATOM     16  C   UNL     1       1.285   2.700  21.677  0.00  0.00    +0.000 C 
BRANCH  16  17
ATOM     17  O   UNL     1       2.665   2.781  22.018  0.00  0.00    +0.000 OA
ATOM     18  H   UNL     1       3.153   2.329  21.306  0.00  0.00    +0.000 HD
ENDBRANCH  16  17
ENDBRANCH  15  16
ENDBRANCH   5  15
TORSDOF 5
ENDMDL
MODEL 4
REMARK VINA RESULT:      -6.7      1.931      2.522
REMARK  Name = 
REMARK  6 active torsions:
REMARK  status: ('A' for Active; 'I' for Inactive)
REMARK    1  A    between atoms: C_1  and  O_2
REMARK    2  A    between atoms: O_2  and  C_3
REMARK    3  A    between atoms: C_3  and  C_5
REMARK    4  A    between atoms: C_9  and  C_10
REMARK    5  A    between atoms: C_10  and  C_11
REMARK    6  A    between atoms: C_11  and  O_12
REMARK                            x       y       z     vdW  Elec       q    Type
REMARK                         _______ _______ _______ _____ _____    ______ ____
ROOT
ATOM      1  C   UNL     1       4.615   5.286  16.911  0.00  0.00    +0.000 A 
ATOM      2  C   UNL     1       4.108   3.981  16.927  0.00  0.00    +0.000 A 
ATOM      3  C   UNL     1       3.179   3.578  17.897  0.00  0.00    +0.000 A 
ATOM      4  C   UNL     1       2.743   4.501  18.870  0.00  0.00    +0.000 A 
ATOM      5  C   UNL     1       1.817   4.437  19.965  0.00  0.00    +0.000 A 
ATOM      6  C   UNL     1       1.825   5.684  20.560  0.00  0.00    +0.000 A 
ATOM      7  N   UNL     1       2.706   6.483  19.886  0.00  0.00    +0.000 N 
ATOM      8  C   UNL     1       3.272   5.791  18.842  0.00  0.00    +0.000 A 
ATOM      9  C   UNL     1       4.209   6.212  17.884  0.00  0.00    +0.000 A 
ATOM     10  H   UNL     1       2.916   7.445  20.117  0.00  0.00    +0.000 HD
ENDROOT
BRANCH   1  11
ATOM     11  C   UNL     1       5.582   5.744  15.871  0.00  0.00    +0.000 C 
ATOM     12  O   UNL     1       6.384   6.647  16.035  0.00  0.00    +0.000 OA
BRANCH  11  14
ATOM     13  C   UNL     1       6.614   4.450  14.205  0.00  0.00    +0.000 C 
ATOM     14  O   UNL     1       5.418   5.020  14.733  0.00  0.00    +0.000 OA
ENDBRANCH  11  14
ENDBRANCH   1  11
BRANCH   5  15
ATOM     15  C   UNL     1       1.009   3.252  20.407  0.00  0.00    +0.000 C 
BRANCH  15  16
ATOM     16  C   UNL     1       1.376   2.738  21.799  0.00  0.00    +0.000 C 
BRANCH  16  17
ATOM     17  O   UNL     1       2.777   2.523  21.936  0.00  0.00    +0.000 OA
ATOM     18  H   UNL     1       3.209   3.372  21.730  0.00  0.00    +0.000 HD
ENDBRANCH  16  17
ENDBRANCH  15  16
ENDBRANCH   5  15
TORSDOF 5
ENDMDL
MODEL 5
REMARK VINA RESULT:      -6.6      1.841      2.272
REMARK  Name = 
REMARK  6 active torsions:
REMARK  status: ('A' for Active; 'I' for Inactive)
REMARK    1  A    between atoms: C_1  and  O_2
REMARK    2  A    between atoms: O_2  and  C_3
REMARK    3  A    between atoms: C_3  and  C_5
REMARK    4  A    between atoms: C_9  and  C_10
REMARK    5  A    between atoms: C_10  and  C_11
REMARK    6  A    between atoms: C_11  and  O_12
REMARK                            x       y       z     vdW  Elec       q    Type
REMARK                         _______ _______ _______ _____ _____    ______ ____
ROOT
ATOM      1  C   UNL     1       4.596   5.590  17.040  0.00  0.00    +0.000 A 
ATOM      2  C   UNL     1       4.182   4.255  16.980  0.00  0.00    +0.000 A 
ATOM      3  C   UNL     1       3.260   3.742  17.904  0.00  0.00    +0.000 A 
ATOM      4  C   UNL     1       2.738   4.583  18.908  0.00  0.00    +0.000 A 
ATOM      5  C   UNL     1       1.794   4.401  19.974  0.00  0.00    +0.000 A 
ATOM      6  C   UNL     1       1.700   5.614  20.628  0.00  0.00    +0.000 A 
ATOM      7  N   UNL     1       2.540   6.505  20.017  0.00  0.00    +0.000 N 
ATOM      8  C   UNL     1       3.177   5.906  18.956  0.00  0.00    +0.000 A 
ATOM      9  C   UNL     1       4.104   6.437  18.045  0.00  0.00    +0.000 A 
ATOM     10  H   UNL     1       2.677   7.466  20.298  0.00  0.00    +0.000 HD
ENDROOT
BRANCH   1  11
ATOM     11  C   UNL     1       5.553   6.164  16.049  0.00  0.00    +0.000 C 
ATOM     12  O   UNL     1       5.678   5.759  14.906  0.00  0.00    +0.000 OA
BRANCH  11  14
ATOM     13  C   UNL     1       7.373   6.767  17.405  0.00  0.00    +0.000 C 
ATOM     14  O   UNL     1       6.257   7.178  16.617  0.00  0.00    +0.000 OA
ENDBRANCH  11  14
ENDBRANCH   1  11
BRANCH   5  15
ATOM     15  C   UNL     1       1.060   3.143  20.336  0.00  0.00    +0.000 C 
BRANCH  15  16
ATOM     16  C   UNL     1       1.364   2.636  21.746  0.00  0.00    +0.000 C 
BRANCH  16  17
ATOM     17  O   UNL     1       2.763   2.516  21.980  0.00  0.00    +0.000 OA
ATOM     18  H   UNL     1       2.894   2.630  22.939  0.00  0.00    +0.000 HD
ENDBRANCH  16  17
ENDBRANCH  15  16
ENDBRANCH   5  15
TORSDOF 5
ENDMDL
MODEL 6
REMARK VINA RESULT:      -6.6      1.899      2.253
REMARK  Name = 
REMARK  6 active torsions:
REMARK  status: ('A' for Active; 'I' for Inactive)
REMARK    1  A    between atoms: C_1  and  O_2
REMARK    2  A    between atoms: O_2  and  C_3
REMARK    3  A    between atoms: C_3  and  C_5
REMARK    4  A    between atoms: C_9  and  C_10
REMARK    5  A    between atoms: C_10  and  C_11
REMARK    6  A    between atoms: C_11  and  O_12
REMARK                            x       y       z     vdW  Elec       q    Type
REMARK                         _______ _______ _______ _____ _____    ______ ____
ROOT
ATOM      1  C   UNL     1       5.647   5.480  17.225  0.00  0.00    +0.000 A 
ATOM      2  C   UNL     1       4.315   5.907  17.185  0.00  0.00    +0.000 A 
ATOM      3  C   UNL     1       3.333   5.287  17.971  0.00  0.00    +0.000 A 
ATOM      4  C   UNL     1       3.690   4.218  18.818  0.00  0.00    +0.000 A 
ATOM      5  C   UNL     1       2.970   3.390  19.743  0.00  0.00    +0.000 A 
ATOM      6  C   UNL     1       3.886   2.502  20.273  0.00  0.00    +0.000 A 
ATOM      7  N   UNL     1       5.108   2.750  19.712  0.00  0.00    +0.000 N 
ATOM      8  C   UNL     1       5.022   3.800  18.829  0.00  0.00    +0.000 A 
ATOM      9  C   UNL     1       6.018   4.403  18.045  0.00  0.00    +0.000 A 
ATOM     10  H   UNL     1       5.958   2.240  19.913  0.00  0.00    +0.000 HD
ENDROOT
BRANCH   1  11
ATOM     11  C   UNL     1       6.713   6.144  16.419  0.00  0.00    +0.000 C 
ATOM     12  O   UNL     1       7.391   5.574  15.582  0.00  0.00    +0.000 OA
BRANCH  11  14
ATOM     13  C   UNL     1       7.786   7.729  17.779  0.00  0.00    +0.000 C 
ATOM     14  O   UNL     1       6.815   7.452  16.772  0.00  0.00    +0.000 OA
ENDBRANCH  11  14
ENDBRANCH   1  11
BRANCH   5  15
ATOM     15  C   UNL     1       1.506   3.447  20.065  0.00  0.00    +0.000 C 
BRANCH  15  16
ATOM     16  C   UNL     1       0.617   2.766  19.025  0.00  0.00    +0.000 C 
BRANCH  16  17
ATOM     17  O   UNL     1       1.199   1.564  18.531  0.00  0.00    +0.000 OA
ATOM     18  H   UNL     1       0.485   0.901  18.505  0.00  0.00    +0.000 HD
ENDBRANCH  16  17
ENDBRANCH  15  16
ENDBRANCH   5  15
TORSDOF 5
ENDMDL
MODEL 7
REMARK VINA RESULT:      -6.6      2.225      6.005
REMARK  Name = 
REMARK  6 active torsions:
REMARK  status: ('A' for Active; 'I' for Inactive)
REMARK    1  A    between atoms: C_1  and  O_2
REMARK    2  A    between atoms: O_2  and  C_3
REMARK    3  A    between atoms: C_3  and  C_5
REMARK    4  A    between atoms: C_9  and  C_10
REMARK    5  A    between atoms: C_10  and  C_11
REMARK    6  A    between atoms: C_11  and  O_12
REMARK                            x       y       z     vdW  Elec       q    Type
REMARK                         _______ _______ _______ _____ _____    ______ ____
ROOT
ATOM      1  C   UNL     1       2.199   3.518  18.313  0.00  0.00    +0.000 A 
ATOM      2  C   UNL     1       3.184   2.664  17.803  0.00  0.00    +0.000 A 
ATOM      3  C   UNL     1       4.345   3.175  17.206  0.00  0.00    +0.000 A 
ATOM      4  C   UNL     1       4.528   4.570  17.118  0.00  0.00    +0.000 A 
ATOM      5  C   UNL     1       5.570   5.411  16.602  0.00  0.00    +0.000 A 
ATOM      6  C   UNL     1       5.160   6.715  16.805  0.00  0.00    +0.000 A 
ATOM      7  N   UNL     1       3.932   6.697  17.406  0.00  0.00    +0.000 N 
ATOM      8  C   UNL     1       3.526   5.401  17.620  0.00  0.00    +0.000 A 
ATOM      9  C   UNL     1       2.353   4.910  18.215  0.00  0.00    +0.000 A 
ATOM     10  H   UNL     1       3.393   7.515  17.659  0.00  0.00    +0.000 HD
ENDROOT
BRANCH   1  11
ATOM     11  C   UNL     1       0.970   2.997  18.979  0.00  0.00    +0.000 C 
ATOM     12  O   UNL     1       0.221   2.174  18.481  0.00  0.00    +0.000 OA
BRANCH  11  14
ATOM     13  C   UNL     1       1.381   2.864  21.287  0.00  0.00    +0.000 C 
ATOM     14  O   UNL     1       0.815   3.584  20.194  0.00  0.00    +0.000 OA
ENDBRANCH  11  14
ENDBRANCH   1  11
BRANCH   5  15
ATOM     15  C   UNL     1       6.849   4.979  15.947  0.00  0.00    +0.000 C 
BRANCH  15  16
ATOM     16  C   UNL     1       6.728   4.763  14.438  0.00  0.00    +0.000 C 
BRANCH  16  17
ATOM     17  O   UNL     1       6.315   3.438  14.121  0.00  0.00    +0.000 OA
ATOM     18  H   UNL     1       7.054   2.852  14.367  0.00  0.00    +0.000 HD
ENDBRANCH  16  17
ENDBRANCH  15  16
ENDBRANCH   5  15
TORSDOF 5
ENDMDL
MODEL 8
REMARK VINA RESULT:      -6.5      1.711      2.128
REMARK  Name = 
REMARK  6 active torsions:
REMARK  status: ('A' for Active; 'I' for Inactive)
REMARK    1  A    between atoms: C_1  and  O_2
REMARK    2  A    between atoms: O_2  and  C_3
REMARK    3  A    between atoms: C_3  and  C_5
REMARK    4  A    between atoms: C_9  and  C_10
REMARK    5  A    between atoms: C_10  and  C_11
REMARK    6  A    between atoms: C_11  and  O_12
REMARK                            x       y       z     vdW  Elec       q    Type
REMARK                         _______ _______ _______ _____ _____    ______ ____
ROOT
ATOM      1  C   UNL     1       4.535   5.467  16.726  0.00  0.00    +0.000 A 
ATOM      2  C   UNL     1       3.610   6.162  17.514  0.00  0.00    +0.000 A 
ATOM      3  C   UNL     1       2.759   5.483  18.397  0.00  0.00    +0.000 A 
ATOM      4  C   UNL     1       2.835   4.079  18.498  0.00  0.00    +0.000 A 
ATOM      5  C   UNL     1       2.150   3.094  19.286  0.00  0.00    +0.000 A 
ATOM      6  C   UNL     1       2.675   1.868  18.925  0.00  0.00    +0.000 A 
ATOM      7  N   UNL     1       3.627   2.066  17.964  0.00  0.00    +0.000 N 
ATOM      8  C   UNL     1       3.755   3.407  17.692  0.00  0.00    +0.000 A 
ATOM      9  C   UNL     1       4.611   4.068  16.796  0.00  0.00    +0.000 A 
ATOM     10  H   UNL     1       4.164   1.337  17.514  0.00  0.00    +0.000 HD
ENDROOT
BRANCH   1  11
ATOM     11  C   UNL     1       5.471   6.172  15.801  0.00  0.00    +0.000 C 
ATOM     12  O   UNL     1       5.148   7.102  15.082  0.00  0.00    +0.000 OA
BRANCH  11  14
ATOM     13  C   UNL     1       7.146   4.964  14.683  0.00  0.00    +0.000 C 
ATOM     14  O   UNL     1       6.706   5.613  15.875  0.00  0.00    +0.000 OA
ENDBRANCH  11  14
ENDBRANCH   1  11
BRANCH   5  15
ATOM     15  C   UNL     1       1.061   3.329  20.290  0.00  0.00    +0.000 C 
BRANCH  15  16
ATOM     16  C   UNL     1       1.327   2.686  21.652  0.00  0.00    +0.000 C 
BRANCH  16  17
ATOM     17  O   UNL     1       2.555   3.129  22.220  0.00  0.00    +0.000 OA
ATOM     18  H   UNL     1       2.974   2.345  22.620  0.00  0.00    +0.000 HD
ENDBRANCH  16  17
ENDBRANCH  15  16
ENDBRANCH   5  15
TORSDOF 5
ENDMDL
MODEL 9
REMARK VINA RESULT:      -6.4      2.058      2.515
REMARK  Name = 
REMARK  6 active torsions:
REMARK  status: ('A' for Active; 'I' for Inactive)
REMARK    1  A    between atoms: C_1  and  O_2
REMARK    2  A    between atoms: O_2  and  C_3
REMARK    3  A    between atoms: C_3  and  C_5
REMARK    4  A    between atoms: C_9  and  C_10
REMARK    5  A    between atoms: C_10  and  C_11
REMARK    6  A    between atoms: C_11  and  O_12
REMARK                            x       y       z     vdW  Elec       q    Type
REMARK                         _______ _______ _______ _____ _____    ______ ____
ROOT
ATOM      1  C   UNL     1       5.431   5.479  17.251  0.00  0.00    +0.000 A 
ATOM      2  C   UNL     1       4.084   5.858  17.283  0.00  0.00    +0.000 A 
ATOM      3  C   UNL     1       3.168   5.202  18.118  0.00  0.00    +0.000 A 
ATOM      4  C   UNL     1       3.607   4.145  18.940  0.00  0.00    +0.000 A 
ATOM      5  C   UNL     1       2.966   3.290  19.899  0.00  0.00    +0.000 A 
ATOM      6  C   UNL     1       3.940   2.435  20.378  0.00  0.00    +0.000 A 
ATOM      7  N   UNL     1       5.122   2.728  19.754  0.00  0.00    +0.000 N 
ATOM      8  C   UNL     1       4.951   3.775  18.880  0.00  0.00    +0.000 A 
ATOM      9  C   UNL     1       5.883   4.415  18.047  0.00  0.00    +0.000 A 
ATOM     10  H   UNL     1       5.999   2.248  19.908  0.00  0.00    +0.000 HD
ENDROOT
BRANCH   1  11
ATOM     11  C   UNL     1       6.429   6.183  16.393  0.00  0.00    +0.000 C 
ATOM     12  O   UNL     1       7.332   6.876  16.826  0.00  0.00    +0.000 OA
BRANCH  11  14
ATOM     13  C   UNL     1       6.857   4.832  14.521  0.00  0.00    +0.000 C 
ATOM     14  O   UNL     1       6.164   5.945  15.082  0.00  0.00    +0.000 OA
ENDBRANCH  11  14
ENDBRANCH   1  11
BRANCH   5  15
ATOM     15  C   UNL     1       1.520   3.294  20.298  0.00  0.00    +0.000 C 
BRANCH  15  16
ATOM     16  C   UNL     1       0.580   2.759  19.218  0.00  0.00    +0.000 C 
BRANCH  16  17
ATOM     17  O   UNL     1       1.128   1.630  18.545  0.00  0.00    +0.000 OA
ATOM     18  H   UNL     1       1.735   1.200  19.176  0.00  0.00    +0.000 HD
ENDBRANCH  16  17
ENDBRANCH  15  16
ENDBRANCH   5  15
TORSDOF 5
ENDMDL
