MODEL 1
REMARK VINA RESULT:      -7.1      0.000      0.000
REMARK  Name = 
REMARK  7 active torsions:
REMARK  status: ('A' for Active; 'I' for Inactive)
REMARK    1  A    between atoms: C_1  and  C_2
REMARK    2  A    between atoms: C_5  and  C_6
REMARK    3  A    between atoms: C_6  and  C_7
REMARK    4  A    between atoms: C_7  and  N_8
REMARK    5  A    between atoms: N_11  and  C_12
REMARK    6  A    between atoms: C_12  and  C_13
REMARK    7  A    between atoms: N_17  and  C_18
REMARK                            x       y       z     vdW  Elec       q    Type
REMARK                         _______ _______ _______ _____ _____    ______ ____
ROOT
ATOM      1  N   UNL     1       4.956   6.136  18.382  0.00  0.00    +0.000 NA
ATOM      2  C   UNL     1       6.412   5.882  18.474  0.00  0.00    +0.000 C 
ATOM      3  C   UNL     1       6.926   4.589  17.772  0.00  0.00    +0.000 C 
ATOM      4  N   UNL     1       6.427   4.310  16.402  0.00  0.00    +0.000 NA
ATOM      5  C   UNL     1       4.976   4.609  16.353  0.00  0.00    +0.000 C 
ATOM      6  C   UNL     1       4.577   5.984  16.959  0.00  0.00    +0.000 C 
ENDROOT
BRANCH   1   7
ATOM      7  C   UNL     1       4.122   5.237  19.200  0.00  0.00    +0.000 C 
BRANCH   7   8
ATOM      8  C   UNL     1       2.619   5.486  19.269  0.00  0.00    +0.000 C 
ATOM      9  C   UNL     1       1.722   4.354  19.750  0.00  0.00    +0.000 C 
ATOM     10  C   UNL     1       1.787   4.646  18.287  0.00  0.00    +0.000 C 
BRANCH   8  15
ATOM     11  C   UNL     1       0.604  10.990  19.587  0.00  0.00    +0.000 C 
ATOM     12  C   UNL     1       1.152   9.597  19.504  0.00  0.00    +0.000 A 
ATOM     13  C   UNL     1       1.615   9.076  18.297  0.00  0.00    +0.000 A 
ATOM     14  C   UNL     1       2.109   7.770  18.239  0.00  0.00    +0.000 A 
ATOM     15  C   UNL     1       2.150   6.938  19.375  0.00  0.00    +0.000 A 
ATOM     16  C   UNL     1       1.681   7.479  20.579  0.00  0.00    +0.000 A 
ATOM     17  C   UNL     1       1.186   8.786  20.648  0.00  0.00    +0.000 A 
ENDBRANCH   8  15
ENDBRANCH   7   8
ENDBRANCH   1   7
BRANCH   4  18
ATOM     18  C   UNL     1       7.109   5.064  15.340  0.00  0.00    +0.000 C 
BRANCH  18  19
ATOM     19  C   UNL     1       6.903   4.558  13.954  0.00  0.00    +0.000 A 
ATOM     20  C   UNL     1       6.058   3.552  13.525  0.00  0.00    +0.000 A 
ATOM     21  N   UNL     1       6.187   3.324  12.185  0.00  0.00    +0.000 NA
ATOM     22  C   UNL     1       7.109   4.169  11.785  0.00  0.00    +0.000 A 
ATOM     23  N   UNL     1       7.587   4.931  12.819  0.00  0.00    +0.000 N 
ATOM     24  C   UNL     1       8.638   5.904  12.688  0.00  0.00    +0.000 C 
ENDBRANCH  18  19
ENDBRANCH   4  18
TORSDOF 5
ENDMDL
MODEL 2
REMARK VINA RESULT:      -7.0      0.786      1.622
REMARK  Name = 
REMARK  7 active torsions:
REMARK  status: ('A' for Active; 'I' for Inactive)
REMARK    1  A    between atoms: C_1  and  C_2
REMARK    2  A    between atoms: C_5  and  C_6
REMARK    3  A    between atoms: C_6  and  C_7
REMARK    4  A    between atoms: C_7  and  N_8
REMARK    5  A    between atoms: N_11  and  C_12
REMARK    6  A    between atoms: C_12  and  C_13
REMARK    7  A    between atoms: N_17  and  C_18
REMARK                            x       y       z     vdW  Elec       q    Type
REMARK                         _______ _______ _______ _____ _____    ______ ____
ROOT
ATOM      1  N   UNL     1       4.665   4.614  18.519  0.00  0.00    +0.000 NA
ATOM      2  C   UNL     1       4.305   4.687  17.085  0.00  0.00    +0.000 C 
ATOM      3  C   UNL     1       5.128   5.691  16.223  0.00  0.00    +0.000 C 
ATOM      4  N   UNL     1       6.602   5.695  16.398  0.00  0.00    +0.000 NA
ATOM      5  C   UNL     1       6.911   5.589  17.844  0.00  0.00    +0.000 C 
ATOM      6  C   UNL     1       6.137   4.467  18.591  0.00  0.00    +0.000 C 
ENDROOT
BRANCH   1   7
ATOM      7  C   UNL     1       4.260   5.787  19.315  0.00  0.00    +0.000 C 
BRANCH   7   8
ATOM      8  C   UNL     1       2.792   5.947  19.699  0.00  0.00    +0.000 C 
ATOM      9  C   UNL     1       2.217   5.015  20.756  0.00  0.00    +0.000 C 
ATOM     10  C   UNL     1       1.899   4.754  19.320  0.00  0.00    +0.000 C 
BRANCH   8  15
ATOM     11  C   UNL     1       0.480  11.264  18.780  0.00  0.00    +0.000 C 
ATOM     12  C   UNL     1       1.037   9.891  19.014  0.00  0.00    +0.000 A 
ATOM     13  C   UNL     1       0.948   9.281  20.265  0.00  0.00    +0.000 A 
ATOM     14  C   UNL     1       1.487   8.007  20.465  0.00  0.00    +0.000 A 
ATOM     15  C   UNL     1       2.139   7.304  19.433  0.00  0.00    +0.000 A 
ATOM     16  C   UNL     1       2.219   7.933  18.184  0.00  0.00    +0.000 A 
ATOM     17  C   UNL     1       1.681   9.208  17.973  0.00  0.00    +0.000 A 
ENDBRANCH   8  15
ENDBRANCH   7   8
ENDBRANCH   1   7
BRANCH   4  18
ATOM     18  C   UNL     1       7.304   4.622  15.678  0.00  0.00    +0.000 C 
BRANCH  18  19
ATOM     19  C   UNL     1       6.845   4.371  14.283  0.00  0.00    +0.000 A 
ATOM     20  C   UNL     1       5.845   3.522  13.849  0.00  0.00    +0.000 A 
ATOM     21  N   UNL     1       5.750   3.509  12.487  0.00  0.00    +0.000 NA
ATOM     22  C   UNL     1       6.687   4.332  12.076  0.00  0.00    +0.000 A 
ATOM     23  N   UNL     1       7.390   4.871  13.122  0.00  0.00    +0.000 N 
ATOM     24  C   UNL     1       8.507   5.765  12.972  0.00  0.00    +0.000 C 
ENDBRANCH  18  19
ENDBRANCH   4  18
TORSDOF 5
ENDMDL
MODEL 3
REMARK VINA RESULT:      -6.9      0.295      1.023
REMARK  Name = 
REMARK  7 active torsions:
REMARK  status: ('A' for Active; 'I' for Inactive)
REMARK    1  A    between atoms: C_1  and  C_2
REMARK    2  A    between atoms: C_5  and  C_6
REMARK    3  A    between atoms: C_6  and  C_7
REMARK    4  A    between atoms: C_7  and  N_8
REMARK    5  A    between atoms: N_11  and  C_12
REMARK    6  A    between atoms: C_12  and  C_13
REMARK    7  A    between atoms: N_17  and  C_18
REMARK                            x       y       z     vdW  Elec       q    Type
REMARK                         _______ _______ _______ _____ _____    ______ ____
ROOT
ATOM      1  N   UNL     1       4.877   5.919  18.557  0.00  0.00    +0.000 NA
ATOM      2  C   UNL     1       6.342   5.710  18.590  0.00  0.00    +0.000 C 
ATOM      3  C   UNL     1       6.874   4.473  17.807  0.00  0.00    +0.000 C 
ATOM      4  N   UNL     1       6.340   4.246  16.442  0.00  0.00    +0.000 NA
ATOM      5  C   UNL     1       4.879   4.497  16.453  0.00  0.00    +0.000 C 
ATOM      6  C   UNL     1       4.456   5.826  17.140  0.00  0.00    +0.000 C 
ENDROOT
BRANCH   1   7
ATOM      7  C   UNL     1       4.100   4.953  19.354  0.00  0.00    +0.000 C 
BRANCH   7   8
ATOM      8  C   UNL     1       2.607   5.193  19.554  0.00  0.00    +0.000 C 
ATOM      9  C   UNL     1       1.790   4.119  20.258  0.00  0.00    +0.000 C 
ATOM     10  C   UNL     1       1.695   4.235  18.772  0.00  0.00    +0.000 C 
BRANCH   8  15
ATOM     11  C   UNL     1       0.952  10.826  19.594  0.00  0.00    +0.000 C 
ATOM     12  C   UNL     1       1.340   9.377  19.585  0.00  0.00    +0.000 A 
ATOM     13  C   UNL     1       1.271   8.605  20.743  0.00  0.00    +0.000 A 
ATOM     14  C   UNL     1       1.651   7.260  20.715  0.00  0.00    +0.000 A 
ATOM     15  C   UNL     1       2.120   6.644  19.539  0.00  0.00    +0.000 A 
ATOM     16  C   UNL     1       2.182   7.434  18.385  0.00  0.00    +0.000 A 
ATOM     17  C   UNL     1       1.802   8.782  18.402  0.00  0.00    +0.000 A 
ENDBRANCH   8  15
ENDBRANCH   7   8
ENDBRANCH   1   7
BRANCH   4  18
ATOM     18  C   UNL     1       6.962   5.074  15.398  0.00  0.00    +0.000 C 
BRANCH  18  19
ATOM     19  C   UNL     1       6.810   4.578  14.002  0.00  0.00    +0.000 A 
ATOM     20  C   UNL     1       5.960   3.596  13.529  0.00  0.00    +0.000 A 
ATOM     21  N   UNL     1       6.147   3.368  12.195  0.00  0.00    +0.000 NA
ATOM     22  C   UNL     1       7.109   4.189  11.844  0.00  0.00    +0.000 A 
ATOM     23  N   UNL     1       7.557   4.935  12.903  0.00  0.00    +0.000 N 
ATOM     24  C   UNL     1       8.638   5.881  12.826  0.00  0.00    +0.000 C 
ENDBRANCH  18  19
ENDBRANCH   4  18
TORSDOF 5
ENDMDL
MODEL 4
REMARK VINA RESULT:      -6.9      0.802      1.297
REMARK  Name = 
REMARK  7 active torsions:
REMARK  status: ('A' for Active; 'I' for Inactive)
REMARK    1  A    between atoms: C_1  and  C_2
REMARK    2  A    between atoms: C_5  and  C_6
REMARK    3  A    between atoms: C_6  and  C_7
REMARK    4  A    between atoms: C_7  and  N_8
REMARK    5  A    between atoms: N_11  and  C_12
REMARK    6  A    between atoms: C_12  and  C_13
REMARK    7  A    between atoms: N_17  and  C_18
REMARK                            x       y       z     vdW  Elec       q    Type
REMARK                         _______ _______ _______ _____ _____    ______ ____
ROOT
ATOM      1  N   UNL     1       4.723   4.907  18.386  0.00  0.00    +0.000 NA
ATOM      2  C   UNL     1       4.367   4.847  16.950  0.00  0.00    +0.000 C 
ATOM      3  C   UNL     1       5.144   5.818  16.012  0.00  0.00    +0.000 C 
ATOM      4  N   UNL     1       6.615   5.908  16.187  0.00  0.00    +0.000 NA
ATOM      5  C   UNL     1       6.922   5.934  17.637  0.00  0.00    +0.000 C 
ATOM      6  C   UNL     1       6.201   4.838  18.471  0.00  0.00    +0.000 C 
ENDROOT
BRANCH   1   7
ATOM      7  C   UNL     1       4.258   6.118  19.085  0.00  0.00    +0.000 C 
BRANCH   7   8
ATOM      8  C   UNL     1       2.823   6.167  19.600  0.00  0.00    +0.000 C 
ATOM      9  C   UNL     1       2.375   5.103  20.592  0.00  0.00    +0.000 C 
ATOM     10  C   UNL     1       1.948   4.981  19.167  0.00  0.00    +0.000 C 
BRANCH   8  15
ATOM     11  C   UNL     1      -0.146  11.219  19.246  0.00  0.00    +0.000 C 
ATOM     12  C   UNL     1       0.643   9.947  19.337  0.00  0.00    +0.000 A 
ATOM     13  C   UNL     1       1.332   9.446  18.233  0.00  0.00    +0.000 A 
ATOM     14  C   UNL     1       2.050   8.252  18.337  0.00  0.00    +0.000 A 
ATOM     15  C   UNL     1       2.098   7.513  19.536  0.00  0.00    +0.000 A 
ATOM     16  C   UNL     1       1.400   8.032  20.633  0.00  0.00    +0.000 A 
ATOM     17  C   UNL     1       0.679   9.228  20.540  0.00  0.00    +0.000 A 
ENDBRANCH   8  15
ENDBRANCH   7   8
ENDBRANCH   1   7
BRANCH   4  18
ATOM     18  C   UNL     1       7.372   4.817  15.555  0.00  0.00    +0.000 C 
BRANCH  18  19
ATOM     19  C   UNL     1       6.982   4.484  14.157  0.00  0.00    +0.000 A 
ATOM     20  C   UNL     1       6.035   3.575  13.724  0.00  0.00    +0.000 A 
ATOM     21  N   UNL     1       5.999   3.497  12.361  0.00  0.00    +0.000 NA
ATOM     22  C   UNL     1       6.919   4.338  11.949  0.00  0.00    +0.000 A 
ATOM     23  N   UNL     1       7.555   4.952  12.996  0.00  0.00    +0.000 N 
ATOM     24  C   UNL     1       8.642   5.884  12.848  0.00  0.00    +0.000 C 
ENDBRANCH  18  19
ENDBRANCH   4  18
TORSDOF 5
ENDMDL
MODEL 5
REMARK VINA RESULT:      -6.9      1.712      3.749
REMARK  Name = 
REMARK  7 active torsions:
REMARK  status: ('A' for Active; 'I' for Inactive)
REMARK    1  A    between atoms: C_1  and  C_2
REMARK    2  A    between atoms: C_5  and  C_6
REMARK    3  A    between atoms: C_6  and  C_7
REMARK    4  A    between atoms: C_7  and  N_8
REMARK    5  A    between atoms: N_11  and  C_12
REMARK    6  A    between atoms: C_12  and  C_13
REMARK    7  A    between atoms: N_17  and  C_18
REMARK                            x       y       z     vdW  Elec       q    Type
REMARK                         _______ _______ _______ _____ _____    ______ ____
ROOT
ATOM      1  N   UNL     1       2.332   6.769  18.274  0.00  0.00    +0.000 NA
ATOM      2  C   UNL     1       3.673   6.843  17.651  0.00  0.00    +0.000 C 
ATOM      3  C   UNL     1       4.862   6.345  18.525  0.00  0.00    +0.000 C 
ATOM      4  N   UNL     1       4.688   5.062  19.251  0.00  0.00    +0.000 NA
ATOM      5  C   UNL     1       3.323   5.023  19.830  0.00  0.00    +0.000 C 
ATOM      6  C   UNL     1       2.189   5.407  18.838  0.00  0.00    +0.000 C 
ENDROOT
BRANCH   1   7
ATOM      7  C   UNL     1       2.095   7.758  19.341  0.00  0.00    +0.000 C 
BRANCH   7   8
ATOM      8  C   UNL     1       1.338   9.039  19.004  0.00  0.00    +0.000 C 
ATOM      9  C   UNL     1       0.911   9.266  17.561  0.00  0.00    +0.000 C 
ATOM     10  C   UNL     1       2.097  10.007  18.083  0.00  0.00    +0.000 C 
BRANCH   8  15
ATOM     11  C   UNL     1      -1.706  11.600  23.321  0.00  0.00    +0.000 C 
ATOM     12  C   UNL     1      -0.907  10.974  22.217  0.00  0.00    +0.000 A 
ATOM     13  C   UNL     1      -1.009  11.431  20.904  0.00  0.00    +0.000 A 
ATOM     14  C   UNL     1      -0.265  10.823  19.889  0.00  0.00    +0.000 A 
ATOM     15  C   UNL     1       0.597   9.738  20.145  0.00  0.00    +0.000 A 
ATOM     16  C   UNL     1       0.687   9.294  21.470  0.00  0.00    +0.000 A 
ATOM     17  C   UNL     1      -0.053   9.896  22.494  0.00  0.00    +0.000 A 
ENDBRANCH   8  15
ENDBRANCH   7   8
ENDBRANCH   1   7
BRANCH   4  18
ATOM     18  C   UNL     1       4.895   3.862  18.427  0.00  0.00    +0.000 C 
BRANCH  18  19
ATOM     19  C   UNL     1       5.522   4.092  17.095  0.00  0.00    +0.000 A 
ATOM     20  C   UNL     1       4.950   3.962  15.844  0.00  0.00    +0.000 A 
ATOM     21  N   UNL     1       5.855   4.197  14.849  0.00  0.00    +0.000 NA
ATOM     22  C   UNL     1       6.981   4.459  15.472  0.00  0.00    +0.000 A 
ATOM     23  N   UNL     1       6.838   4.394  16.834  0.00  0.00    +0.000 N 
ATOM     24  C   UNL     1       7.915   4.584  17.770  0.00  0.00    +0.000 C 
ENDBRANCH  18  19
ENDBRANCH   4  18
TORSDOF 5
ENDMDL
MODEL 6
REMARK VINA RESULT:      -6.8      1.036      2.098
REMARK  Name = 
REMARK  7 active torsions:
REMARK  status: ('A' for Active; 'I' for Inactive)
REMARK    1  A    between atoms: C_1  and  C_2
REMARK    2  A    between atoms: C_5  and  C_6
REMARK    3  A    between atoms: C_6  and  C_7
REMARK    4  A    between atoms: C_7  and  N_8
REMARK    5  A    between atoms: N_11  and  C_12
REMARK    6  A    between atoms: C_12  and  C_13
REMARK    7  A    between atoms: N_17  and  C_18
REMARK                            x       y       z     vdW  Elec       q    Type
REMARK                         _______ _______ _______ _____ _____    ______ ____
ROOT
ATOM      1  N   UNL     1       4.029   4.080  18.481  0.00  0.00    +0.000 NA
ATOM      2  C   UNL     1       3.592   4.487  17.126  0.00  0.00    +0.000 C 
ATOM      3  C   UNL     1       4.562   5.427  16.348  0.00  0.00    +0.000 C 
ATOM      4  N   UNL     1       6.004   5.077  16.354  0.00  0.00    +0.000 NA
ATOM      5  C   UNL     1       6.385   4.647  17.721  0.00  0.00    +0.000 C 
ATOM      6  C   UNL     1       5.427   3.605  18.362  0.00  0.00    +0.000 C 
ENDROOT
BRANCH   1   7
ATOM      7  C   UNL     1       3.969   5.149  19.493  0.00  0.00    +0.000 C 
BRANCH   7   8
ATOM      8  C   UNL     1       2.612   5.555  20.058  0.00  0.00    +0.000 C 
ATOM      9  C   UNL     1       2.101   4.833  21.297  0.00  0.00    +0.000 C 
ATOM     10  C   UNL     1       1.530   4.467  19.967  0.00  0.00    +0.000 C 
BRANCH   8  15
ATOM     11  C   UNL     1       0.834  11.018  18.853  0.00  0.00    +0.000 C 
ATOM     12  C   UNL     1       1.254   9.611  19.160  0.00  0.00    +0.000 A 
ATOM     13  C   UNL     1       1.049   9.057  20.422  0.00  0.00    +0.000 A 
ATOM     14  C   UNL     1       1.461   7.748  20.690  0.00  0.00    +0.000 A 
ATOM     15  C   UNL     1       2.097   6.954  19.716  0.00  0.00    +0.000 A 
ATOM     16  C   UNL     1       2.294   7.528  18.454  0.00  0.00    +0.000 A 
ATOM     17  C   UNL     1       1.884   8.837  18.175  0.00  0.00    +0.000 A 
ENDBRANCH   8  15
ENDBRANCH   7   8
ENDBRANCH   1   7
BRANCH   4  18
ATOM     18  C   UNL     1       6.381   4.026  15.397  0.00  0.00    +0.000 C 
BRANCH  18  19
ATOM     19  C   UNL     1       6.968   4.500  14.113  0.00  0.00    +0.000 A 
ATOM     20  C   UNL     1       7.898   5.503  13.914  0.00  0.00    +0.000 A 
ATOM     21  N   UNL     1       8.152   5.698  12.586  0.00  0.00    +0.000 NA
ATOM     22  C   UNL     1       7.381   4.836  11.965  0.00  0.00    +0.000 A 
ATOM     23  N   UNL     1       6.632   4.095  12.842  0.00  0.00    +0.000 N 
ATOM     24  C   UNL     1       5.661   3.110  12.445  0.00  0.00    +0.000 C 
ENDBRANCH  18  19
ENDBRANCH   4  18
TORSDOF 5
ENDMDL
MODEL 7
REMARK VINA RESULT:      -6.8      1.233      1.912
REMARK  Name = 
REMARK  7 active torsions:
REMARK  status: ('A' for Active; 'I' for Inactive)
REMARK    1  A    between atoms: C_1  and  C_2
REMARK    2  A    between atoms: C_5  and  C_6
REMARK    3  A    between atoms: C_6  and  C_7
REMARK    4  A    between atoms: C_7  and  N_8
REMARK    5  A    between atoms: N_11  and  C_12
REMARK    6  A    between atoms: C_12  and  C_13
REMARK    7  A    between atoms: N_17  and  C_18
REMARK                            x       y       z     vdW  Elec       q    Type
REMARK                         _______ _______ _______ _____ _____    ______ ____
ROOT
ATOM      1  N   UNL     1       4.284   5.285  18.628  0.00  0.00    +0.000 NA
ATOM      2  C   UNL     1       4.246   3.860  18.228  0.00  0.00    +0.000 C 
ATOM      3  C   UNL     1       4.014   3.581  16.712  0.00  0.00    +0.000 C 
ATOM      4  N   UNL     1       4.801   4.381  15.741  0.00  0.00    +0.000 NA
ATOM      5  C   UNL     1       4.835   5.790  16.201  0.00  0.00    +0.000 C 
ATOM      6  C   UNL     1       5.209   5.973  17.699  0.00  0.00    +0.000 C 
ENDROOT
BRANCH   1   7
ATOM      7  C   UNL     1       2.978   5.967  18.598  0.00  0.00    +0.000 C 
BRANCH   7   8
ATOM      8  C   UNL     1       2.231   6.187  19.910  0.00  0.00    +0.000 C 
ATOM      9  C   UNL     1       2.467   5.205  21.049  0.00  0.00    +0.000 C 
ATOM     10  C   UNL     1       1.208   5.092  20.254  0.00  0.00    +0.000 C 
BRANCH   8  15
ATOM     11  C   UNL     1       0.092  11.552  20.958  0.00  0.00    +0.000 C 
ATOM     12  C   UNL     1       0.671  10.195  20.688  0.00  0.00    +0.000 A 
ATOM     13  C   UNL     1       1.082   9.829  19.407  0.00  0.00    +0.000 A 
ATOM     14  C   UNL     1       1.606   8.554  19.175  0.00  0.00    +0.000 A 
ATOM     15  C   UNL     1       1.730   7.602  20.206  0.00  0.00    +0.000 A 
ATOM     16  C   UNL     1       1.313   7.988  21.486  0.00  0.00    +0.000 A 
ATOM     17  C   UNL     1       0.788   9.262  21.729  0.00  0.00    +0.000 A 
ENDBRANCH   8  15
ENDBRANCH   7   8
ENDBRANCH   1   7
BRANCH   4  18
ATOM     18  C   UNL     1       6.178   3.909  15.536  0.00  0.00    +0.000 C 
BRANCH  18  19
ATOM     19  C   UNL     1       6.867   4.431  14.323  0.00  0.00    +0.000 A 
ATOM     20  C   UNL     1       7.828   5.422  14.242  0.00  0.00    +0.000 A 
ATOM     21  N   UNL     1       8.182   5.675  12.948  0.00  0.00    +0.000 NA
ATOM     22  C   UNL     1       7.445   4.861  12.230  0.00  0.00    +0.000 A 
ATOM     23  N   UNL     1       6.619   4.095  13.012  0.00  0.00    +0.000 N 
ATOM     24  C   UNL     1       5.663   3.151  12.497  0.00  0.00    +0.000 C 
ENDBRANCH  18  19
ENDBRANCH   4  18
TORSDOF 5
ENDMDL
MODEL 8
REMARK VINA RESULT:      -6.8      5.082     10.550
REMARK  Name = 
REMARK  7 active torsions:
REMARK  status: ('A' for Active; 'I' for Inactive)
REMARK    1  A    between atoms: C_1  and  C_2
REMARK    2  A    between atoms: C_5  and  C_6
REMARK    3  A    between atoms: C_6  and  C_7
REMARK    4  A    between atoms: C_7  and  N_8
REMARK    5  A    between atoms: N_11  and  C_12
REMARK    6  A    between atoms: C_12  and  C_13
REMARK    7  A    between atoms: N_17  and  C_18
REMARK                            x       y       z     vdW  Elec       q    Type
REMARK                         _______ _______ _______ _____ _____    ______ ____
ROOT
ATOM      1  N   UNL     1      -0.142   9.306  20.589  0.00  0.00    +0.000 NA
ATOM      2  C   UNL     1      -0.525   8.813  21.932  0.00  0.00    +0.000 C 
ATOM      3  C   UNL     1      -0.167   9.743  23.130  0.00  0.00    +0.000 C 
ATOM      4  N   UNL     1      -0.475  11.188  22.990  0.00  0.00    +0.000 NA
ATOM      5  C   UNL     1      -0.103  11.625  21.623  0.00  0.00    +0.000 C 
ATOM      6  C   UNL     1      -0.623  10.703  20.485  0.00  0.00    +0.000 C 
ENDROOT
BRANCH   1   7
ATOM      7  C   UNL     1       1.306   9.274  20.313  0.00  0.00    +0.000 C 
BRANCH   7   8
ATOM      8  C   UNL     1       1.789   8.740  18.969  0.00  0.00    +0.000 C 
ATOM      9  C   UNL     1       2.125   9.741  17.873  0.00  0.00    +0.000 C 
ATOM     10  C   UNL     1       0.830   9.001  17.796  0.00  0.00    +0.000 C 
BRANCH   8  15
ATOM     11  C   UNL     1       4.366   3.466  18.992  0.00  0.00    +0.000 C 
ATOM     12  C   UNL     1       3.687   4.802  18.959  0.00  0.00    +0.000 A 
ATOM     13  C   UNL     1       3.968   5.729  17.956  0.00  0.00    +0.000 A 
ATOM     14  C   UNL     1       3.334   6.974  17.953  0.00  0.00    +0.000 A 
ATOM     15  C   UNL     1       2.408   7.341  18.949  0.00  0.00    +0.000 A 
ATOM     16  C   UNL     1       2.137   6.397  19.947  0.00  0.00    +0.000 A 
ATOM     17  C   UNL     1       2.766   5.146  19.959  0.00  0.00    +0.000 A 
ENDBRANCH   8  15
ENDBRANCH   7   8
ENDBRANCH   1   7
BRANCH   4  18
ATOM     18  C   UNL     1      -1.881  11.538  23.241  0.00  0.00    +0.000 C 
BRANCH  18  19
ATOM     19  C   UNL     1      -2.233  12.974  23.055  0.00  0.00    +0.000 A 
ATOM     20  C   UNL     1      -1.817  14.062  23.798  0.00  0.00    +0.000 A 
ATOM     21  N   UNL     1      -2.400  15.219  23.366  0.00  0.00    +0.000 NA
ATOM     22  C   UNL     1      -3.178  14.856  22.374  0.00  0.00    +0.000 A 
ATOM     23  N   UNL     1      -3.127  13.504  22.153  0.00  0.00    +0.000 N 
ATOM     24  C   UNL     1      -3.913  12.815  21.163  0.00  0.00    +0.000 C 
ENDBRANCH  18  19
ENDBRANCH   4  18
TORSDOF 5
ENDMDL
MODEL 9
REMARK VINA RESULT:      -6.7      3.112      7.653
REMARK  Name = 
REMARK  7 active torsions:
REMARK  status: ('A' for Active; 'I' for Inactive)
REMARK    1  A    between atoms: C_1  and  C_2
REMARK    2  A    between atoms: C_5  and  C_6
REMARK    3  A    between atoms: C_6  and  C_7
REMARK    4  A    between atoms: C_7  and  N_8
REMARK    5  A    between atoms: N_11  and  C_12
REMARK    6  A    between atoms: C_12  and  C_13
REMARK    7  A    between atoms: N_17  and  C_18
REMARK                            x       y       z     vdW  Elec       q    Type
REMARK                         _______ _______ _______ _____ _____    ______ ____
ROOT
ATOM      1  N   UNL     1       2.028   5.253  19.469  0.00  0.00    +0.000 NA
ATOM      2  C   UNL     1       1.442   6.318  20.314  0.00  0.00    +0.000 C 
ATOM      3  C   UNL     1       2.057   7.740  20.147  0.00  0.00    +0.000 C 
ATOM      4  N   UNL     1       2.284   8.229  18.764  0.00  0.00    +0.000 NA
ATOM      5  C   UNL     1       2.841   7.120  17.952  0.00  0.00    +0.000 C 
ATOM      6  C   UNL     1       2.076   5.774  18.083  0.00  0.00    +0.000 C 
ENDROOT
BRANCH   1   7
ATOM      7  C   UNL     1       3.382   4.826  19.869  0.00  0.00    +0.000 C 
BRANCH   7   8
ATOM      8  C   UNL     1       4.022   3.641  19.154  0.00  0.00    +0.000 C 
ATOM      9  C   UNL     1       3.347   2.281  19.262  0.00  0.00    +0.000 C 
ATOM     10  C   UNL     1       4.562   2.547  20.088  0.00  0.00    +0.000 C 
BRANCH   8  15
ATOM     11  C   UNL     1       7.444   5.014  14.586  0.00  0.00    +0.000 C 
ATOM     12  C   UNL     1       6.579   4.629  15.749  0.00  0.00    +0.000 A 
ATOM     13  C   UNL     1       5.363   3.976  15.558  0.00  0.00    +0.000 A 
ATOM     14  C   UNL     1       4.566   3.638  16.656  0.00  0.00    +0.000 A 
ATOM     15  C   UNL     1       4.949   3.947  17.976  0.00  0.00    +0.000 A 
ATOM     16  C   UNL     1       6.174   4.603  18.148  0.00  0.00    +0.000 A 
ATOM     17  C   UNL     1       6.980   4.944  17.056  0.00  0.00    +0.000 A 
ENDBRANCH   8  15
ENDBRANCH   7   8
ENDBRANCH   1   7
BRANCH   4  18
ATOM     18  C   UNL     1       1.084   8.756  18.099  0.00  0.00    +0.000 C 
BRANCH  18  19
ATOM     19  C   UNL     1       0.631  10.101  18.551  0.00  0.00    +0.000 A 
ATOM     20  C   UNL     1       1.302  11.008  19.350  0.00  0.00    +0.000 A 
ATOM     21  N   UNL     1       0.542  12.114  19.604  0.00  0.00    +0.000 NA
ATOM     22  C   UNL     1      -0.592  11.895  18.981  0.00  0.00    +0.000 A 
ATOM     23  N   UNL     1      -0.597  10.683  18.339  0.00  0.00    +0.000 N 
ATOM     24  C   UNL     1      -1.725  10.154  17.618  0.00  0.00    +0.000 C 
ENDBRANCH  18  19
ENDBRANCH   4  18
TORSDOF 5
ENDMDL
