MODEL 1
REMARK VINA RESULT:      -7.4      0.000      0.000
REMARK  Name = 
REMARK  6 active torsions:
REMARK  status: ('A' for Active; 'I' for Inactive)
REMARK    1  A    between atoms: C_1  and  C_2
REMARK    2  A    between atoms: N_12  and  C_13
REMARK    3  A    between atoms: C_13  and  C_14
REMARK    4  A    between atoms: N_16  and  C_17
REMARK    5  A    between atoms: C_17  and  C_18
REMARK    6  A    between atoms: C_18  and  N_19
REMARK                            x       y       z     vdW  Elec       q    Type
REMARK                         _______ _______ _______ _____ _____    ______ ____
ROOT
ATOM      1  C   UNL     1      -2.695  10.187  15.461  0.00  0.00    +0.000 C 
ATOM      2  C   UNL     1      -2.409  10.587  16.880  0.00  0.00    +0.000 A 
ATOM      3  C   UNL     1      -3.241  11.496  17.545  0.00  0.00    +0.000 A 
ATOM      4  C   UNL     1      -2.980  11.850  18.864  0.00  0.00    +0.000 A 
ATOM      5  C   UNL     1      -1.888  11.278  19.514  0.00  0.00    +0.000 A 
ATOM      6  O   UNL     1      -1.697  11.686  20.867  0.00  0.00    +0.000 OA
ATOM      7  C   UNL     1      -0.640  11.206  21.661  0.00  0.00    +0.000 A 
ATOM      8  O   UNL     1      -0.494  11.560  22.824  0.00  0.00    +0.000 OA
ATOM      9  C   UNL     1       0.239  10.265  21.008  0.00  0.00    +0.000 A 
ATOM     10  C   UNL     1       1.371   9.598  21.478  0.00  0.00    +0.000 A 
ATOM     11  N   UNL     1       1.918   8.830  20.536  0.00  0.00    +0.000 NA
ATOM     12  N   UNL     1       1.090   8.966  19.466  0.00  0.00    +0.000 N 
ATOM     13  C   UNL     1       0.070   9.857  19.697  0.00  0.00    +0.000 A 
ATOM     14  C   UNL     1      -1.027  10.361  18.879  0.00  0.00    +0.000 A 
ATOM     15  C   UNL     1      -1.299  10.030  17.551  0.00  0.00    +0.000 A 
ENDROOT
BRANCH  12  16
ATOM     16  C   UNL     1       1.396   8.158  18.303  0.00  0.00    +0.000 C 
BRANCH  16  17
ATOM     17  C   UNL     1       2.686   7.376  18.434  0.00  0.00    +0.000 C 
ATOM     18  O   UNL     1       3.644   7.624  17.698  0.00  0.00    +0.000 OA
ATOM     19  N   UNL     1       2.687   6.317  19.312  0.00  0.00    +0.000 N 
ATOM     20  H   UNL     1       1.931   6.234  19.984  0.00  0.00    +0.000 HD
BRANCH  19  21
ATOM     21  C   UNL     1       3.834   5.437  19.468  0.00  0.00    +0.000 C 
BRANCH  21  22
ATOM     22  C   UNL     1       3.838   4.235  18.499  0.00  0.00    +0.000 C 
BRANCH  22  23
ATOM     23  N   UNL     1       5.114   4.026  17.792  0.00  0.00    +0.000 NA
ATOM     24  C   UNL     1       5.033   4.328  16.347  0.00  0.00    +0.000 C 
ATOM     25  C   UNL     1       6.391   4.059  15.677  0.00  0.00    +0.000 C 
ATOM     26  O   UNL     1       7.430   4.858  16.260  0.00  0.00    +0.000 OA
ATOM     27  C   UNL     1       7.517   4.607  17.671  0.00  0.00    +0.000 C 
ATOM     28  C   UNL     1       6.176   4.888  18.366  0.00  0.00    +0.000 C 
ENDBRANCH  22  23
ENDBRANCH  21  22
ENDBRANCH  19  21
ENDBRANCH  16  17
ENDBRANCH  12  16
TORSDOF 5
ENDMDL
MODEL 2
REMARK VINA RESULT:      -7.3      1.401      1.779
REMARK  Name = 
REMARK  6 active torsions:
REMARK  status: ('A' for Active; 'I' for Inactive)
REMARK    1  A    between atoms: C_1  and  C_2
REMARK    2  A    between atoms: N_12  and  C_13
REMARK    3  A    between atoms: C_13  and  C_14
REMARK    4  A    between atoms: N_16  and  C_17
REMARK    5  A    between atoms: C_17  and  C_18
REMARK    6  A    between atoms: C_18  and  N_19
REMARK                            x       y       z     vdW  Elec       q    Type
REMARK                         _______ _______ _______ _____ _____    ______ ____
ROOT
ATOM      1  C   UNL     1      -3.169   9.843  14.587  0.00  0.00    +0.000 C 
ATOM      2  C   UNL     1      -3.147  10.475  15.949  0.00  0.00    +0.000 A 
ATOM      3  C   UNL     1      -4.266  11.162  16.434  0.00  0.00    +0.000 A 
ATOM      4  C   UNL     1      -4.243  11.731  17.703  0.00  0.00    +0.000 A 
ATOM      5  C   UNL     1      -3.098  11.596  18.484  0.00  0.00    +0.000 A 
ATOM      6  O   UNL     1      -3.160  12.198  19.775  0.00  0.00    +0.000 OA
ATOM      7  C   UNL     1      -2.089  12.157  20.685  0.00  0.00    +0.000 A 
ATOM      8  O   UNL     1      -2.161  12.672  21.792  0.00  0.00    +0.000 OA
ATOM      9  C   UNL     1      -0.917  11.454  20.218  0.00  0.00    +0.000 A 
ATOM     10  C   UNL     1       0.311  11.219  20.837  0.00  0.00    +0.000 A 
ATOM     11  N   UNL     1       1.144  10.546  20.043  0.00  0.00    +0.000 NA
ATOM     12  N   UNL     1       0.416  10.299  18.922  0.00  0.00    +0.000 N 
ATOM     13  C   UNL     1      -0.836  10.862  18.970  0.00  0.00    +0.000 A 
ATOM     14  C   UNL     1      -1.951  10.912  18.032  0.00  0.00    +0.000 A 
ATOM     15  C   UNL     1      -1.990  10.361  16.750  0.00  0.00    +0.000 A 
ENDROOT
BRANCH  12  16
ATOM     16  C   UNL     1       1.052   9.490  17.902  0.00  0.00    +0.000 C 
BRANCH  16  17
ATOM     17  C   UNL     1       2.033   8.480  18.458  0.00  0.00    +0.000 C 
ATOM     18  O   UNL     1       3.106   8.272  17.885  0.00  0.00    +0.000 OA
ATOM     19  N   UNL     1       1.618   7.736  19.538  0.00  0.00    +0.000 N 
ATOM     20  H   UNL     1       0.793   8.029  20.050  0.00  0.00    +0.000 HD
BRANCH  19  21
ATOM     21  C   UNL     1       2.433   6.676  20.111  0.00  0.00    +0.000 C 
BRANCH  21  22
ATOM     22  C   UNL     1       2.145   5.278  19.525  0.00  0.00    +0.000 C 
BRANCH  22  23
ATOM     23  N   UNL     1       3.321   4.612  18.935  0.00  0.00    +0.000 NA
ATOM     24  C   UNL     1       3.262   4.529  17.460  0.00  0.00    +0.000 C 
ATOM     25  C   UNL     1       4.504   3.797  16.924  0.00  0.00    +0.000 C 
ATOM     26  O   UNL     1       5.712   4.473  17.303  0.00  0.00    +0.000 OA
ATOM     27  C   UNL     1       5.787   4.592  18.732  0.00  0.00    +0.000 C 
ATOM     28  C   UNL     1       4.564   5.337  19.289  0.00  0.00    +0.000 C 
ENDBRANCH  22  23
ENDBRANCH  21  22
ENDBRANCH  19  21
ENDBRANCH  16  17
ENDBRANCH  12  16
TORSDOF 5
ENDMDL
MODEL 3
REMARK VINA RESULT:      -7.2      2.251      8.901
REMARK  Name = 
REMARK  6 active torsions:
REMARK  status: ('A' for Active; 'I' for Inactive)
REMARK    1  A    between atoms: C_1  and  C_2
REMARK    2  A    between atoms: N_12  and  C_13
REMARK    3  A    between atoms: C_13  and  C_14
REMARK    4  A    between atoms: N_16  and  C_17
REMARK    5  A    between atoms: C_17  and  C_18
REMARK    6  A    between atoms: C_18  and  N_19
REMARK                            x       y       z     vdW  Elec       q    Type
REMARK                         _______ _______ _______ _____ _____    ______ ____
ROOT
ATOM      1  C   UNL     1       7.342   7.953  17.362  0.00  0.00    +0.000 C 
ATOM      2  C   UNL     1       6.589   6.655  17.297  0.00  0.00    +0.000 A 
ATOM      3  C   UNL     1       7.134   5.549  16.634  0.00  0.00    +0.000 A 
ATOM      4  C   UNL     1       6.439   4.345  16.592  0.00  0.00    +0.000 A 
ATOM      5  C   UNL     1       5.202   4.256  17.227  0.00  0.00    +0.000 A 
ATOM      6  O   UNL     1       4.560   2.985  17.145  0.00  0.00    +0.000 OA
ATOM      7  C   UNL     1       3.306   2.729  17.729  0.00  0.00    +0.000 A 
ATOM      8  O   UNL     1       2.772   1.631  17.657  0.00  0.00    +0.000 OA
ATOM      9  C   UNL     1       2.715   3.849  18.423  0.00  0.00    +0.000 A 
ATOM     10  C   UNL     1       1.503   3.960  19.106  0.00  0.00    +0.000 A 
ATOM     11  N   UNL     1       1.317   5.190  19.585  0.00  0.00    +0.000 NA
ATOM     12  N   UNL     1       2.454   5.857  19.252  0.00  0.00    +0.000 N 
ATOM     13  C   UNL     1       3.321   5.089  18.515  0.00  0.00    +0.000 A 
ATOM     14  C   UNL     1       4.620   5.346  17.904  0.00  0.00    +0.000 A 
ATOM     15  C   UNL     1       5.328   6.549  17.923  0.00  0.00    +0.000 A 
ENDROOT
BRANCH  12  16
ATOM     16  C   UNL     1       2.570   7.218  19.734  0.00  0.00    +0.000 C 
BRANCH  16  17
ATOM     17  C   UNL     1       1.949   8.242  18.807  0.00  0.00    +0.000 C 
ATOM     18  O   UNL     1       2.147   8.185  17.591  0.00  0.00    +0.000 OA
ATOM     19  N   UNL     1       1.271   9.285  19.394  0.00  0.00    +0.000 N 
ATOM     20  H   UNL     1       1.023   9.220  20.377  0.00  0.00    +0.000 HD
BRANCH  19  21
ATOM     21  C   UNL     1       0.701  10.376  18.621  0.00  0.00    +0.000 C 
BRANCH  21  22
ATOM     22  C   UNL     1      -0.519  11.047  19.287  0.00  0.00    +0.000 C 
BRANCH  22  23
ATOM     23  N   UNL     1      -1.817  10.673  18.698  0.00  0.00    +0.000 NA
ATOM     24  C   UNL     1      -2.802  11.775  18.714  0.00  0.00    +0.000 C 
ATOM     25  C   UNL     1      -4.135  11.299  18.112  0.00  0.00    +0.000 C 
ATOM     26  O   UNL     1      -3.967  10.848  16.761  0.00  0.00    +0.000 OA
ATOM     27  C   UNL     1      -2.994   9.793  16.706  0.00  0.00    +0.000 C 
ATOM     28  C   UNL     1      -1.647  10.251  17.286  0.00  0.00    +0.000 C 
ENDBRANCH  22  23
ENDBRANCH  21  22
ENDBRANCH  19  21
ENDBRANCH  16  17
ENDBRANCH  12  16
TORSDOF 5
ENDMDL
MODEL 4
REMARK VINA RESULT:      -7.2      2.831      3.378
REMARK  Name = 
REMARK  6 active torsions:
REMARK  status: ('A' for Active; 'I' for Inactive)
REMARK    1  A    between atoms: C_1  and  C_2
REMARK    2  A    between atoms: N_12  and  C_13
REMARK    3  A    between atoms: C_13  and  C_14
REMARK    4  A    between atoms: N_16  and  C_17
REMARK    5  A    between atoms: C_17  and  C_18
REMARK    6  A    between atoms: C_18  and  N_19
REMARK                            x       y       z     vdW  Elec       q    Type
REMARK                         _______ _______ _______ _____ _____    ______ ____
ROOT
ATOM      1  C   UNL     1      -2.921   9.682  14.967  0.00  0.00    +0.000 C 
ATOM      2  C   UNL     1      -2.991  10.412  16.278  0.00  0.00    +0.000 A 
ATOM      3  C   UNL     1      -4.201  10.957  16.724  0.00  0.00    +0.000 A 
ATOM      4  C   UNL     1      -4.262  11.618  17.947  0.00  0.00    +0.000 A 
ATOM      5  C   UNL     1      -3.108  11.717  18.721  0.00  0.00    +0.000 A 
ATOM      6  O   UNL     1      -3.259  12.399  19.964  0.00  0.00    +0.000 OA
ATOM      7  C   UNL     1      -2.191  12.589  20.859  0.00  0.00    +0.000 A 
ATOM      8  O   UNL     1      -2.339  13.170  21.926  0.00  0.00    +0.000 OA
ATOM      9  C   UNL     1      -0.927  12.038  20.431  0.00  0.00    +0.000 A 
ATOM     10  C   UNL     1       0.323  12.038  21.050  0.00  0.00    +0.000 A 
ATOM     11  N   UNL     1       1.247  11.440  20.297  0.00  0.00    +0.000 NA
ATOM     12  N   UNL     1       0.563  11.002  19.208  0.00  0.00    +0.000 N 
ATOM     13  C   UNL     1      -0.760  11.371  19.230  0.00  0.00    +0.000 A 
ATOM     14  C   UNL     1      -1.872  11.181  18.305  0.00  0.00    +0.000 A 
ATOM     15  C   UNL     1      -1.829  10.535  17.069  0.00  0.00    +0.000 A 
ENDROOT
BRANCH  12  16
ATOM     16  C   UNL     1       1.311  10.223  18.243  0.00  0.00    +0.000 C 
BRANCH  16  17
ATOM     17  C   UNL     1       1.734   8.864  18.761  0.00  0.00    +0.000 C 
ATOM     18  O   UNL     1       1.408   8.499  19.893  0.00  0.00    +0.000 OA
ATOM     19  N   UNL     1       2.585   8.131  17.967  0.00  0.00    +0.000 N 
ATOM     20  H   UNL     1       2.718   8.409  17.000  0.00  0.00    +0.000 HD
BRANCH  19  21
ATOM     21  C   UNL     1       3.130   6.849  18.387  0.00  0.00    +0.000 C 
BRANCH  21  22
ATOM     22  C   UNL     1       2.197   5.651  18.111  0.00  0.00    +0.000 C 
BRANCH  22  23
ATOM     23  N   UNL     1       2.305   4.557  19.093  0.00  0.00    +0.000 NA
ATOM     24  C   UNL     1       1.916   4.963  20.460  0.00  0.00    +0.000 C 
ATOM     25  C   UNL     1       2.084   3.780  21.429  0.00  0.00    +0.000 C 
ATOM     26  O   UNL     1       1.279   2.661  21.031  0.00  0.00    +0.000 OA
ATOM     27  C   UNL     1       1.615   2.257  19.694  0.00  0.00    +0.000 C 
ATOM     28  C   UNL     1       1.437   3.419  18.705  0.00  0.00    +0.000 C 
ENDBRANCH  22  23
ENDBRANCH  21  22
ENDBRANCH  19  21
ENDBRANCH  16  17
ENDBRANCH  12  16
TORSDOF 5
ENDMDL
MODEL 5
REMARK VINA RESULT:      -7.2      3.009      8.064
REMARK  Name = 
REMARK  6 active torsions:
REMARK  status: ('A' for Active; 'I' for Inactive)
REMARK    1  A    between atoms: C_1  and  C_2
REMARK    2  A    between atoms: N_12  and  C_13
REMARK    3  A    between atoms: C_13  and  C_14
REMARK    4  A    between atoms: N_16  and  C_17
REMARK    5  A    between atoms: C_17  and  C_18
REMARK    6  A    between atoms: C_18  and  N_19
REMARK                            x       y       z     vdW  Elec       q    Type
REMARK                         _______ _______ _______ _____ _____    ______ ____
ROOT
ATOM      1  C   UNL     1       1.725   2.560  22.037  0.00  0.00    +0.000 C 
ATOM      2  C   UNL     1       2.368   3.251  20.869  0.00  0.00    +0.000 A 
ATOM      3  C   UNL     1       3.184   2.538  19.982  0.00  0.00    +0.000 A 
ATOM      4  C   UNL     1       3.763   3.180  18.893  0.00  0.00    +0.000 A 
ATOM      5  C   UNL     1       3.509   4.536  18.694  0.00  0.00    +0.000 A 
ATOM      6  O   UNL     1       4.132   5.116  17.550  0.00  0.00    +0.000 OA
ATOM      7  C   UNL     1       3.982   6.472  17.209  0.00  0.00    +0.000 A 
ATOM      8  O   UNL     1       4.516   6.952  16.219  0.00  0.00    +0.000 OA
ATOM      9  C   UNL     1       3.145   7.238  18.103  0.00  0.00    +0.000 A 
ATOM     10  C   UNL     1       2.780   8.584  18.079  0.00  0.00    +0.000 A 
ATOM     11  N   UNL     1       2.007   8.905  19.117  0.00  0.00    +0.000 NA
ATOM     12  N   UNL     1       1.830   7.732  19.780  0.00  0.00    +0.000 N 
ATOM     13  C   UNL     1       2.531   6.694  19.217  0.00  0.00    +0.000 A 
ATOM     14  C   UNL     1       2.695   5.287  19.565  0.00  0.00    +0.000 A 
ATOM     15  C   UNL     1       2.134   4.627  20.659  0.00  0.00    +0.000 A 
ENDROOT
BRANCH  12  16
ATOM     16  C   UNL     1       0.940   7.764  20.924  0.00  0.00    +0.000 C 
BRANCH  16  17
ATOM     17  C   UNL     1       0.870   9.118  21.597  0.00  0.00    +0.000 C 
ATOM     18  O   UNL     1       1.625   9.390  22.533  0.00  0.00    +0.000 OA
ATOM     19  N   UNL     1      -0.142   9.960  21.199  0.00  0.00    +0.000 N 
ATOM     20  H   UNL     1      -0.650   9.751  20.345  0.00  0.00    +0.000 HD
BRANCH  19  21
ATOM     21  C   UNL     1      -0.370  11.253  21.825  0.00  0.00    +0.000 C 
BRANCH  21  22
ATOM     22  C   UNL     1      -0.226  12.450  20.861  0.00  0.00    +0.000 C 
BRANCH  22  23
ATOM     23  N   UNL     1       1.106  12.576  20.242  0.00  0.00    +0.000 NA
ATOM     24  C   UNL     1       1.074  12.475  18.768  0.00  0.00    +0.000 C 
ATOM     25  C   UNL     1       2.499  12.585  18.201  0.00  0.00    +0.000 C 
ATOM     26  O   UNL     1       3.113  13.829  18.567  0.00  0.00    +0.000 OA
ATOM     27  C   UNL     1       3.137  13.970  19.996  0.00  0.00    +0.000 C 
ATOM     28  C   UNL     1       1.720  13.882  20.584  0.00  0.00    +0.000 C 
ENDBRANCH  22  23
ENDBRANCH  21  22
ENDBRANCH  19  21
ENDBRANCH  16  17
ENDBRANCH  12  16
TORSDOF 5
ENDMDL
MODEL 6
REMARK VINA RESULT:      -7.1      2.195      8.763
REMARK  Name = 
REMARK  6 active torsions:
REMARK  status: ('A' for Active; 'I' for Inactive)
REMARK    1  A    between atoms: C_1  and  C_2
REMARK    2  A    between atoms: N_12  and  C_13
REMARK    3  A    between atoms: C_13  and  C_14
REMARK    4  A    between atoms: N_16  and  C_17
REMARK    5  A    between atoms: C_17  and  C_18
REMARK    6  A    between atoms: C_18  and  N_19
REMARK                            x       y       z     vdW  Elec       q    Type
REMARK                         _______ _______ _______ _____ _____    ______ ____
ROOT
ATOM      1  C   UNL     1       1.791   2.587  21.933  0.00  0.00    +0.000 C 
ATOM      2  C   UNL     1       2.497   3.197  20.756  0.00  0.00    +0.000 A 
ATOM      3  C   UNL     1       3.333   2.419  19.947  0.00  0.00    +0.000 A 
ATOM      4  C   UNL     1       3.971   2.986  18.848  0.00  0.00    +0.000 A 
ATOM      5  C   UNL     1       3.755   4.333  18.563  0.00  0.00    +0.000 A 
ATOM      6  O   UNL     1       4.438   4.834  17.415  0.00  0.00    +0.000 OA
ATOM      7  C   UNL     1       4.331   6.171  16.993  0.00  0.00    +0.000 A 
ATOM      8  O   UNL     1       4.917   6.583  16.000  0.00  0.00    +0.000 OA
ATOM      9  C   UNL     1       3.474   7.003  17.805  0.00  0.00    +0.000 A 
ATOM     10  C   UNL     1       3.141   8.353  17.689  0.00  0.00    +0.000 A 
ATOM     11  N   UNL     1       2.333   8.747  18.673  0.00  0.00    +0.000 NA
ATOM     12  N   UNL     1       2.102   7.618  19.394  0.00  0.00    +0.000 N 
ATOM     13  C   UNL     1       2.803   6.536  18.920  0.00  0.00    +0.000 A 
ATOM     14  C   UNL     1       2.922   5.149  19.354  0.00  0.00    +0.000 A 
ATOM     15  C   UNL     1       2.302   4.563  20.459  0.00  0.00    +0.000 A 
ENDROOT
BRANCH  12  16
ATOM     16  C   UNL     1       1.167   7.733  20.494  0.00  0.00    +0.000 C 
BRANCH  16  17
ATOM     17  C   UNL     1       0.749   9.158  20.787  0.00  0.00    +0.000 C 
ATOM     18  O   UNL     1       1.169   9.738  21.791  0.00  0.00    +0.000 OA
ATOM     19  N   UNL     1      -0.198   9.713  19.958  0.00  0.00    +0.000 N 
ATOM     20  H   UNL     1      -0.414   9.253  19.079  0.00  0.00    +0.000 HD
BRANCH  19  21
ATOM     21  C   UNL     1      -0.745  11.042  20.181  0.00  0.00    +0.000 C 
BRANCH  21  22
ATOM     22  C   UNL     1      -0.749  11.937  18.924  0.00  0.00    +0.000 C 
BRANCH  22  23
ATOM     23  N   UNL     1      -2.047  12.003  18.228  0.00  0.00    +0.000 NA
ATOM     24  C   UNL     1      -2.205  10.961  17.191  0.00  0.00    +0.000 C 
ATOM     25  C   UNL     1      -3.567  11.115  16.493  0.00  0.00    +0.000 C 
ATOM     26  O   UNL     1      -4.649  11.004  17.429  0.00  0.00    +0.000 OA
ATOM     27  C   UNL     1      -4.511  11.988  18.466  0.00  0.00    +0.000 C 
ATOM     28  C   UNL     1      -3.164  11.842  19.191  0.00  0.00    +0.000 C 
ENDBRANCH  22  23
ENDBRANCH  21  22
ENDBRANCH  19  21
ENDBRANCH  16  17
ENDBRANCH  12  16
TORSDOF 5
ENDMDL
MODEL 7
REMARK VINA RESULT:      -7.1      2.744      8.805
REMARK  Name = 
REMARK  6 active torsions:
REMARK  status: ('A' for Active; 'I' for Inactive)
REMARK    1  A    between atoms: C_1  and  C_2
REMARK    2  A    between atoms: N_12  and  C_13
REMARK    3  A    between atoms: C_13  and  C_14
REMARK    4  A    between atoms: N_16  and  C_17
REMARK    5  A    between atoms: C_17  and  C_18
REMARK    6  A    between atoms: C_18  and  N_19
REMARK                            x       y       z     vdW  Elec       q    Type
REMARK                         _______ _______ _______ _____ _____    ______ ____
ROOT
ATOM      1  C   UNL     1       7.800   8.662  17.489  0.00  0.00    +0.000 C 
ATOM      2  C   UNL     1       7.253   7.329  17.912  0.00  0.00    +0.000 A 
ATOM      3  C   UNL     1       8.113   6.312  18.344  0.00  0.00    +0.000 A 
ATOM      4  C   UNL     1       7.599   5.085  18.750  0.00  0.00    +0.000 A 
ATOM      5  C   UNL     1       6.219   4.890  18.731  0.00  0.00    +0.000 A 
ATOM      6  O   UNL     1       5.774   3.610  19.172  0.00  0.00    +0.000 OA
ATOM      7  C   UNL     1       4.415   3.251  19.210  0.00  0.00    +0.000 A 
ATOM      8  O   UNL     1       4.048   2.150  19.600  0.00  0.00    +0.000 OA
ATOM      9  C   UNL     1       3.498   4.277  18.773  0.00  0.00    +0.000 A 
ATOM     10  C   UNL     1       2.106   4.275  18.676  0.00  0.00    +0.000 A 
ATOM     11  N   UNL     1       1.643   5.427  18.192  0.00  0.00    +0.000 NA
ATOM     12  N   UNL     1       2.752   6.196  18.031  0.00  0.00    +0.000 N 
ATOM     13  C   UNL     1       3.910   5.526  18.342  0.00  0.00    +0.000 A 
ATOM     14  C   UNL     1       5.322   5.889  18.303  0.00  0.00    +0.000 A 
ATOM     15  C   UNL     1       5.859   7.108  17.886  0.00  0.00    +0.000 A 
ENDROOT
BRANCH  12  16
ATOM     16  C   UNL     1       2.536   7.560  17.594  0.00  0.00    +0.000 C 
BRANCH  16  17
ATOM     17  C   UNL     1       1.959   8.456  18.670  0.00  0.00    +0.000 C 
ATOM     18  O   UNL     1       1.665   9.626  18.417  0.00  0.00    +0.000 OA
ATOM     19  N   UNL     1       1.900   7.941  19.944  0.00  0.00    +0.000 N 
ATOM     20  H   UNL     1       2.027   6.943  20.078  0.00  0.00    +0.000 HD
BRANCH  19  21
ATOM     21  C   UNL     1       1.447   8.727  21.081  0.00  0.00    +0.000 C 
BRANCH  21  22
ATOM     22  C   UNL     1      -0.088   8.858  21.179  0.00  0.00    +0.000 C 
BRANCH  22  23
ATOM     23  N   UNL     1      -0.565  10.221  21.471  0.00  0.00    +0.000 NA
ATOM     24  C   UNL     1      -0.868  10.437  22.901  0.00  0.00    +0.000 C 
ATOM     25  C   UNL     1      -1.387  11.869  23.120  0.00  0.00    +0.000 C 
ATOM     26  O   UNL     1      -0.423  12.844  22.698  0.00  0.00    +0.000 OA
ATOM     27  C   UNL     1      -0.086  12.645  21.316  0.00  0.00    +0.000 C 
ATOM     28  C   UNL     1       0.452  11.226  21.077  0.00  0.00    +0.000 C 
ENDBRANCH  22  23
ENDBRANCH  21  22
ENDBRANCH  19  21
ENDBRANCH  16  17
ENDBRANCH  12  16
TORSDOF 5
ENDMDL
MODEL 8
REMARK VINA RESULT:      -7.1      4.872      7.959
REMARK  Name = 
REMARK  6 active torsions:
REMARK  status: ('A' for Active; 'I' for Inactive)
REMARK    1  A    between atoms: C_1  and  C_2
REMARK    2  A    between atoms: N_12  and  C_13
REMARK    3  A    between atoms: C_13  and  C_14
REMARK    4  A    between atoms: N_16  and  C_17
REMARK    5  A    between atoms: C_17  and  C_18
REMARK    6  A    between atoms: C_18  and  N_19
REMARK                            x       y       z     vdW  Elec       q    Type
REMARK                         _______ _______ _______ _____ _____    ______ ____
ROOT
ATOM      1  C   UNL     1       1.818   8.263  20.550  0.00  0.00    +0.000 C 
ATOM      2  C   UNL     1       2.026   6.832  20.144  0.00  0.00    +0.000 A 
ATOM      3  C   UNL     1       1.218   5.818  20.671  0.00  0.00    +0.000 A 
ATOM      4  C   UNL     1       1.405   4.497  20.277  0.00  0.00    +0.000 A 
ATOM      5  C   UNL     1       2.400   4.204  19.346  0.00  0.00    +0.000 A 
ATOM      6  O   UNL     1       2.520   2.828  18.989  0.00  0.00    +0.000 OA
ATOM      7  C   UNL     1       3.475   2.364  18.067  0.00  0.00    +0.000 A 
ATOM      8  O   UNL     1       3.560   1.182  17.765  0.00  0.00    +0.000 OA
ATOM      9  C   UNL     1       4.326   3.385  17.502  0.00  0.00    +0.000 A 
ATOM     10  C   UNL     1       5.366   3.294  16.576  0.00  0.00    +0.000 A 
ATOM     11  N   UNL     1       5.922   4.482  16.340  0.00  0.00    +0.000 NA
ATOM     12  N   UNL     1       5.189   5.352  17.084  0.00  0.00    +0.000 N 
ATOM     13  C   UNL     1       4.225   4.724  17.834  0.00  0.00    +0.000 A 
ATOM     14  C   UNL     1       3.234   5.196  18.794  0.00  0.00    +0.000 A 
ATOM     15  C   UNL     1       3.037   6.513  19.213  0.00  0.00    +0.000 A 
ENDROOT
BRANCH  12  16
ATOM     16  C   UNL     1       5.520   6.756  16.950  0.00  0.00    +0.000 C 
BRANCH  16  17
ATOM     17  C   UNL     1       6.812   7.141  17.639  0.00  0.00    +0.000 C 
ATOM     18  O   UNL     1       7.322   6.390  18.474  0.00  0.00    +0.000 OA
ATOM     19  N   UNL     1       7.306   8.398  17.381  0.00  0.00    +0.000 N 
ATOM     20  H   UNL     1       6.931   8.923  16.597  0.00  0.00    +0.000 HD
BRANCH  19  21
ATOM     21  C   UNL     1       8.491   8.919  18.043  0.00  0.00    +0.000 C 
BRANCH  21  22
ATOM     22  C   UNL     1       8.534  10.460  18.130  0.00  0.00    +0.000 C 
BRANCH  22  23
ATOM     23  N   UNL     1       9.750  11.000  18.765  0.00  0.00    +0.000 NA
ATOM     24  C   UNL     1      10.662  11.659  17.807  0.00  0.00    +0.000 C 
ATOM     25  C   UNL     1      11.916  12.168  18.538  0.00  0.00    +0.000 C 
ATOM     26  O   UNL     1      11.575  13.103  19.571  0.00  0.00    +0.000 OA
ATOM     27  C   UNL     1      10.667  12.501  20.506  0.00  0.00    +0.000 C 
ATOM     28  C   UNL     1       9.397  12.001  19.801  0.00  0.00    +0.000 C 
ENDBRANCH  22  23
ENDBRANCH  21  22
ENDBRANCH  19  21
ENDBRANCH  16  17
ENDBRANCH  12  16
TORSDOF 5
ENDMDL
MODEL 9
REMARK VINA RESULT:      -7.1      2.835      3.220
REMARK  Name = 
REMARK  6 active torsions:
REMARK  status: ('A' for Active; 'I' for Inactive)
REMARK    1  A    between atoms: C_1  and  C_2
REMARK    2  A    between atoms: N_12  and  C_13
REMARK    3  A    between atoms: C_13  and  C_14
REMARK    4  A    between atoms: N_16  and  C_17
REMARK    5  A    between atoms: C_17  and  C_18
REMARK    6  A    between atoms: C_18  and  N_19
REMARK                            x       y       z     vdW  Elec       q    Type
REMARK                         _______ _______ _______ _____ _____    ______ ____
ROOT
ATOM      1  C   UNL     1      -3.324  10.150  14.818  0.00  0.00    +0.000 C 
ATOM      2  C   UNL     1      -3.236  10.701  16.212  0.00  0.00    +0.000 A 
ATOM      3  C   UNL     1      -4.366  11.241  16.837  0.00  0.00    +0.000 A 
ATOM      4  C   UNL     1      -4.281  11.735  18.134  0.00  0.00    +0.000 A 
ATOM      5  C   UNL     1      -3.061  11.672  18.803  0.00  0.00    +0.000 A 
ATOM      6  O   UNL     1      -3.061  12.189  20.132  0.00  0.00    +0.000 OA
ATOM      7  C   UNL     1      -1.911  12.205  20.940  0.00  0.00    +0.000 A 
ATOM      8  O   UNL     1      -1.929  12.645  22.082  0.00  0.00    +0.000 OA
ATOM      9  C   UNL     1      -0.725  11.653  20.328  0.00  0.00    +0.000 A 
ATOM     10  C   UNL     1       0.572  11.509  20.822  0.00  0.00    +0.000 A 
ATOM     11  N   UNL     1       1.389  10.972  19.915  0.00  0.00    +0.000 NA
ATOM     12  N   UNL     1       0.587  10.718  18.848  0.00  0.00    +0.000 N 
ATOM     13  C   UNL     1      -0.704  11.146  19.041  0.00  0.00    +0.000 A 
ATOM     14  C   UNL     1      -1.900  11.136  18.208  0.00  0.00    +0.000 A 
ATOM     15  C   UNL     1      -2.004  10.659  16.901  0.00  0.00    +0.000 A 
ENDROOT
BRANCH  12  16
ATOM     16  C   UNL     1       1.201  10.038  17.725  0.00  0.00    +0.000 C 
BRANCH  16  17
ATOM     17  C   UNL     1       2.021   8.830  18.125  0.00  0.00    +0.000 C 
ATOM     18  O   UNL     1       2.893   8.390  17.371  0.00  0.00    +0.000 OA
ATOM     19  N   UNL     1       1.663   8.191  19.289  0.00  0.00    +0.000 N 
ATOM     20  H   UNL     1       1.036   8.660  19.935  0.00  0.00    +0.000 HD
BRANCH  19  21
ATOM     21  C   UNL     1       2.316   6.972  19.740  0.00  0.00    +0.000 C 
BRANCH  21  22
ATOM     22  C   UNL     1       1.551   6.227  20.854  0.00  0.00    +0.000 C 
BRANCH  22  23
ATOM     23  N   UNL     1       1.275   4.809  20.559  0.00  0.00    +0.000 NA
ATOM     24  C   UNL     1       1.533   4.448  19.149  0.00  0.00    +0.000 C 
ATOM     25  C   UNL     1       1.195   2.966  18.915  0.00  0.00    +0.000 C 
ATOM     26  O   UNL     1       1.976   2.112  19.762  0.00  0.00    +0.000 OA
ATOM     27  C   UNL     1       1.767   2.454  21.141  0.00  0.00    +0.000 C 
ATOM     28  C   UNL     1       2.117   3.927  21.404  0.00  0.00    +0.000 C 
ENDBRANCH  22  23
ENDBRANCH  21  22
ENDBRANCH  19  21
ENDBRANCH  16  17
ENDBRANCH  12  16
TORSDOF 5
ENDMDL
