MODEL 1
REMARK VINA RESULT:      -7.9      0.000      0.000
REMARK  Name = 
REMARK  6 active torsions:
REMARK  status: ('A' for Active; 'I' for Inactive)
REMARK    1  A    between atoms: C_1  and  C_2
REMARK    2  A    between atoms: C_7  and  N_8
REMARK    3  A    between atoms: C_10  and  C_11
REMARK    4  A    between atoms: C_13  and  C_14
REMARK    5  A    between atoms: C_15  and  O_16
REMARK    6  A    between atoms: C_20  and  C_21
REMARK                            x       y       z     vdW  Elec       q    Type
REMARK                         _______ _______ _______ _____ _____    ______ ____
ROOT
ATOM      1  N   UNL     1       6.320   4.872  15.472  0.00  0.00    +0.000 N 
ATOM      2  C   UNL     1       7.320   5.077  16.386  0.00  0.00    +0.000 A 
ATOM      3  C   UNL     1       6.729   5.428  17.579  0.00  0.00    +0.000 A 
ATOM      4  C   UNL     1       5.331   5.283  17.346  0.00  0.00    +0.000 A 
ATOM      5  N   UNL     1       5.101   5.076  16.033  0.00  0.00    +0.000 NA
ENDROOT
BRANCH   4   6
ATOM      6  C   UNL     1       4.191   5.370  18.279  0.00  0.00    +0.000 A 
ATOM      7  C   UNL     1       3.371   6.508  18.315  0.00  0.00    +0.000 A 
ATOM      8  C   UNL     1       2.299   6.602  19.199  0.00  0.00    +0.000 A 
ATOM      9  C   UNL     1       2.019   5.555  20.082  0.00  0.00    +0.000 A 
ATOM     10  C   UNL     1       2.791   4.388  20.077  0.00  0.00    +0.000 A 
ATOM     11  C   UNL     1       2.575   3.257  20.998  0.00  0.00    +0.000 A 
ATOM     12  C   UNL     1       1.500   3.248  22.046  0.00  0.00    +0.000 C 
ATOM     13  C   UNL     1       3.390   2.194  20.918  0.00  0.00    +0.000 A 
ATOM     14  C   UNL     1       4.462   2.067  19.932  0.00  0.00    +0.000 A 
ATOM     15  O   UNL     1       5.204   1.095  19.915  0.00  0.00    +0.000 OA
ATOM     16  O   UNL     1       4.589   3.113  19.040  0.00  0.00    +0.000 OA
ATOM     17  C   UNL     1       3.846   4.312  19.147  0.00  0.00    +0.000 A 
BRANCH   7  18
ATOM     18  O   UNL     1       3.562   7.586  17.490  0.00  0.00    +0.000 OA
ATOM     19  H   UNL     1       4.495   7.867  17.616  0.00  0.00    +0.000 HD
ENDBRANCH   7  18
ENDBRANCH   4   6
BRANCH   1  26
ATOM     20  C   UNL     1       8.594   5.943  13.786  0.00  0.00    +0.000 C 
ATOM     21  C   UNL     1       7.521   5.011  13.293  0.00  0.00    +0.000 A 
ATOM     22  C   UNL     1       7.593   4.595  11.951  0.00  0.00    +0.000 A 
ATOM     23  C   UNL     1       6.680   3.682  11.424  0.00  0.00    +0.000 A 
ATOM     24  C   UNL     1       5.675   3.162  12.231  0.00  0.00    +0.000 A 
ATOM     25  C   UNL     1       5.578   3.562  13.564  0.00  0.00    +0.000 A 
ATOM     26  C   UNL     1       6.487   4.490  14.109  0.00  0.00    +0.000 A 
ENDBRANCH   1  26
BRANCH   3  27
ATOM     27  C   UNL     1       7.464   5.846  18.753  0.00  0.00    +0.000 C 
ATOM     28  O   UNL     1       7.290   5.359  19.866  0.00  0.00    +0.000 OA
ENDBRANCH   3  27
TORSDOF 4
ENDMDL
MODEL 2
REMARK VINA RESULT:      -7.8      0.495      1.379
REMARK  Name = 
REMARK  6 active torsions:
REMARK  status: ('A' for Active; 'I' for Inactive)
REMARK    1  A    between atoms: C_1  and  C_2
REMARK    2  A    between atoms: C_7  and  N_8
REMARK    3  A    between atoms: C_10  and  C_11
REMARK    4  A    between atoms: C_13  and  C_14
REMARK    5  A    between atoms: C_15  and  O_16
REMARK    6  A    between atoms: C_20  and  C_21
REMARK                            x       y       z     vdW  Elec       q    Type
REMARK                         _______ _______ _______ _____ _____    ______ ____
ROOT
ATOM      1  N   UNL     1       6.508   5.192  15.816  0.00  0.00    +0.000 N 
ATOM      2  C   UNL     1       7.445   5.328  16.806  0.00  0.00    +0.000 A 
ATOM      3  C   UNL     1       6.777   5.583  17.982  0.00  0.00    +0.000 A 
ATOM      4  C   UNL     1       5.398   5.454  17.649  0.00  0.00    +0.000 A 
ATOM      5  N   UNL     1       5.253   5.350  16.312  0.00  0.00    +0.000 NA
ENDROOT
BRANCH   4   6
ATOM      6  C   UNL     1       4.200   5.464  18.511  0.00  0.00    +0.000 A 
ATOM      7  C   UNL     1       3.333   6.568  18.531  0.00  0.00    +0.000 A 
ATOM      8  C   UNL     1       2.206   6.589  19.348  0.00  0.00    +0.000 A 
ATOM      9  C   UNL     1       1.916   5.503  20.178  0.00  0.00    +0.000 A 
ATOM     10  C   UNL     1       2.734   4.368  20.186  0.00  0.00    +0.000 A 
ATOM     11  C   UNL     1       2.508   3.199  21.056  0.00  0.00    +0.000 A 
ATOM     12  C   UNL     1       1.372   3.113  22.033  0.00  0.00    +0.000 C 
ATOM     13  C   UNL     1       3.369   2.172  20.994  0.00  0.00    +0.000 A 
ATOM     14  C   UNL     1       4.504   2.121  20.074  0.00  0.00    +0.000 A 
ATOM     15  O   UNL     1       5.286   1.179  20.074  0.00  0.00    +0.000 OA
ATOM     16  O   UNL     1       4.643   3.200  19.224  0.00  0.00    +0.000 OA
ATOM     17  C   UNL     1       3.846   4.365  19.323  0.00  0.00    +0.000 A 
BRANCH   7  18
ATOM     18  O   UNL     1       3.530   7.679  17.753  0.00  0.00    +0.000 OA
ATOM     19  H   UNL     1       3.479   8.451  18.359  0.00  0.00    +0.000 HD
ENDBRANCH   7  18
ENDBRANCH   4   6
BRANCH   1  26
ATOM     20  C   UNL     1       4.891   3.154  14.269  0.00  0.00    +0.000 C 
ATOM     21  C   UNL     1       6.044   3.942  13.711  0.00  0.00    +0.000 A 
ATOM     22  C   UNL     1       6.384   3.724  12.363  0.00  0.00    +0.000 A 
ATOM     23  C   UNL     1       7.396   4.454  11.742  0.00  0.00    +0.000 A 
ATOM     24  C   UNL     1       8.091   5.423  12.457  0.00  0.00    +0.000 A 
ATOM     25  C   UNL     1       7.778   5.655  13.796  0.00  0.00    +0.000 A 
ATOM     26  C   UNL     1       6.764   4.920  14.440  0.00  0.00    +0.000 A 
ENDBRANCH   1  26
BRANCH   3  27
ATOM     27  C   UNL     1       7.432   5.910  19.230  0.00  0.00    +0.000 C 
ATOM     28  O   UNL     1       7.460   5.152  20.195  0.00  0.00    +0.000 OA
ENDBRANCH   3  27
TORSDOF 4
ENDMDL
MODEL 3
REMARK VINA RESULT:      -7.7      7.516     10.644
REMARK  Name = 
REMARK  6 active torsions:
REMARK  status: ('A' for Active; 'I' for Inactive)
REMARK    1  A    between atoms: C_1  and  C_2
REMARK    2  A    between atoms: C_7  and  N_8
REMARK    3  A    between atoms: C_10  and  C_11
REMARK    4  A    between atoms: C_13  and  C_14
REMARK    5  A    between atoms: C_15  and  O_16
REMARK    6  A    between atoms: C_20  and  C_21
REMARK                            x       y       z     vdW  Elec       q    Type
REMARK                         _______ _______ _______ _____ _____    ______ ____
ROOT
ATOM      1  N   UNL     1       0.353  10.363  18.739  0.00  0.00    +0.000 N 
ATOM      2  C   UNL     1       0.714  11.666  18.960  0.00  0.00    +0.000 A 
ATOM      3  C   UNL     1      -0.389  12.452  18.716  0.00  0.00    +0.000 A 
ATOM      4  C   UNL     1      -1.445  11.527  18.474  0.00  0.00    +0.000 A 
ATOM      5  N   UNL     1      -0.949  10.278  18.362  0.00  0.00    +0.000 NA
ENDROOT
BRANCH   4   6
ATOM      6  C   UNL     1      -2.893  11.751  18.300  0.00  0.00    +0.000 A 
ATOM      7  C   UNL     1      -3.512  11.548  17.057  0.00  0.00    +0.000 A 
ATOM      8  C   UNL     1      -4.876  11.767  16.882  0.00  0.00    +0.000 A 
ATOM      9  C   UNL     1      -5.663  12.203  17.951  0.00  0.00    +0.000 A 
ATOM     10  C   UNL     1      -5.104  12.404  19.217  0.00  0.00    +0.000 A 
ATOM     11  C   UNL     1      -5.865  12.893  20.383  0.00  0.00    +0.000 A 
ATOM     12  C   UNL     1      -7.326  13.232  20.323  0.00  0.00    +0.000 C 
ATOM     13  C   UNL     1      -5.221  13.069  21.546  0.00  0.00    +0.000 A 
ATOM     14  C   UNL     1      -3.806  12.758  21.744  0.00  0.00    +0.000 A 
ATOM     15  O   UNL     1      -3.250  12.966  22.814  0.00  0.00    +0.000 OA
ATOM     16  O   UNL     1      -3.143  12.236  20.652  0.00  0.00    +0.000 OA
ATOM     17  C   UNL     1      -3.729  12.142  19.368  0.00  0.00    +0.000 A 
BRANCH   7  18
ATOM     18  O   UNL     1      -2.828  11.119  15.950  0.00  0.00    +0.000 OA
ATOM     19  H   UNL     1      -3.228  11.583  15.182  0.00  0.00    +0.000 HD
ENDBRANCH   7  18
ENDBRANCH   4   6
BRANCH   1  26
ATOM     20  C   UNL     1       0.421   8.738  21.292  0.00  0.00    +0.000 C 
ATOM     21  C   UNL     1       1.265   8.469  20.078  0.00  0.00    +0.000 A 
ATOM     22  C   UNL     1       2.141   7.368  20.130  0.00  0.00    +0.000 A 
ATOM     23  C   UNL     1       2.915   7.004  19.030  0.00  0.00    +0.000 A 
ATOM     24  C   UNL     1       2.830   7.733  17.849  0.00  0.00    +0.000 A 
ATOM     25  C   UNL     1       1.975   8.832  17.773  0.00  0.00    +0.000 A 
ATOM     26  C   UNL     1       1.192   9.218  18.878  0.00  0.00    +0.000 A 
ENDBRANCH   1  26
BRANCH   3  27
ATOM     27  C   UNL     1      -0.369  13.899  18.721  0.00  0.00    +0.000 C 
ATOM     28  O   UNL     1      -0.767  14.575  19.665  0.00  0.00    +0.000 OA
ENDBRANCH   3  27
TORSDOF 4
ENDMDL
MODEL 4
REMARK VINA RESULT:      -7.6      5.621      8.910
REMARK  Name = 
REMARK  6 active torsions:
REMARK  status: ('A' for Active; 'I' for Inactive)
REMARK    1  A    between atoms: C_1  and  C_2
REMARK    2  A    between atoms: C_7  and  N_8
REMARK    3  A    between atoms: C_10  and  C_11
REMARK    4  A    between atoms: C_13  and  C_14
REMARK    5  A    between atoms: C_15  and  O_16
REMARK    6  A    between atoms: C_20  and  C_21
REMARK                            x       y       z     vdW  Elec       q    Type
REMARK                         _______ _______ _______ _____ _____    ______ ____
ROOT
ATOM      1  N   UNL     1       1.603   7.897  20.198  0.00  0.00    +0.000 N 
ATOM      2  C   UNL     1       1.085   8.120  21.447  0.00  0.00    +0.000 A 
ATOM      3  C   UNL     1       0.600   9.408  21.474  0.00  0.00    +0.000 A 
ATOM      4  C   UNL     1       0.742   9.875  20.135  0.00  0.00    +0.000 A 
ATOM      5  N   UNL     1       1.469   8.998  19.414  0.00  0.00    +0.000 NA
ENDROOT
BRANCH   4   6
ATOM      6  C   UNL     1       0.269  11.121  19.501  0.00  0.00    +0.000 A 
ATOM      7  C   UNL     1      -0.819  11.112  18.613  0.00  0.00    +0.000 A 
ATOM      8  C   UNL     1      -1.265  12.282  18.003  0.00  0.00    +0.000 A 
ATOM      9  C   UNL     1      -0.629  13.499  18.260  0.00  0.00    +0.000 A 
ATOM     10  C   UNL     1       0.448  13.571  19.151  0.00  0.00    +0.000 A 
ATOM     11  C   UNL     1       1.187  14.812  19.447  0.00  0.00    +0.000 A 
ATOM     12  C   UNL     1       0.859  16.132  18.812  0.00  0.00    +0.000 C 
ATOM     13  C   UNL     1       2.219  14.760  20.304  0.00  0.00    +0.000 A 
ATOM     14  C   UNL     1       2.630  13.544  21.004  0.00  0.00    +0.000 A 
ATOM     15  O   UNL     1       3.598  13.534  21.752  0.00  0.00    +0.000 OA
ATOM     16  O   UNL     1       1.871  12.418  20.757  0.00  0.00    +0.000 OA
ATOM     17  C   UNL     1       0.852  12.376  19.776  0.00  0.00    +0.000 A 
BRANCH   7  18
ATOM     18  O   UNL     1      -1.509   9.971  18.298  0.00  0.00    +0.000 OA
ATOM     19  H   UNL     1      -1.675  10.008  17.331  0.00  0.00    +0.000 HD
ENDBRANCH   7  18
ENDBRANCH   4   6
BRANCH   1  26
ATOM     20  C   UNL     1       3.263   7.813  17.669  0.00  0.00    +0.000 C 
ATOM     21  C   UNL     1       2.953   6.624  18.536  0.00  0.00    +0.000 A 
ATOM     22  C   UNL     1       3.492   5.383  18.147  0.00  0.00    +0.000 A 
ATOM     23  C   UNL     1       3.312   4.238  18.922  0.00  0.00    +0.000 A 
ATOM     24  C   UNL     1       2.590   4.311  20.108  0.00  0.00    +0.000 A 
ATOM     25  C   UNL     1       2.041   5.527  20.514  0.00  0.00    +0.000 A 
ATOM     26  C   UNL     1       2.206   6.690  19.737  0.00  0.00    +0.000 A 
ENDBRANCH   1  26
BRANCH   3  27
ATOM     27  C   UNL     1       0.088  10.055  22.662  0.00  0.00    +0.000 C 
ATOM     28  O   UNL     1       0.362   9.688  23.801  0.00  0.00    +0.000 OA
ENDBRANCH   3  27
TORSDOF 4
ENDMDL
MODEL 5
REMARK VINA RESULT:      -7.5      5.442      8.693
REMARK  Name = 
REMARK  6 active torsions:
REMARK  status: ('A' for Active; 'I' for Inactive)
REMARK    1  A    between atoms: C_1  and  C_2
REMARK    2  A    between atoms: C_7  and  N_8
REMARK    3  A    between atoms: C_10  and  C_11
REMARK    4  A    between atoms: C_13  and  C_14
REMARK    5  A    between atoms: C_15  and  O_16
REMARK    6  A    between atoms: C_20  and  C_21
REMARK                            x       y       z     vdW  Elec       q    Type
REMARK                         _______ _______ _______ _____ _____    ______ ____
ROOT
ATOM      1  N   UNL     1       1.909   7.812  19.611  0.00  0.00    +0.000 N 
ATOM      2  C   UNL     1       1.459   7.886  20.903  0.00  0.00    +0.000 A 
ATOM      3  C   UNL     1       0.860   9.114  21.068  0.00  0.00    +0.000 A 
ATOM      4  C   UNL     1       0.864   9.694  19.767  0.00  0.00    +0.000 A 
ATOM      5  N   UNL     1       1.619   8.952  18.932  0.00  0.00    +0.000 NA
ENDROOT
BRANCH   4   6
ATOM      6  C   UNL     1       0.234  10.933  19.269  0.00  0.00    +0.000 A 
ATOM      7  C   UNL     1      -0.900  10.885  18.443  0.00  0.00    +0.000 A 
ATOM      8  C   UNL     1      -1.495  12.048  17.961  0.00  0.00    +0.000 A 
ATOM      9  C   UNL     1      -0.966  13.299  18.289  0.00  0.00    +0.000 A 
ATOM     10  C   UNL     1       0.151  13.408  19.124  0.00  0.00    +0.000 A 
ATOM     11  C   UNL     1       0.783  14.690  19.488  0.00  0.00    +0.000 A 
ATOM     12  C   UNL     1       0.289  16.017  18.989  0.00  0.00    +0.000 C 
ATOM     13  C   UNL     1       1.865  14.675  20.281  0.00  0.00    +0.000 A 
ATOM     14  C   UNL     1       2.435  13.455  20.851  0.00  0.00    +0.000 A 
ATOM     15  O   UNL     1       3.444  13.483  21.542  0.00  0.00    +0.000 OA
ATOM     16  O   UNL     1       1.776  12.281  20.547  0.00  0.00    +0.000 OA
ATOM     17  C   UNL     1       0.708  12.214  19.621  0.00  0.00    +0.000 A 
BRANCH   7  18
ATOM     18  O   UNL     1      -1.494   9.709  18.066  0.00  0.00    +0.000 OA
ATOM     19  H   UNL     1      -2.449   9.804  18.275  0.00  0.00    +0.000 HD
ENDBRANCH   7  18
ENDBRANCH   4   6
BRANCH   1  26
ATOM     20  C   UNL     1       1.406   4.962  20.495  0.00  0.00    +0.000 C 
ATOM     21  C   UNL     1       2.396   5.375  19.441  0.00  0.00    +0.000 A 
ATOM     22  C   UNL     1       3.130   4.354  18.809  0.00  0.00    +0.000 A 
ATOM     23  C   UNL     1       4.024   4.635  17.777  0.00  0.00    +0.000 A 
ATOM     24  C   UNL     1       4.200   5.947  17.350  0.00  0.00    +0.000 A 
ATOM     25  C   UNL     1       3.489   6.978  17.964  0.00  0.00    +0.000 A 
ATOM     26  C   UNL     1       2.589   6.711  19.014  0.00  0.00    +0.000 A 
ENDBRANCH   1  26
BRANCH   3  27
ATOM     27  C   UNL     1       0.371   9.613  22.335  0.00  0.00    +0.000 C 
ATOM     28  O   UNL     1       1.059   9.661  23.350  0.00  0.00    +0.000 OA
ENDBRANCH   3  27
TORSDOF 4
ENDMDL
MODEL 6
REMARK VINA RESULT:      -7.5      7.182     10.349
REMARK  Name = 
REMARK  6 active torsions:
REMARK  status: ('A' for Active; 'I' for Inactive)
REMARK    1  A    between atoms: C_1  and  C_2
REMARK    2  A    between atoms: C_7  and  N_8
REMARK    3  A    between atoms: C_10  and  C_11
REMARK    4  A    between atoms: C_13  and  C_14
REMARK    5  A    between atoms: C_15  and  O_16
REMARK    6  A    between atoms: C_20  and  C_21
REMARK                            x       y       z     vdW  Elec       q    Type
REMARK                         _______ _______ _______ _____ _____    ______ ____
ROOT
ATOM      1  N   UNL     1       0.757  10.337  19.147  0.00  0.00    +0.000 N 
ATOM      2  C   UNL     1       1.298  11.595  19.162  0.00  0.00    +0.000 A 
ATOM      3  C   UNL     1       0.264  12.494  19.294  0.00  0.00    +0.000 A 
ATOM      4  C   UNL     1      -0.893  11.685  19.491  0.00  0.00    +0.000 A 
ATOM      5  N   UNL     1      -0.595  10.389  19.266  0.00  0.00    +0.000 NA
ENDROOT
BRANCH   4   6
ATOM      6  C   UNL     1      -2.277  12.062  19.839  0.00  0.00    +0.000 A 
ATOM      7  C   UNL     1      -2.592  12.565  21.111  0.00  0.00    +0.000 A 
ATOM      8  C   UNL     1      -3.896  12.914  21.450  0.00  0.00    +0.000 A 
ATOM      9  C   UNL     1      -4.930  12.763  20.522  0.00  0.00    +0.000 A 
ATOM     10  C   UNL     1      -4.672  12.285  19.233  0.00  0.00    +0.000 A 
ATOM     11  C   UNL     1      -5.715  12.071  18.212  0.00  0.00    +0.000 A 
ATOM     12  C   UNL     1      -7.171  12.342  18.460  0.00  0.00    +0.000 C 
ATOM     13  C   UNL     1      -5.357  11.588  17.013  0.00  0.00    +0.000 A 
ATOM     14  C   UNL     1      -3.973  11.302  16.636  0.00  0.00    +0.000 A 
ATOM     15  O   UNL     1      -3.693  10.830  15.543  0.00  0.00    +0.000 OA
ATOM     16  O   UNL     1      -3.016  11.582  17.591  0.00  0.00    +0.000 OA
ATOM     17  C   UNL     1      -3.337  11.974  18.912  0.00  0.00    +0.000 A 
BRANCH   7  18
ATOM     18  O   UNL     1      -1.649  12.750  22.088  0.00  0.00    +0.000 OA
ATOM     19  H   UNL     1      -2.097  12.562  22.942  0.00  0.00    +0.000 HD
ENDBRANCH   7  18
ENDBRANCH   4   6
BRANCH   1  26
ATOM     20  C   UNL     1       0.925   8.363  21.435  0.00  0.00    +0.000 C 
ATOM     21  C   UNL     1       1.596   8.193  20.099  0.00  0.00    +0.000 A 
ATOM     22  C   UNL     1       2.344   7.017  19.897  0.00  0.00    +0.000 A 
ATOM     23  C   UNL     1       2.947   6.743  18.671  0.00  0.00    +0.000 A 
ATOM     24  C   UNL     1       2.813   7.640  17.616  0.00  0.00    +0.000 A 
ATOM     25  C   UNL     1       2.082   8.814  17.792  0.00  0.00    +0.000 A 
ATOM     26  C   UNL     1       1.474   9.110  19.028  0.00  0.00    +0.000 A 
ENDBRANCH   1  26
BRANCH   3  27
ATOM     27  C   UNL     1       0.425  13.929  19.225  0.00  0.00    +0.000 C 
ATOM     28  O   UNL     1       0.092  14.689  20.129  0.00  0.00    +0.000 OA
ENDBRANCH   3  27
TORSDOF 4
ENDMDL
MODEL 7
REMARK VINA RESULT:      -7.3      8.180     11.235
REMARK  Name = 
REMARK  6 active torsions:
REMARK  status: ('A' for Active; 'I' for Inactive)
REMARK    1  A    between atoms: C_1  and  C_2
REMARK    2  A    between atoms: C_7  and  N_8
REMARK    3  A    between atoms: C_10  and  C_11
REMARK    4  A    between atoms: C_13  and  C_14
REMARK    5  A    between atoms: C_15  and  O_16
REMARK    6  A    between atoms: C_20  and  C_21
REMARK                            x       y       z     vdW  Elec       q    Type
REMARK                         _______ _______ _______ _____ _____    ______ ____
ROOT
ATOM      1  N   UNL     1      -0.189  10.876  19.465  0.00  0.00    +0.000 N 
ATOM      2  C   UNL     1       0.161  12.114  19.937  0.00  0.00    +0.000 A 
ATOM      3  C   UNL     1      -0.973  12.895  19.944  0.00  0.00    +0.000 A 
ATOM      4  C   UNL     1      -2.025  12.005  19.580  0.00  0.00    +0.000 A 
ATOM      5  N   UNL     1      -1.514  10.828  19.166  0.00  0.00    +0.000 NA
ENDROOT
BRANCH   4   6
ATOM      6  C   UNL     1      -3.487  12.211  19.557  0.00  0.00    +0.000 A 
ATOM      7  C   UNL     1      -4.210  12.125  18.357  0.00  0.00    +0.000 A 
ATOM      8  C   UNL     1      -5.588  12.327  18.326  0.00  0.00    +0.000 A 
ATOM      9  C   UNL     1      -6.284  12.627  19.499  0.00  0.00    +0.000 A 
ATOM     10  C   UNL     1      -5.617  12.707  20.727  0.00  0.00    +0.000 A 
ATOM     11  C   UNL     1      -6.279  13.050  22.000  0.00  0.00    +0.000 A 
ATOM     12  C   UNL     1      -7.745  13.357  22.104  0.00  0.00    +0.000 C 
ATOM     13  C   UNL     1      -5.538  13.117  23.116  0.00  0.00    +0.000 A 
ATOM     14  C   UNL     1      -4.106  12.823  23.156  0.00  0.00    +0.000 A 
ATOM     15  O   UNL     1      -3.460  12.930  24.190  0.00  0.00    +0.000 OA
ATOM     16  O   UNL     1      -3.534  12.436  21.961  0.00  0.00    +0.000 OA
ATOM     17  C   UNL     1      -4.230  12.464  20.729  0.00  0.00    +0.000 A 
BRANCH   7  18
ATOM     18  O   UNL     1      -3.620  11.833  17.155  0.00  0.00    +0.000 OA
ATOM     19  H   UNL     1      -3.653  10.856  17.062  0.00  0.00    +0.000 HD
ENDBRANCH   7  18
ENDBRANCH   4   6
BRANCH   1  26
ATOM     20  C   UNL     1       0.378   8.943  21.724  0.00  0.00    +0.000 C 
ATOM     21  C   UNL     1       0.987   8.867  20.351  0.00  0.00    +0.000 A 
ATOM     22  C   UNL     1       1.876   7.805  20.097  0.00  0.00    +0.000 A 
ATOM     23  C   UNL     1       2.440   7.616  18.836  0.00  0.00    +0.000 A 
ATOM     24  C   UNL     1       2.124   8.486  17.798  0.00  0.00    +0.000 A 
ATOM     25  C   UNL     1       1.251   9.549  18.025  0.00  0.00    +0.000 A 
ATOM     26  C   UNL     1       0.680   9.759  19.295  0.00  0.00    +0.000 A 
ENDBRANCH   1  26
BRANCH   3  27
ATOM     27  C   UNL     1      -0.981  14.306  20.261  0.00  0.00    +0.000 C 
ATOM     28  O   UNL     1      -0.220  14.818  21.076  0.00  0.00    +0.000 OA
ENDBRANCH   3  27
TORSDOF 4
ENDMDL
MODEL 8
REMARK VINA RESULT:      -7.2      8.722     12.788
REMARK  Name = 
REMARK  6 active torsions:
REMARK  status: ('A' for Active; 'I' for Inactive)
REMARK    1  A    between atoms: C_1  and  C_2
REMARK    2  A    between atoms: C_7  and  N_8
REMARK    3  A    between atoms: C_10  and  C_11
REMARK    4  A    between atoms: C_13  and  C_14
REMARK    5  A    between atoms: C_15  and  O_16
REMARK    6  A    between atoms: C_20  and  C_21
REMARK                            x       y       z     vdW  Elec       q    Type
REMARK                         _______ _______ _______ _____ _____    ______ ____
ROOT
ATOM      1  N   UNL     1      -3.730  13.367  22.090  0.00  0.00    +0.000 N 
ATOM      2  C   UNL     1      -2.770  14.336  22.222  0.00  0.00    +0.000 A 
ATOM      3  C   UNL     1      -1.606  13.849  21.671  0.00  0.00    +0.000 A 
ATOM      4  C   UNL     1      -1.976  12.602  21.091  0.00  0.00    +0.000 A 
ATOM      5  N   UNL     1      -3.227  12.269  21.470  0.00  0.00    +0.000 NA
ENDROOT
BRANCH   4   6
ATOM      6  C   UNL     1      -1.207  11.679  20.233  0.00  0.00    +0.000 A 
ATOM      7  C   UNL     1      -1.269  11.773  18.834  0.00  0.00    +0.000 A 
ATOM      8  C   UNL     1      -0.554  10.900  18.017  0.00  0.00    +0.000 A 
ATOM      9  C   UNL     1       0.243   9.900  18.580  0.00  0.00    +0.000 A 
ATOM     10  C   UNL     1       0.357   9.772  19.968  0.00  0.00    +0.000 A 
ATOM     11  C   UNL     1       1.153   8.723  20.633  0.00  0.00    +0.000 A 
ATOM     12  C   UNL     1       1.921   7.676  19.880  0.00  0.00    +0.000 C 
ATOM     13  C   UNL     1       1.175   8.682  21.974  0.00  0.00    +0.000 A 
ATOM     14  C   UNL     1       0.488   9.652  22.826  0.00  0.00    +0.000 A 
ATOM     15  O   UNL     1       0.507   9.558  24.046  0.00  0.00    +0.000 OA
ATOM     16  O   UNL     1      -0.187  10.661  22.170  0.00  0.00    +0.000 OA
ATOM     17  C   UNL     1      -0.352  10.691  20.765  0.00  0.00    +0.000 A 
BRANCH   7  18
ATOM     18  O   UNL     1      -2.019  12.720  18.186  0.00  0.00    +0.000 OA
ATOM     19  H   UNL     1      -2.403  13.292  18.886  0.00  0.00    +0.000 HD
ENDBRANCH   7  18
ENDBRANCH   4   6
BRANCH   1  26
ATOM     20  C   UNL     1      -4.596  12.372  24.814  0.00  0.00    +0.000 C 
ATOM     21  C   UNL     1      -5.516  12.960  23.779  0.00  0.00    +0.000 A 
ATOM     22  C   UNL     1      -6.879  13.068  24.112  0.00  0.00    +0.000 A 
ATOM     23  C   UNL     1      -7.794  13.657  23.242  0.00  0.00    +0.000 A 
ATOM     24  C   UNL     1      -7.365  14.156  22.017  0.00  0.00    +0.000 A 
ATOM     25  C   UNL     1      -6.021  14.056  21.660  0.00  0.00    +0.000 A 
ATOM     26  C   UNL     1      -5.085  13.455  22.524  0.00  0.00    +0.000 A 
ENDBRANCH   1  26
BRANCH   3  27
ATOM     27  C   UNL     1      -0.334  14.535  21.731  0.00  0.00    +0.000 C 
ATOM     28  O   UNL     1       0.231  14.817  22.783  0.00  0.00    +0.000 OA
ENDBRANCH   3  27
TORSDOF 4
ENDMDL
MODEL 9
REMARK VINA RESULT:      -7.2      7.517     10.581
REMARK  Name = 
REMARK  6 active torsions:
REMARK  status: ('A' for Active; 'I' for Inactive)
REMARK    1  A    between atoms: C_1  and  C_2
REMARK    2  A    between atoms: C_7  and  N_8
REMARK    3  A    between atoms: C_10  and  C_11
REMARK    4  A    between atoms: C_13  and  C_14
REMARK    5  A    between atoms: C_15  and  O_16
REMARK    6  A    between atoms: C_20  and  C_21
REMARK                            x       y       z     vdW  Elec       q    Type
REMARK                         _______ _______ _______ _____ _____    ______ ____
ROOT
ATOM      1  N   UNL     1       0.519  10.453  19.063  0.00  0.00    +0.000 N 
ATOM      2  C   UNL     1       1.017  11.717  18.882  0.00  0.00    +0.000 A 
ATOM      3  C   UNL     1      -0.035  12.599  18.983  0.00  0.00    +0.000 A 
ATOM      4  C   UNL     1      -1.145  11.793  19.368  0.00  0.00    +0.000 A 
ATOM      5  N   UNL     1      -0.821  10.487  19.280  0.00  0.00    +0.000 NA
ENDROOT
BRANCH   4   6
ATOM      6  C   UNL     1      -2.512  12.177  19.774  0.00  0.00    +0.000 A 
ATOM      7  C   UNL     1      -3.609  11.943  18.930  0.00  0.00    +0.000 A 
ATOM      8  C   UNL     1      -4.900  12.310  19.301  0.00  0.00    +0.000 A 
ATOM      9  C   UNL     1      -5.130  12.931  20.532  0.00  0.00    +0.000 A 
ATOM     10  C   UNL     1      -4.077  13.172  21.421  0.00  0.00    +0.000 A 
ATOM     11  C   UNL     1      -4.239  13.849  22.721  0.00  0.00    +0.000 A 
ATOM     12  C   UNL     1      -5.560  14.358  23.221  0.00  0.00    +0.000 C 
ATOM     13  C   UNL     1      -3.154  14.046  23.487  0.00  0.00    +0.000 A 
ATOM     14  C   UNL     1      -1.814  13.583  23.127  0.00  0.00    +0.000 A 
ATOM     15  O   UNL     1      -0.846  13.814  23.839  0.00  0.00    +0.000 OA
ATOM     16  O   UNL     1      -1.713  12.891  21.937  0.00  0.00    +0.000 OA
ATOM     17  C   UNL     1      -2.790  12.757  21.029  0.00  0.00    +0.000 A 
BRANCH   7  18
ATOM     18  O   UNL     1      -3.487  11.339  17.706  0.00  0.00    +0.000 OA
ATOM     19  H   UNL     1      -3.750  12.012  17.040  0.00  0.00    +0.000 HD
ENDBRANCH   7  18
ENDBRANCH   4   6
BRANCH   1  26
ATOM     20  C   UNL     1       0.724   8.663  21.495  0.00  0.00    +0.000 C 
ATOM     21  C   UNL     1       1.405   8.409  20.178  0.00  0.00    +0.000 A 
ATOM     22  C   UNL     1       2.183   7.241  20.068  0.00  0.00    +0.000 A 
ATOM     23  C   UNL     1       2.799   6.890  18.868  0.00  0.00    +0.000 A 
ATOM     24  C   UNL     1       2.648   7.700  17.748  0.00  0.00    +0.000 A 
ATOM     25  C   UNL     1       1.888   8.866  17.832  0.00  0.00    +0.000 A 
ATOM     26  C   UNL     1       1.266   9.239  19.040  0.00  0.00    +0.000 A 
ENDBRANCH   1  26
BRANCH   3  27
ATOM     27  C   UNL     1       0.072  14.018  18.726  0.00  0.00    +0.000 C 
ATOM     28  O   UNL     1       0.737  14.781  19.420  0.00  0.00    +0.000 OA
ENDBRANCH   3  27
TORSDOF 4
ENDMDL
