MODEL 1
REMARK VINA RESULT:      -9.2      0.000      0.000
REMARK  Name = 
REMARK  7 active torsions:
REMARK  status: ('A' for Active; 'I' for Inactive)
REMARK    1  A    between atoms: C_5  and  C_6
REMARK    2  A    between atoms: C_6  and  C_7
REMARK    3  A    between atoms: C_7  and  N_8
REMARK    4  A    between atoms: N_8  and  C_9
REMARK    5  A    between atoms: C_12  and  C_13
REMARK    6  A    between atoms: C_13  and  C_14
REMARK    7  A    between atoms: C_13  and  C_20
REMARK                            x       y       z     vdW  Elec       q    Type
REMARK                         _______ _______ _______ _____ _____    ______ ____
ROOT
ATOM      1  C   UNL     1       5.879   4.569  16.250  0.00  0.00    +0.000 C 
ATOM      2  C   UNL     1       5.277   5.999  16.155  0.00  0.00    +0.000 C 
ATOM      3  C   UNL     1       5.336   6.639  17.523  0.00  0.00    +0.000 C 
ATOM      4  C   UNL     1       4.556   5.816  18.545  0.00  0.00    +0.000 C 
ATOM      5  N   UNL     1       5.051   4.411  18.544  0.00  0.00    +0.000 NA
ATOM      6  C   UNL     1       5.020   3.747  17.220  0.00  0.00    +0.000 C 
ATOM      7  H   UNL     1       4.566   3.826  19.262  0.00  0.00    +0.000 HD
ENDROOT
BRANCH   1   8
ATOM      8  N   UNL     1       6.074   3.955  14.906  0.00  0.00    +0.000 NA
ATOM      9  H   UNL     1       6.452   2.986  15.032  0.00  0.00    +0.000 HD
BRANCH   8  10
ATOM     10  C   UNL     1       7.128   4.759  14.261  0.00  0.00    +0.000 C 
BRANCH  10  11
ATOM     11  C   UNL     1       7.036   5.141  12.783  0.00  0.00    +0.000 C 
BRANCH  11  16
ATOM     12  F   UNL     1       5.812  -0.024  10.732  0.00  0.00    +0.000 F 
ATOM     13  C   UNL     1       6.107   1.229  11.152  0.00  0.00    +0.000 A 
ATOM     14  C   UNL     1       5.084   2.092  11.534  0.00  0.00    +0.000 A 
ATOM     15  C   UNL     1       5.384   3.373  11.992  0.00  0.00    +0.000 A 
ATOM     16  C   UNL     1       6.725   3.807  12.099  0.00  0.00    +0.000 A 
ATOM     17  C   UNL     1       7.752   2.936  11.694  0.00  0.00    +0.000 A 
ATOM     18  C   UNL     1       7.442   1.654  11.219  0.00  0.00    +0.000 A 
ENDBRANCH  11  16
ENDBRANCH  10  11
ENDBRANCH   8  10
ENDBRANCH   1   8
BRANCH   4  19
ATOM     19  C   UNL     1       3.010   5.888  18.358  0.00  0.00    +0.000 C 
BRANCH  19  20
ATOM     20  C   UNL     1       2.380   4.774  19.175  0.00  0.00    +0.000 A 
ATOM     21  C   UNL     1       1.500   3.834  18.590  0.00  0.00    +0.000 A 
ATOM     22  C   UNL     1       0.874   2.865  19.372  0.00  0.00    +0.000 A 
ATOM     23  C   UNL     1       1.111   2.818  20.741  0.00  0.00    +0.000 A 
ATOM     24  C   UNL     1       1.979   3.736  21.335  0.00  0.00    +0.000 A 
ATOM     25  C   UNL     1       2.611   4.710  20.558  0.00  0.00    +0.000 A 
ENDBRANCH  19  20
BRANCH  19  26
ATOM     26  C   UNL     1       2.392   7.259  18.667  0.00  0.00    +0.000 A 
ATOM     27  C   UNL     1       2.259   8.201  17.623  0.00  0.00    +0.000 A 
ATOM     28  C   UNL     1       1.681   9.454  17.852  0.00  0.00    +0.000 A 
ATOM     29  C   UNL     1       1.230   9.792  19.127  0.00  0.00    +0.000 A 
ATOM     30  C   UNL     1       1.369   8.884  20.178  0.00  0.00    +0.000 A 
ATOM     31  C   UNL     1       1.949   7.631  19.955  0.00  0.00    +0.000 A 
ENDBRANCH  19  26
ENDBRANCH   4  19
TORSDOF 7
ENDMDL
MODEL 2
REMARK VINA RESULT:      -9.0      0.341      1.311
REMARK  Name = 
REMARK  7 active torsions:
REMARK  status: ('A' for Active; 'I' for Inactive)
REMARK    1  A    between atoms: C_5  and  C_6
REMARK    2  A    between atoms: C_6  and  C_7
REMARK    3  A    between atoms: C_7  and  N_8
REMARK    4  A    between atoms: N_8  and  C_9
REMARK    5  A    between atoms: C_12  and  C_13
REMARK    6  A    between atoms: C_13  and  C_14
REMARK    7  A    between atoms: C_13  and  C_20
REMARK                            x       y       z     vdW  Elec       q    Type
REMARK                         _______ _______ _______ _____ _____    ______ ____
ROOT
ATOM      1  C   UNL     1       6.206   4.500  16.642  0.00  0.00    +0.000 C 
ATOM      2  C   UNL     1       5.660   5.947  16.485  0.00  0.00    +0.000 C 
ATOM      3  C   UNL     1       5.534   6.567  17.858  0.00  0.00    +0.000 C 
ATOM      4  C   UNL     1       4.592   5.751  18.740  0.00  0.00    +0.000 C 
ATOM      5  N   UNL     1       5.045   4.333  18.787  0.00  0.00    +0.000 NA
ATOM      6  C   UNL     1       5.193   3.689  17.461  0.00  0.00    +0.000 C 
ATOM      7  H   UNL     1       4.445   3.752  19.415  0.00  0.00    +0.000 HD
ENDROOT
BRANCH   1   8
ATOM      8  N   UNL     1       6.581   3.900  15.330  0.00  0.00    +0.000 NA
ATOM      9  H   UNL     1       7.622   3.784  15.301  0.00  0.00    +0.000 HD
BRANCH   8  10
ATOM     10  C   UNL     1       6.221   4.913  14.322  0.00  0.00    +0.000 C 
BRANCH  10  11
ATOM     11  C   UNL     1       7.038   5.076  13.040  0.00  0.00    +0.000 C 
BRANCH  11  16
ATOM     12  F   UNL     1       5.788   0.083  10.614  0.00  0.00    +0.000 F 
ATOM     13  C   UNL     1       6.089   1.300  11.125  0.00  0.00    +0.000 A 
ATOM     14  C   UNL     1       5.070   2.128  11.592  0.00  0.00    +0.000 A 
ATOM     15  C   UNL     1       5.376   3.370  12.143  0.00  0.00    +0.000 A 
ATOM     16  C   UNL     1       6.718   3.799  12.260  0.00  0.00    +0.000 A 
ATOM     17  C   UNL     1       7.739   2.965  11.769  0.00  0.00    +0.000 A 
ATOM     18  C   UNL     1       7.424   1.724  11.201  0.00  0.00    +0.000 A 
ENDBRANCH  11  16
ENDBRANCH  10  11
ENDBRANCH   8  10
ENDBRANCH   1   8
BRANCH   4  19
ATOM     19  C   UNL     1       3.092   5.869  18.330  0.00  0.00    +0.000 C 
BRANCH  19  20
ATOM     20  C   UNL     1       2.321   4.763  19.027  0.00  0.00    +0.000 A 
ATOM     21  C   UNL     1       2.393   4.581  20.428  0.00  0.00    +0.000 A 
ATOM     22  C   UNL     1       1.737   3.514  21.040  0.00  0.00    +0.000 A 
ATOM     23  C   UNL     1       1.005   2.616  20.272  0.00  0.00    +0.000 A 
ATOM     24  C   UNL     1       0.920   2.783  18.888  0.00  0.00    +0.000 A 
ATOM     25  C   UNL     1       1.574   3.849  18.267  0.00  0.00    +0.000 A 
ENDBRANCH  19  20
BRANCH  19  26
ATOM     26  C   UNL     1       2.471   7.252  18.567  0.00  0.00    +0.000 A 
ATOM     27  C   UNL     1       1.966   7.565  19.849  0.00  0.00    +0.000 A 
ATOM     28  C   UNL     1       1.413   8.821  20.119  0.00  0.00    +0.000 A 
ATOM     29  C   UNL     1       1.347   9.786  19.115  0.00  0.00    +0.000 A 
ATOM     30  C   UNL     1       1.823   9.491  17.836  0.00  0.00    +0.000 A 
ATOM     31  C   UNL     1       2.375   8.236  17.560  0.00  0.00    +0.000 A 
ENDBRANCH  19  26
ENDBRANCH   4  19
TORSDOF 7
ENDMDL
MODEL 3
REMARK VINA RESULT:      -8.6      0.861      1.275
REMARK  Name = 
REMARK  7 active torsions:
REMARK  status: ('A' for Active; 'I' for Inactive)
REMARK    1  A    between atoms: C_5  and  C_6
REMARK    2  A    between atoms: C_6  and  C_7
REMARK    3  A    between atoms: C_7  and  N_8
REMARK    4  A    between atoms: N_8  and  C_9
REMARK    5  A    between atoms: C_12  and  C_13
REMARK    6  A    between atoms: C_13  and  C_14
REMARK    7  A    between atoms: C_13  and  C_20
REMARK                            x       y       z     vdW  Elec       q    Type
REMARK                         _______ _______ _______ _____ _____    ______ ____
ROOT
ATOM      1  C   UNL     1       6.918   5.167  17.038  0.00  0.00    +0.000 C 
ATOM      2  C   UNL     1       6.177   6.482  17.408  0.00  0.00    +0.000 C 
ATOM      3  C   UNL     1       5.746   6.403  18.854  0.00  0.00    +0.000 C 
ATOM      4  C   UNL     1       4.824   5.207  19.084  0.00  0.00    +0.000 C 
ATOM      5  N   UNL     1       5.488   3.960  18.611  0.00  0.00    +0.000 NA
ATOM      6  C   UNL     1       5.937   3.998  17.200  0.00  0.00    +0.000 C 
ATOM      7  H   UNL     1       4.901   3.114  18.790  0.00  0.00    +0.000 HD
ENDROOT
BRANCH   1   8
ATOM      8  N   UNL     1       7.580   5.254  15.706  0.00  0.00    +0.000 NA
ATOM      9  H   UNL     1       7.543   6.249  15.379  0.00  0.00    +0.000 HD
BRANCH   8  10
ATOM     10  C   UNL     1       6.734   4.459  14.798  0.00  0.00    +0.000 C 
BRANCH  10  11
ATOM     11  C   UNL     1       6.190   5.057  13.500  0.00  0.00    +0.000 C 
BRANCH  11  16
ATOM     12  F   UNL     1       6.162   0.311  10.360  0.00  0.00    +0.000 F 
ATOM     13  C   UNL     1       6.174   1.479  11.046  0.00  0.00    +0.000 A 
ATOM     14  C   UNL     1       4.975   2.047  11.467  0.00  0.00    +0.000 A 
ATOM     15  C   UNL     1       4.982   3.234  12.197  0.00  0.00    +0.000 A 
ATOM     16  C   UNL     1       6.200   3.865  12.540  0.00  0.00    +0.000 A 
ATOM     17  C   UNL     1       7.405   3.294  12.094  0.00  0.00    +0.000 A 
ATOM     18  C   UNL     1       7.390   2.108  11.347  0.00  0.00    +0.000 A 
ENDBRANCH  11  16
ENDBRANCH  10  11
ENDBRANCH   8  10
ENDBRANCH   1   8
BRANCH   4  19
ATOM     19  C   UNL     1       3.405   5.383  18.462  0.00  0.00    +0.000 C 
BRANCH  19  20
ATOM     20  C   UNL     1       2.521   4.258  18.971  0.00  0.00    +0.000 A 
ATOM     21  C   UNL     1       2.465   3.924  20.344  0.00  0.00    +0.000 A 
ATOM     22  C   UNL     1       1.705   2.841  20.781  0.00  0.00    +0.000 A 
ATOM     23  C   UNL     1       0.995   2.075  19.864  0.00  0.00    +0.000 A 
ATOM     24  C   UNL     1       1.037   2.392  18.504  0.00  0.00    +0.000 A 
ATOM     25  C   UNL     1       1.795   3.476  18.059  0.00  0.00    +0.000 A 
ENDBRANCH  19  20
BRANCH  19  26
ATOM     26  C   UNL     1       2.776   6.765  18.685  0.00  0.00    +0.000 A 
ATOM     27  C   UNL     1       2.758   7.689  17.617  0.00  0.00    +0.000 A 
ATOM     28  C   UNL     1       2.174   8.952  17.766  0.00  0.00    +0.000 A 
ATOM     29  C   UNL     1       1.603   9.318  18.983  0.00  0.00    +0.000 A 
ATOM     30  C   UNL     1       1.627   8.427  20.058  0.00  0.00    +0.000 A 
ATOM     31  C   UNL     1       2.211   7.165  19.915  0.00  0.00    +0.000 A 
ENDBRANCH  19  26
ENDBRANCH   4  19
TORSDOF 7
ENDMDL
MODEL 4
REMARK VINA RESULT:      -8.4      1.330      3.960
REMARK  Name = 
REMARK  7 active torsions:
REMARK  status: ('A' for Active; 'I' for Inactive)
REMARK    1  A    between atoms: C_5  and  C_6
REMARK    2  A    between atoms: C_6  and  C_7
REMARK    3  A    between atoms: C_7  and  N_8
REMARK    4  A    between atoms: N_8  and  C_9
REMARK    5  A    between atoms: C_12  and  C_13
REMARK    6  A    between atoms: C_13  and  C_14
REMARK    7  A    between atoms: C_13  and  C_20
REMARK                            x       y       z     vdW  Elec       q    Type
REMARK                         _______ _______ _______ _____ _____    ______ ____
ROOT
ATOM      1  C   UNL     1       5.554   4.983  17.408  0.00  0.00    +0.000 C 
ATOM      2  C   UNL     1       4.331   4.161  17.902  0.00  0.00    +0.000 C 
ATOM      3  C   UNL     1       3.067   4.881  17.489  0.00  0.00    +0.000 C 
ATOM      4  C   UNL     1       3.021   6.287  18.084  0.00  0.00    +0.000 C 
ATOM      5  N   UNL     1       4.257   7.032  17.714  0.00  0.00    +0.000 NA
ATOM      6  C   UNL     1       5.520   6.357  18.090  0.00  0.00    +0.000 C 
ATOM      7  H   UNL     1       4.242   8.014  18.071  0.00  0.00    +0.000 HD
ENDROOT
BRANCH   1   8
ATOM      8  N   UNL     1       6.832   4.232  17.565  0.00  0.00    +0.000 NA
ATOM      9  H   UNL     1       7.414   4.712  18.291  0.00  0.00    +0.000 HD
BRANCH   8  10
ATOM     10  C   UNL     1       7.529   4.377  16.274  0.00  0.00    +0.000 C 
BRANCH  10  11
ATOM     11  C   UNL     1       7.171   5.505  15.306  0.00  0.00    +0.000 C 
BRANCH  11  16
ATOM     12  F   UNL     1       5.311   2.261  11.016  0.00  0.00    +0.000 F 
ATOM     13  C   UNL     1       5.734   3.092  11.998  0.00  0.00    +0.000 A 
ATOM     14  C   UNL     1       4.908   3.355  13.088  0.00  0.00    +0.000 A 
ATOM     15  C   UNL     1       5.348   4.186  14.115  0.00  0.00    +0.000 A 
ATOM     16  C   UNL     1       6.641   4.755  14.081  0.00  0.00    +0.000 A 
ATOM     17  C   UNL     1       7.463   4.499  12.968  0.00  0.00    +0.000 A 
ATOM     18  C   UNL     1       7.008   3.674  11.931  0.00  0.00    +0.000 A 
ENDBRANCH  11  16
ENDBRANCH  10  11
ENDBRANCH   8  10
ENDBRANCH   1   8
BRANCH   4  19
ATOM     19  C   UNL     1       2.769   6.307  19.622  0.00  0.00    +0.000 C 
BRANCH  19  20
ATOM     20  C   UNL     1       1.911   7.517  19.947  0.00  0.00    +0.000 A 
ATOM     21  C   UNL     1       1.250   7.643  21.191  0.00  0.00    +0.000 A 
ATOM     22  C   UNL     1       0.408   8.725  21.441  0.00  0.00    +0.000 A 
ATOM     23  C   UNL     1       0.207   9.690  20.461  0.00  0.00    +0.000 A 
ATOM     24  C   UNL     1       0.853   9.583  19.228  0.00  0.00    +0.000 A 
ATOM     25  C   UNL     1       1.700   8.503  18.970  0.00  0.00    +0.000 A 
ENDBRANCH  19  20
BRANCH  19  26
ATOM     26  C   UNL     1       2.184   5.008  20.192  0.00  0.00    +0.000 A 
ATOM     27  C   UNL     1       2.832   4.385  21.282  0.00  0.00    +0.000 A 
ATOM     28  C   UNL     1       2.323   3.212  21.849  0.00  0.00    +0.000 A 
ATOM     29  C   UNL     1       1.161   2.636  21.337  0.00  0.00    +0.000 A 
ATOM     30  C   UNL     1       0.516   3.224  20.248  0.00  0.00    +0.000 A 
ATOM     31  C   UNL     1       1.022   4.395  19.675  0.00  0.00    +0.000 A 
ENDBRANCH  19  26
ENDBRANCH   4  19
TORSDOF 7
ENDMDL
MODEL 5
REMARK VINA RESULT:      -8.3      4.520      7.359
REMARK  Name = 
REMARK  7 active torsions:
REMARK  status: ('A' for Active; 'I' for Inactive)
REMARK    1  A    between atoms: C_5  and  C_6
REMARK    2  A    between atoms: C_6  and  C_7
REMARK    3  A    between atoms: C_7  and  N_8
REMARK    4  A    between atoms: N_8  and  C_9
REMARK    5  A    between atoms: C_12  and  C_13
REMARK    6  A    between atoms: C_13  and  C_14
REMARK    7  A    between atoms: C_13  and  C_20
REMARK                            x       y       z     vdW  Elec       q    Type
REMARK                         _______ _______ _______ _____ _____    ______ ____
ROOT
ATOM      1  C   UNL     1       6.414   6.342  17.141  0.00  0.00    +0.000 C 
ATOM      2  C   UNL     1       5.867   5.086  17.875  0.00  0.00    +0.000 C 
ATOM      3  C   UNL     1       4.500   4.757  17.318  0.00  0.00    +0.000 C 
ATOM      4  C   UNL     1       3.539   5.928  17.510  0.00  0.00    +0.000 C 
ATOM      5  N   UNL     1       4.122   7.163  16.915  0.00  0.00    +0.000 NA
ATOM      6  C   UNL     1       5.467   7.516  17.425  0.00  0.00    +0.000 C 
ATOM      7  H   UNL     1       3.472   7.978  16.992  0.00  0.00    +0.000 HD
ENDROOT
BRANCH   1   8
ATOM      8  N   UNL     1       7.847   6.596  17.460  0.00  0.00    +0.000 NA
ATOM      9  H   UNL     1       8.076   6.125  18.367  0.00  0.00    +0.000 HD
BRANCH   8  10
ATOM     10  C   UNL     1       7.944   8.050  17.679  0.00  0.00    +0.000 C 
BRANCH  10  11
ATOM     11  C   UNL     1       8.712   8.618  18.874  0.00  0.00    +0.000 C 
BRANCH  11  16
ATOM     12  F   UNL     1       9.340  14.182  17.858  0.00  0.00    +0.000 F 
ATOM     13  C   UNL     1       9.225  12.845  18.037  0.00  0.00    +0.000 A 
ATOM     14  C   UNL     1      10.137  12.172  18.846  0.00  0.00    +0.000 A 
ATOM     15  C   UNL     1      10.008  10.801  19.056  0.00  0.00    +0.000 A 
ATOM     16  C   UNL     1       8.942  10.078  18.475  0.00  0.00    +0.000 A 
ATOM     17  C   UNL     1       8.035  10.762  17.644  0.00  0.00    +0.000 A 
ATOM     18  C   UNL     1       8.180  12.138  17.425  0.00  0.00    +0.000 A 
ENDBRANCH  11  16
ENDBRANCH  10  11
ENDBRANCH   8  10
ENDBRANCH   1   8
BRANCH   4  19
ATOM     19  C   UNL     1       3.104   6.145  18.991  0.00  0.00    +0.000 C 
BRANCH  19  20
ATOM     20  C   UNL     1       2.242   7.393  19.055  0.00  0.00    +0.000 A 
ATOM     21  C   UNL     1       1.963   8.160  17.900  0.00  0.00    +0.000 A 
ATOM     22  C   UNL     1       1.232   9.343  17.992  0.00  0.00    +0.000 A 
ATOM     23  C   UNL     1       0.772   9.780  19.229  0.00  0.00    +0.000 A 
ATOM     24  C   UNL     1       1.035   9.034  20.379  0.00  0.00    +0.000 A 
ATOM     25  C   UNL     1       1.766   7.848  20.295  0.00  0.00    +0.000 A 
ENDBRANCH  19  20
BRANCH  19  26
ATOM     26  C   UNL     1       2.424   4.933  19.642  0.00  0.00    +0.000 A 
ATOM     27  C   UNL     1       2.772   4.580  20.965  0.00  0.00    +0.000 A 
ATOM     28  C   UNL     1       2.162   3.498  21.607  0.00  0.00    +0.000 A 
ATOM     29  C   UNL     1       1.197   2.744  20.941  0.00  0.00    +0.000 A 
ATOM     30  C   UNL     1       0.851   3.063  19.627  0.00  0.00    +0.000 A 
ATOM     31  C   UNL     1       1.460   4.142  18.979  0.00  0.00    +0.000 A 
ENDBRANCH  19  26
ENDBRANCH   4  19
TORSDOF 7
ENDMDL
MODEL 6
REMARK VINA RESULT:      -8.3      0.835      1.304
REMARK  Name = 
REMARK  7 active torsions:
REMARK  status: ('A' for Active; 'I' for Inactive)
REMARK    1  A    between atoms: C_5  and  C_6
REMARK    2  A    between atoms: C_6  and  C_7
REMARK    3  A    between atoms: C_7  and  N_8
REMARK    4  A    between atoms: N_8  and  C_9
REMARK    5  A    between atoms: C_12  and  C_13
REMARK    6  A    between atoms: C_13  and  C_14
REMARK    7  A    between atoms: C_13  and  C_20
REMARK                            x       y       z     vdW  Elec       q    Type
REMARK                         _______ _______ _______ _____ _____    ______ ____
ROOT
ATOM      1  C   UNL     1       6.769   4.736  17.117  0.00  0.00    +0.000 C 
ATOM      2  C   UNL     1       6.124   6.150  17.085  0.00  0.00    +0.000 C 
ATOM      3  C   UNL     1       5.762   6.548  18.498  0.00  0.00    +0.000 C 
ATOM      4  C   UNL     1       4.786   5.547  19.113  0.00  0.00    +0.000 C 
ATOM      5  N   UNL     1       5.352   4.172  19.028  0.00  0.00    +0.000 NA
ATOM      6  C   UNL     1       5.731   3.744  17.661  0.00  0.00    +0.000 C 
ATOM      7  H   UNL     1       4.728   3.464  19.477  0.00  0.00    +0.000 HD
ENDROOT
BRANCH   1   8
ATOM      8  N   UNL     1       7.367   4.365  15.803  0.00  0.00    +0.000 NA
ATOM      9  H   UNL     1       8.389   4.594  15.825  0.00  0.00    +0.000 HD
BRANCH   8  10
ATOM     10  C   UNL     1       6.733   5.263  14.821  0.00  0.00    +0.000 C 
BRANCH  10  11
ATOM     11  C   UNL     1       5.381   4.920  14.196  0.00  0.00    +0.000 C 
BRANCH  11  16
ATOM     12  F   UNL     1       6.789   1.112  10.209  0.00  0.00    +0.000 F 
ATOM     13  C   UNL     1       6.452   2.069  11.105  0.00  0.00    +0.000 A 
ATOM     14  C   UNL     1       5.123   2.219  11.493  0.00  0.00    +0.000 A 
ATOM     15  C   UNL     1       4.775   3.184  12.435  0.00  0.00    +0.000 A 
ATOM     16  C   UNL     1       5.761   4.005  13.029  0.00  0.00    +0.000 A 
ATOM     17  C   UNL     1       7.098   3.858  12.619  0.00  0.00    +0.000 A 
ATOM     18  C   UNL     1       7.440   2.897  11.658  0.00  0.00    +0.000 A 
ENDBRANCH  11  16
ENDBRANCH  10  11
ENDBRANCH   8  10
ENDBRANCH   1   8
BRANCH   4  19
ATOM     19  C   UNL     1       3.350   5.623  18.511  0.00  0.00    +0.000 C 
BRANCH  19  20
ATOM     20  C   UNL     1       2.521   4.504  19.116  0.00  0.00    +0.000 A 
ATOM     21  C   UNL     1       1.690   3.684  18.318  0.00  0.00    +0.000 A 
ATOM     22  C   UNL     1       0.880   2.711  18.902  0.00  0.00    +0.000 A 
ATOM     23  C   UNL     1       0.884   2.541  20.282  0.00  0.00    +0.000 A 
ATOM     24  C   UNL     1       1.701   3.340  21.085  0.00  0.00    +0.000 A 
ATOM     25  C   UNL     1       2.515   4.316  20.507  0.00  0.00    +0.000 A 
ENDBRANCH  19  20
BRANCH  19  26
ATOM     26  C   UNL     1       2.670   6.992  18.649  0.00  0.00    +0.000 A 
ATOM     27  C   UNL     1       2.083   7.343  19.885  0.00  0.00    +0.000 A 
ATOM     28  C   UNL     1       1.473   8.589  20.065  0.00  0.00    +0.000 A 
ATOM     29  C   UNL     1       1.433   9.505  19.015  0.00  0.00    +0.000 A 
ATOM     30  C   UNL     1       1.989   9.171  17.779  0.00  0.00    +0.000 A 
ATOM     31  C   UNL     1       2.598   7.926  17.593  0.00  0.00    +0.000 A 
ENDBRANCH  19  26
ENDBRANCH   4  19
TORSDOF 7
ENDMDL
MODEL 7
REMARK VINA RESULT:      -8.3      1.229      1.844
REMARK  Name = 
REMARK  7 active torsions:
REMARK  status: ('A' for Active; 'I' for Inactive)
REMARK    1  A    between atoms: C_5  and  C_6
REMARK    2  A    between atoms: C_6  and  C_7
REMARK    3  A    between atoms: C_7  and  N_8
REMARK    4  A    between atoms: N_8  and  C_9
REMARK    5  A    between atoms: C_12  and  C_13
REMARK    6  A    between atoms: C_13  and  C_14
REMARK    7  A    between atoms: C_13  and  C_20
REMARK                            x       y       z     vdW  Elec       q    Type
REMARK                         _______ _______ _______ _____ _____    ______ ____
ROOT
ATOM      1  C   UNL     1       6.951   5.433  16.701  0.00  0.00    +0.000 C 
ATOM      2  C   UNL     1       6.139   6.667  17.185  0.00  0.00    +0.000 C 
ATOM      3  C   UNL     1       5.789   6.473  18.643  0.00  0.00    +0.000 C 
ATOM      4  C   UNL     1       4.967   5.202  18.842  0.00  0.00    +0.000 C 
ATOM      5  N   UNL     1       5.692   4.036  18.264  0.00  0.00    +0.000 NA
ATOM      6  C   UNL     1       6.064   4.188  16.838  0.00  0.00    +0.000 C 
ATOM      7  H   UNL     1       5.177   3.140  18.418  0.00  0.00    +0.000 HD
ENDROOT
BRANCH   1   8
ATOM      8  N   UNL     1       7.536   5.645  15.347  0.00  0.00    +0.000 NA
ATOM      9  H   UNL     1       7.418   6.653  15.086  0.00  0.00    +0.000 HD
BRANCH   8  10
ATOM     10  C   UNL     1       6.696   4.851  14.433  0.00  0.00    +0.000 C 
BRANCH  10  11
ATOM     11  C   UNL     1       7.321   3.998  13.328  0.00  0.00    +0.000 C 
BRANCH  11  16
ATOM     12  F   UNL     1       3.009   2.201  10.078  0.00  0.00    +0.000 F 
ATOM     13  C   UNL     1       4.003   2.596  10.909  0.00  0.00    +0.000 A 
ATOM     14  C   UNL     1       5.181   1.858  10.981  0.00  0.00    +0.000 A 
ATOM     15  C   UNL     1       6.217   2.275  11.813  0.00  0.00    +0.000 A 
ATOM     16  C   UNL     1       6.102   3.460  12.574  0.00  0.00    +0.000 A 
ATOM     17  C   UNL     1       4.901   4.191  12.509  0.00  0.00    +0.000 A 
ATOM     18  C   UNL     1       3.856   3.757  11.682  0.00  0.00    +0.000 A 
ENDBRANCH  11  16
ENDBRANCH  10  11
ENDBRANCH   8  10
ENDBRANCH   1   8
BRANCH   4  19
ATOM     19  C   UNL     1       3.509   5.307  18.300  0.00  0.00    +0.000 C 
BRANCH  19  20
ATOM     20  C   UNL     1       2.708   4.148  18.864  0.00  0.00    +0.000 A 
ATOM     21  C   UNL     1       1.699   3.508  18.107  0.00  0.00    +0.000 A 
ATOM     22  C   UNL     1       0.924   2.496  18.669  0.00  0.00    +0.000 A 
ATOM     23  C   UNL     1       1.137   2.108  19.987  0.00  0.00    +0.000 A 
ATOM     24  C   UNL     1       2.131   2.727  20.748  0.00  0.00    +0.000 A 
ATOM     25  C   UNL     1       2.912   3.742  20.192  0.00  0.00    +0.000 A 
ENDBRANCH  19  20
BRANCH  19  26
ATOM     26  C   UNL     1       2.831   6.661  18.549  0.00  0.00    +0.000 A 
ATOM     27  C   UNL     1       2.296   6.934  19.828  0.00  0.00    +0.000 A 
ATOM     28  C   UNL     1       1.690   8.163  20.109  0.00  0.00    +0.000 A 
ATOM     29  C   UNL     1       1.601   9.140  19.119  0.00  0.00    +0.000 A 
ATOM     30  C   UNL     1       2.106   8.885  17.843  0.00  0.00    +0.000 A 
ATOM     31  C   UNL     1       2.711   7.657  17.556  0.00  0.00    +0.000 A 
ENDBRANCH  19  26
ENDBRANCH   4  19
TORSDOF 7
ENDMDL
MODEL 8
REMARK VINA RESULT:      -8.2      4.445      7.192
REMARK  Name = 
REMARK  7 active torsions:
REMARK  status: ('A' for Active; 'I' for Inactive)
REMARK    1  A    between atoms: C_5  and  C_6
REMARK    2  A    between atoms: C_6  and  C_7
REMARK    3  A    between atoms: C_7  and  N_8
REMARK    4  A    between atoms: N_8  and  C_9
REMARK    5  A    between atoms: C_12  and  C_13
REMARK    6  A    between atoms: C_13  and  C_14
REMARK    7  A    between atoms: C_13  and  C_20
REMARK                            x       y       z     vdW  Elec       q    Type
REMARK                         _______ _______ _______ _____ _____    ______ ____
ROOT
ATOM      1  C   UNL     1       6.367   6.258  17.041  0.00  0.00    +0.000 C 
ATOM      2  C   UNL     1       5.839   5.027  17.828  0.00  0.00    +0.000 C 
ATOM      3  C   UNL     1       4.453   4.691  17.326  0.00  0.00    +0.000 C 
ATOM      4  C   UNL     1       3.503   5.872  17.514  0.00  0.00    +0.000 C 
ATOM      5  N   UNL     1       4.074   7.086  16.866  0.00  0.00    +0.000 NA
ATOM      6  C   UNL     1       5.436   7.446  17.321  0.00  0.00    +0.000 C 
ATOM      7  H   UNL     1       3.430   7.907  16.940  0.00  0.00    +0.000 HD
ENDROOT
BRANCH   1   8
ATOM      8  N   UNL     1       7.811   6.513  17.306  0.00  0.00    +0.000 NA
ATOM      9  H   UNL     1       8.100   5.957  18.145  0.00  0.00    +0.000 HD
BRANCH   8  10
ATOM     10  C   UNL     1       7.894   7.939  17.670  0.00  0.00    +0.000 C 
BRANCH  10  11
ATOM     11  C   UNL     1       8.659   8.392  18.914  0.00  0.00    +0.000 C 
BRANCH  11  16
ATOM     12  F   UNL     1       9.649  13.819  17.515  0.00  0.00    +0.000 F 
ATOM     13  C   UNL     1       9.382  12.551  17.909  0.00  0.00    +0.000 A 
ATOM     14  C   UNL     1       8.255  11.895  17.421  0.00  0.00    +0.000 A 
ATOM     15  C   UNL     1       7.991  10.582  17.801  0.00  0.00    +0.000 A 
ATOM     16  C   UNL     1       8.868   9.888  18.665  0.00  0.00    +0.000 A 
ATOM     17  C   UNL     1       9.995  10.564  19.168  0.00  0.00    +0.000 A 
ATOM     18  C   UNL     1      10.247  11.890  18.794  0.00  0.00    +0.000 A 
ENDBRANCH  11  16
ENDBRANCH  10  11
ENDBRANCH   8  10
ENDBRANCH   1   8
BRANCH   4  19
ATOM     19  C   UNL     1       3.118   6.134  19.002  0.00  0.00    +0.000 C 
BRANCH  19  20
ATOM     20  C   UNL     1       2.259   7.385  19.057  0.00  0.00    +0.000 A 
ATOM     21  C   UNL     1       1.991   8.150  17.898  0.00  0.00    +0.000 A 
ATOM     22  C   UNL     1       1.263   9.335  17.982  0.00  0.00    +0.000 A 
ATOM     23  C   UNL     1       0.795   9.778  19.214  0.00  0.00    +0.000 A 
ATOM     24  C   UNL     1       1.048   9.033  20.368  0.00  0.00    +0.000 A 
ATOM     25  C   UNL     1       1.776   7.844  20.292  0.00  0.00    +0.000 A 
ENDBRANCH  19  20
BRANCH  19  26
ATOM     26  C   UNL     1       2.459   4.943  19.711  0.00  0.00    +0.000 A 
ATOM     27  C   UNL     1       1.461   4.209  19.032  0.00  0.00    +0.000 A 
ATOM     28  C   UNL     1       0.849   3.102  19.629  0.00  0.00    +0.000 A 
ATOM     29  C   UNL     1       1.217   2.710  20.915  0.00  0.00    +0.000 A 
ATOM     30  C   UNL     1       2.187   3.433  21.612  0.00  0.00    +0.000 A 
ATOM     31  C   UNL     1       2.800   4.542  21.021  0.00  0.00    +0.000 A 
ENDBRANCH  19  26
ENDBRANCH   4  19
TORSDOF 7
ENDMDL
MODEL 9
REMARK VINA RESULT:      -8.2      4.659      7.483
REMARK  Name = 
REMARK  7 active torsions:
REMARK  status: ('A' for Active; 'I' for Inactive)
REMARK    1  A    between atoms: C_5  and  C_6
REMARK    2  A    between atoms: C_6  and  C_7
REMARK    3  A    between atoms: C_7  and  N_8
REMARK    4  A    between atoms: N_8  and  C_9
REMARK    5  A    between atoms: C_12  and  C_13
REMARK    6  A    between atoms: C_13  and  C_14
REMARK    7  A    between atoms: C_13  and  C_20
REMARK                            x       y       z     vdW  Elec       q    Type
REMARK                         _______ _______ _______ _____ _____    ______ ____
ROOT
ATOM      1  C   UNL     1       6.635   6.268  17.523  0.00  0.00    +0.000 C 
ATOM      2  C   UNL     1       6.007   5.012  18.189  0.00  0.00    +0.000 C 
ATOM      3  C   UNL     1       4.694   4.708  17.505  0.00  0.00    +0.000 C 
ATOM      4  C   UNL     1       3.733   5.889  17.621  0.00  0.00    +0.000 C 
ATOM      5  N   UNL     1       4.384   7.122  17.097  0.00  0.00    +0.000 NA
ATOM      6  C   UNL     1       5.681   7.452  17.733  0.00  0.00    +0.000 C 
ATOM      7  H   UNL     1       3.740   7.945  17.123  0.00  0.00    +0.000 HD
ENDROOT
BRANCH   1   8
ATOM      8  N   UNL     1       8.036   6.500  17.976  0.00  0.00    +0.000 NA
ATOM      9  H   UNL     1       8.231   5.872  18.792  0.00  0.00    +0.000 HD
BRANCH   8  10
ATOM     10  C   UNL     1       8.060   7.887  18.471  0.00  0.00    +0.000 C 
BRANCH  10  11
ATOM     11  C   UNL     1       8.209   9.066  17.508  0.00  0.00    +0.000 C 
BRANCH  11  16
ATOM     12  F   UNL     1      11.655  12.477  20.488  0.00  0.00    +0.000 F 
ATOM     13  C   UNL     1      10.784  11.716  19.784  0.00  0.00    +0.000 A 
ATOM     14  C   UNL     1      10.835  11.710  18.392  0.00  0.00    +0.000 A 
ATOM     15  C   UNL     1       9.959  10.909  17.664  0.00  0.00    +0.000 A 
ATOM     16  C   UNL     1       9.025  10.075  18.321  0.00  0.00    +0.000 A 
ATOM     17  C   UNL     1       8.968  10.101  19.726  0.00  0.00    +0.000 A 
ATOM     18  C   UNL     1       9.841  10.921  20.452  0.00  0.00    +0.000 A 
ENDBRANCH  11  16
ENDBRANCH  10  11
ENDBRANCH   8  10
ENDBRANCH   1   8
BRANCH   4  19
ATOM     19  C   UNL     1       3.166   6.096  19.058  0.00  0.00    +0.000 C 
BRANCH  19  20
ATOM     20  C   UNL     1       2.300   7.343  19.052  0.00  0.00    +0.000 A 
ATOM     21  C   UNL     1       1.999   8.030  17.852  0.00  0.00    +0.000 A 
ATOM     22  C   UNL     1       1.265   9.214  17.876  0.00  0.00    +0.000 A 
ATOM     23  C   UNL     1       0.822   9.732  19.088  0.00  0.00    +0.000 A 
ATOM     24  C   UNL     1       1.107   9.066  20.282  0.00  0.00    +0.000 A 
ATOM     25  C   UNL     1       1.842   7.879  20.266  0.00  0.00    +0.000 A 
ENDBRANCH  19  20
BRANCH  19  26
ATOM     26  C   UNL     1       2.432   4.880  19.637  0.00  0.00    +0.000 A 
ATOM     27  C   UNL     1       2.714   4.475  20.961  0.00  0.00    +0.000 A 
ATOM     28  C   UNL     1       2.053   3.387  21.540  0.00  0.00    +0.000 A 
ATOM     29  C   UNL     1       1.102   2.678  20.807  0.00  0.00    +0.000 A 
ATOM     30  C   UNL     1       0.821   3.049  19.491  0.00  0.00    +0.000 A 
ATOM     31  C   UNL     1       1.481   4.134  18.907  0.00  0.00    +0.000 A 
ENDBRANCH  19  26
ENDBRANCH   4  19
TORSDOF 7
ENDMDL
