MODEL 1
REMARK VINA RESULT:      -7.1      0.000      0.000
REMARK  Name = 
REMARK  7 active torsions:
REMARK  status: ('A' for Active; 'I' for Inactive)
REMARK    1  A    between atoms: C_1  and  C_2
REMARK    2  A    between atoms: C_5  and  C_6
REMARK    3  A    between atoms: C_7  and  C_8
REMARK    4  A    between atoms: C_8  and  N_9
REMARK    5  A    between atoms: N_9  and  C_10
REMARK    6  A    between atoms: C_10  and  C_11
REMARK    7  A    between atoms: N_13  and  C_14
REMARK                            x       y       z     vdW  Elec       q    Type
REMARK                         _______ _______ _______ _____ _____    ______ ____
ROOT
ATOM      1  N   UNL     1       4.753   3.194  17.556  0.00  0.00    +0.000 NA
ATOM      2  H   UNL     1       4.789   3.790  18.384  0.00  0.00    +0.000 HD
ENDROOT
BRANCH   1   3
ATOM      3  C   UNL     1       4.483   4.046  16.396  0.00  0.00    +0.000 C 
BRANCH   3  10
ATOM      4  C   UNL     1       6.023   3.796  13.536  0.00  0.00    +0.000 C 
ATOM      5  C   UNL     1       6.418   4.598  14.718  0.00  0.00    +0.000 A 
ATOM      6  N   UNL     1       7.529   5.342  14.681  0.00  0.00    +0.000 NA
ATOM      7  O   UNL     1       7.620   5.939  15.920  0.00  0.00    +0.000 OA
ATOM      8  C   UNL     1       6.570   5.556  16.692  0.00  0.00    +0.000 A 
ATOM      9  C   UNL     1       6.545   6.126  18.054  0.00  0.00    +0.000 C 
ATOM     10  C   UNL     1       5.759   4.695  15.980  0.00  0.00    +0.000 A 
ENDBRANCH   3  10
ENDBRANCH   1   3
BRANCH   1  11
ATOM     11  C   UNL     1       3.738   2.152  17.772  0.00  0.00    +0.000 C 
BRANCH  11  12
ATOM     12  C   UNL     1       3.153   2.032  19.200  0.00  0.00    +0.000 C 
ATOM     13  C   UNL     1       3.489   3.197  20.170  0.00  0.00    +0.000 C 
ATOM     14  N   UNL     1       2.623   4.389  20.115  0.00  0.00    +0.000 NA
ATOM     15  C   UNL     1       1.215   3.988  20.015  0.00  0.00    +0.000 C 
ATOM     16  C   UNL     1       0.951   2.934  18.939  0.00  0.00    +0.000 C 
ATOM     17  O   UNL     1       1.739   1.759  19.147  0.00  0.00    +0.000 OA
BRANCH  14  18
ATOM     18  C   UNL     1       3.063   5.429  19.174  0.00  0.00    +0.000 C 
ATOM     19  C   UNL     1       2.075   6.162  18.304  0.00  0.00    +0.000 C 
ATOM     20  C   UNL     1       2.660   6.849  19.496  0.00  0.00    +0.000 C 
ENDBRANCH  14  18
ENDBRANCH  11  12
ENDBRANCH   1  11
TORSDOF 5
ENDMDL
MODEL 2
REMARK VINA RESULT:      -7.0      1.215      1.439
REMARK  Name = 
REMARK  7 active torsions:
REMARK  status: ('A' for Active; 'I' for Inactive)
REMARK    1  A    between atoms: C_1  and  C_2
REMARK    2  A    between atoms: C_5  and  C_6
REMARK    3  A    between atoms: C_7  and  C_8
REMARK    4  A    between atoms: C_8  and  N_9
REMARK    5  A    between atoms: N_9  and  C_10
REMARK    6  A    between atoms: C_10  and  C_11
REMARK    7  A    between atoms: N_13  and  C_14
REMARK                            x       y       z     vdW  Elec       q    Type
REMARK                         _______ _______ _______ _____ _____    ______ ____
ROOT
ATOM      1  N   UNL     1       4.060   3.927  16.672  0.00  0.00    +0.000 NA
ATOM      2  H   UNL     1       3.550   3.884  15.788  0.00  0.00    +0.000 HD
ENDROOT
BRANCH   1   3
ATOM      3  C   UNL     1       5.364   3.289  16.474  0.00  0.00    +0.000 C 
BRANCH   3  10
ATOM      4  C   UNL     1       6.082   3.692  13.322  0.00  0.00    +0.000 C 
ATOM      5  C   UNL     1       6.582   4.471  14.479  0.00  0.00    +0.000 A 
ATOM      6  N   UNL     1       7.434   5.484  14.286  0.00  0.00    +0.000 NA
ATOM      7  O   UNL     1       7.715   5.981  15.540  0.00  0.00    +0.000 OA
ATOM      8  C   UNL     1       7.035   5.270  16.478  0.00  0.00    +0.000 A 
ATOM      9  C   UNL     1       7.247   5.700  17.874  0.00  0.00    +0.000 C 
ATOM     10  C   UNL     1       6.288   4.285  15.863  0.00  0.00    +0.000 A 
ENDBRANCH   3  10
ENDBRANCH   1   3
BRANCH   1  11
ATOM     11  C   UNL     1       3.243   3.289  17.716  0.00  0.00    +0.000 C 
BRANCH  11  12
ATOM     12  C   UNL     1       3.558   3.673  19.181  0.00  0.00    +0.000 C 
ATOM     13  C   UNL     1       3.982   5.148  19.420  0.00  0.00    +0.000 C 
ATOM     14  N   UNL     1       2.902   6.138  19.588  0.00  0.00    +0.000 NA
ATOM     15  C   UNL     1       1.848   5.597  20.453  0.00  0.00    +0.000 C 
ATOM     16  C   UNL     1       1.393   4.190  20.063  0.00  0.00    +0.000 C 
ATOM     17  O   UNL     1       2.485   3.267  20.054  0.00  0.00    +0.000 OA
BRANCH  14  18
ATOM     18  C   UNL     1       2.448   6.773  18.343  0.00  0.00    +0.000 C 
ATOM     19  C   UNL     1       2.138   8.247  18.285  0.00  0.00    +0.000 C 
ATOM     20  C   UNL     1       3.407   7.735  17.682  0.00  0.00    +0.000 C 
ENDBRANCH  14  18
ENDBRANCH  11  12
ENDBRANCH   1  11
TORSDOF 5
ENDMDL
MODEL 3
REMARK VINA RESULT:      -6.8      1.863      3.055
REMARK  Name = 
REMARK  7 active torsions:
REMARK  status: ('A' for Active; 'I' for Inactive)
REMARK    1  A    between atoms: C_1  and  C_2
REMARK    2  A    between atoms: C_5  and  C_6
REMARK    3  A    between atoms: C_7  and  C_8
REMARK    4  A    between atoms: C_8  and  N_9
REMARK    5  A    between atoms: N_9  and  C_10
REMARK    6  A    between atoms: C_10  and  C_11
REMARK    7  A    between atoms: N_13  and  C_14
REMARK                            x       y       z     vdW  Elec       q    Type
REMARK                         _______ _______ _______ _____ _____    ______ ____
ROOT
ATOM      1  N   UNL     1       4.022   5.732  17.606  0.00  0.00    +0.000 NA
ATOM      2  H   UNL     1       3.411   5.625  16.795  0.00  0.00    +0.000 HD
ENDROOT
BRANCH   1   3
ATOM      3  C   UNL     1       5.174   6.540  17.202  0.00  0.00    +0.000 C 
BRANCH   3  10
ATOM      4  C   UNL     1       7.573   5.706  19.242  0.00  0.00    +0.000 C 
ATOM      5  C   UNL     1       7.360   5.248  17.850  0.00  0.00    +0.000 A 
ATOM      6  N   UNL     1       8.212   4.382  17.292  0.00  0.00    +0.000 NA
ATOM      7  O   UNL     1       7.751   4.176  16.009  0.00  0.00    +0.000 OA
ATOM      8  C   UNL     1       6.629   4.914  15.802  0.00  0.00    +0.000 A 
ATOM      9  C   UNL     1       6.028   4.788  14.459  0.00  0.00    +0.000 C 
ATOM     10  C   UNL     1       6.324   5.626  16.944  0.00  0.00    +0.000 A 
ENDBRANCH   3  10
ENDBRANCH   1   3
BRANCH   1  11
ATOM     11  C   UNL     1       4.382   4.394  18.099  0.00  0.00    +0.000 C 
BRANCH  11  12
ATOM     12  C   UNL     1       3.580   3.200  17.528  0.00  0.00    +0.000 C 
ATOM     13  C   UNL     1       3.359   2.005  18.496  0.00  0.00    +0.000 C 
ATOM     14  N   UNL     1       2.215   2.093  19.421  0.00  0.00    +0.000 NA
ATOM     15  C   UNL     1       1.035   2.611  18.719  0.00  0.00    +0.000 C 
ATOM     16  C   UNL     1       1.312   3.870  17.897  0.00  0.00    +0.000 C 
ATOM     17  O   UNL     1       2.347   3.655  16.935  0.00  0.00    +0.000 OA
BRANCH  14  18
ATOM     18  C   UNL     1       2.515   2.715  20.718  0.00  0.00    +0.000 C 
ATOM     19  C   UNL     1       1.728   3.900  21.217  0.00  0.00    +0.000 C 
ATOM     20  C   UNL     1       1.481   2.547  21.806  0.00  0.00    +0.000 C 
ENDBRANCH  14  18
ENDBRANCH  11  12
ENDBRANCH   1  11
TORSDOF 5
ENDMDL
MODEL 4
REMARK VINA RESULT:      -6.8      0.636      1.932
REMARK  Name = 
REMARK  7 active torsions:
REMARK  status: ('A' for Active; 'I' for Inactive)
REMARK    1  A    between atoms: C_1  and  C_2
REMARK    2  A    between atoms: C_5  and  C_6
REMARK    3  A    between atoms: C_7  and  C_8
REMARK    4  A    between atoms: C_8  and  N_9
REMARK    5  A    between atoms: N_9  and  C_10
REMARK    6  A    between atoms: C_10  and  C_11
REMARK    7  A    between atoms: N_13  and  C_14
REMARK                            x       y       z     vdW  Elec       q    Type
REMARK                         _______ _______ _______ _____ _____    ______ ____
ROOT
ATOM      1  N   UNL     1       4.681   3.352  17.413  0.00  0.00    +0.000 NA
ATOM      2  H   UNL     1       4.905   3.815  18.296  0.00  0.00    +0.000 HD
ENDROOT
BRANCH   1   3
ATOM      3  C   UNL     1       4.387   4.389  16.421  0.00  0.00    +0.000 C 
BRANCH   3  10
ATOM      4  C   UNL     1       6.536   6.423  17.784  0.00  0.00    +0.000 C 
ATOM      5  C   UNL     1       6.624   5.752  16.466  0.00  0.00    +0.000 A 
ATOM      6  N   UNL     1       7.690   5.953  15.683  0.00  0.00    +0.000 NA
ATOM      7  O   UNL     1       7.459   5.214  14.542  0.00  0.00    +0.000 OA
ATOM      8  C   UNL     1       6.265   4.575  14.643  0.00  0.00    +0.000 A 
ATOM      9  C   UNL     1       5.892   3.744  13.481  0.00  0.00    +0.000 C 
ATOM     10  C   UNL     1       5.677   4.878  15.855  0.00  0.00    +0.000 A 
ENDBRANCH   3  10
ENDBRANCH   1   3
BRANCH   1  11
ATOM     11  C   UNL     1       3.565   2.422  17.643  0.00  0.00    +0.000 C 
BRANCH  11  12
ATOM     12  C   UNL     1       3.182   2.141  19.116  0.00  0.00    +0.000 C 
ATOM     13  C   UNL     1       3.350   3.330  20.100  0.00  0.00    +0.000 C 
ATOM     14  N   UNL     1       2.236   4.293  20.188  0.00  0.00    +0.000 NA
ATOM     15  C   UNL     1       0.953   3.580  20.213  0.00  0.00    +0.000 C 
ATOM     16  C   UNL     1       0.818   2.517  19.122  0.00  0.00    +0.000 C 
ATOM     17  O   UNL     1       1.869   1.551  19.194  0.00  0.00    +0.000 OA
BRANCH  14  18
ATOM     18  C   UNL     1       2.324   5.425  19.256  0.00  0.00    +0.000 C 
ATOM     19  C   UNL     1       2.140   6.844  19.732  0.00  0.00    +0.000 C 
ATOM     20  C   UNL     1       3.513   6.343  19.414  0.00  0.00    +0.000 C 
ENDBRANCH  14  18
ENDBRANCH  11  12
ENDBRANCH   1  11
TORSDOF 5
ENDMDL
MODEL 5
REMARK VINA RESULT:      -6.7      1.478      2.452
REMARK  Name = 
REMARK  7 active torsions:
REMARK  status: ('A' for Active; 'I' for Inactive)
REMARK    1  A    between atoms: C_1  and  C_2
REMARK    2  A    between atoms: C_5  and  C_6
REMARK    3  A    between atoms: C_7  and  C_8
REMARK    4  A    between atoms: C_8  and  N_9
REMARK    5  A    between atoms: N_9  and  C_10
REMARK    6  A    between atoms: C_10  and  C_11
REMARK    7  A    between atoms: N_13  and  C_14
REMARK                            x       y       z     vdW  Elec       q    Type
REMARK                         _______ _______ _______ _____ _____    ______ ____
ROOT
ATOM      1  N   UNL     1       4.924   3.162  16.910  0.00  0.00    +0.000 NA
ATOM      2  H   UNL     1       5.567   3.694  17.500  0.00  0.00    +0.000 HD
ENDROOT
BRANCH   1   3
ATOM      3  C   UNL     1       4.727   3.911  15.667  0.00  0.00    +0.000 C 
BRANCH   3  10
ATOM      4  C   UNL     1       6.462   3.885  12.910  0.00  0.00    +0.000 C 
ATOM      5  C   UNL     1       6.724   4.659  14.146  0.00  0.00    +0.000 A 
ATOM      6  N   UNL     1       7.783   5.474  14.213  0.00  0.00    +0.000 NA
ATOM      7  O   UNL     1       7.753   6.023  15.477  0.00  0.00    +0.000 OA
ATOM      8  C   UNL     1       6.683   5.539  16.161  0.00  0.00    +0.000 A 
ATOM      9  C   UNL     1       6.531   6.048  17.539  0.00  0.00    +0.000 C 
ATOM     10  C   UNL     1       5.980   4.659  15.363  0.00  0.00    +0.000 A 
ENDBRANCH   3  10
ENDBRANCH   1   3
BRANCH   1  11
ATOM     11  C   UNL     1       3.682   2.929  17.662  0.00  0.00    +0.000 C 
BRANCH  11  12
ATOM     12  C   UNL     1       2.677   4.105  17.733  0.00  0.00    +0.000 C 
ATOM     13  C   UNL     1       1.319   3.797  18.420  0.00  0.00    +0.000 C 
ATOM     14  N   UNL     1       1.268   3.908  19.889  0.00  0.00    +0.000 NA
ATOM     15  C   UNL     1       1.983   5.112  20.331  0.00  0.00    +0.000 C 
ATOM     16  C   UNL     1       3.371   5.267  19.708  0.00  0.00    +0.000 C 
ATOM     17  O   UNL     1       3.310   5.280  18.279  0.00  0.00    +0.000 OA
BRANCH  14  18
ATOM     18  C   UNL     1       1.587   2.671  20.613  0.00  0.00    +0.000 C 
ATOM     19  C   UNL     1       2.549   2.671  21.774  0.00  0.00    +0.000 C 
ATOM     20  C   UNL     1       1.079   2.565  22.032  0.00  0.00    +0.000 C 
ENDBRANCH  14  18
ENDBRANCH  11  12
ENDBRANCH   1  11
TORSDOF 5
ENDMDL
MODEL 6
REMARK VINA RESULT:      -6.7      1.921      3.600
REMARK  Name = 
REMARK  7 active torsions:
REMARK  status: ('A' for Active; 'I' for Inactive)
REMARK    1  A    between atoms: C_1  and  C_2
REMARK    2  A    between atoms: C_5  and  C_6
REMARK    3  A    between atoms: C_7  and  C_8
REMARK    4  A    between atoms: C_8  and  N_9
REMARK    5  A    between atoms: N_9  and  C_10
REMARK    6  A    between atoms: C_10  and  C_11
REMARK    7  A    between atoms: N_13  and  C_14
REMARK                            x       y       z     vdW  Elec       q    Type
REMARK                         _______ _______ _______ _____ _____    ______ ____
ROOT
ATOM      1  N   UNL     1       4.268   6.043  17.456  0.00  0.00    +0.000 NA
ATOM      2  H   UNL     1       4.469   5.058  17.637  0.00  0.00    +0.000 HD
ENDROOT
BRANCH   1   3
ATOM      3  C   UNL     1       5.537   6.719  17.174  0.00  0.00    +0.000 C 
BRANCH   3  10
ATOM      4  C   UNL     1       7.494   5.693  19.567  0.00  0.00    +0.000 C 
ATOM      5  C   UNL     1       7.453   5.230  18.160  0.00  0.00    +0.000 A 
ATOM      6  N   UNL     1       8.289   4.271  17.746  0.00  0.00    +0.000 NA
ATOM      7  O   UNL     1       8.012   4.086  16.409  0.00  0.00    +0.000 OA
ATOM      8  C   UNL     1       7.018   4.928  16.025  0.00  0.00    +0.000 A 
ATOM      9  C   UNL     1       6.621   4.834  14.606  0.00  0.00    +0.000 C 
ATOM     10  C   UNL     1       6.613   5.690  17.103  0.00  0.00    +0.000 A 
ENDBRANCH   3  10
ENDBRANCH   1   3
BRANCH   1  11
ATOM     11  C   UNL     1       3.549   6.596  18.614  0.00  0.00    +0.000 C 
BRANCH  11  12
ATOM     12  C   UNL     1       2.118   6.064  18.865  0.00  0.00    +0.000 C 
ATOM     13  C   UNL     1       1.788   4.681  18.243  0.00  0.00    +0.000 C 
ATOM     14  N   UNL     1       2.169   3.486  19.019  0.00  0.00    +0.000 NA
ATOM     15  C   UNL     1       1.838   3.677  20.436  0.00  0.00    +0.000 C 
ATOM     16  C   UNL     1       2.320   5.012  21.006  0.00  0.00    +0.000 C 
ATOM     17  O   UNL     1       1.796   6.120  20.270  0.00  0.00    +0.000 OA
BRANCH  14  18
ATOM     18  C   UNL     1       3.515   2.970  18.738  0.00  0.00    +0.000 C 
ATOM     19  C   UNL     1       4.213   2.045  19.701  0.00  0.00    +0.000 C 
ATOM     20  C   UNL     1       3.627   1.493  18.441  0.00  0.00    +0.000 C 
ENDBRANCH  14  18
ENDBRANCH  11  12
ENDBRANCH   1  11
TORSDOF 5
ENDMDL
MODEL 7
REMARK VINA RESULT:      -6.6      1.174      2.215
REMARK  Name = 
REMARK  7 active torsions:
REMARK  status: ('A' for Active; 'I' for Inactive)
REMARK    1  A    between atoms: C_1  and  C_2
REMARK    2  A    between atoms: C_5  and  C_6
REMARK    3  A    between atoms: C_7  and  C_8
REMARK    4  A    between atoms: C_8  and  N_9
REMARK    5  A    between atoms: N_9  and  C_10
REMARK    6  A    between atoms: C_10  and  C_11
REMARK    7  A    between atoms: N_13  and  C_14
REMARK                            x       y       z     vdW  Elec       q    Type
REMARK                         _______ _______ _______ _____ _____    ______ ____
ROOT
ATOM      1  N   UNL     1       4.317   2.799  17.503  0.00  0.00    +0.000 NA
ATOM      2  H   UNL     1       5.135   2.950  18.096  0.00  0.00    +0.000 HD
ENDROOT
BRANCH   1   3
ATOM      3  C   UNL     1       4.254   3.895  16.533  0.00  0.00    +0.000 C 
BRANCH   3  10
ATOM      4  C   UNL     1       6.670   5.012  18.410  0.00  0.00    +0.000 C 
ATOM      5  C   UNL     1       6.705   4.715  16.959  0.00  0.00    +0.000 A 
ATOM      6  N   UNL     1       7.834   4.899  16.265  0.00  0.00    +0.000 NA
ATOM      7  O   UNL     1       7.533   4.555  14.964  0.00  0.00    +0.000 OA
ATOM      8  C   UNL     1       6.233   4.167  14.881  0.00  0.00    +0.000 A 
ATOM      9  C   UNL     1       5.776   3.770  13.535  0.00  0.00    +0.000 C 
ATOM     10  C   UNL     1       5.644   4.246  16.127  0.00  0.00    +0.000 A 
ENDBRANCH   3  10
ENDBRANCH   1   3
BRANCH   1  11
ATOM     11  C   UNL     1       3.128   2.701  18.362  0.00  0.00    +0.000 C 
BRANCH  11  12
ATOM     12  C   UNL     1       3.258   3.256  19.801  0.00  0.00    +0.000 C 
ATOM     13  C   UNL     1       3.761   4.721  19.920  0.00  0.00    +0.000 C 
ATOM     14  N   UNL     1       2.753   5.790  19.797  0.00  0.00    +0.000 NA
ATOM     15  C   UNL     1       1.544   5.435  20.550  0.00  0.00    +0.000 C 
ATOM     16  C   UNL     1       1.037   4.020  20.269  0.00  0.00    +0.000 C 
ATOM     17  O   UNL     1       2.040   3.037  20.541  0.00  0.00    +0.000 OA
BRANCH  14  18
ATOM     18  C   UNL     1       2.536   6.280  18.429  0.00  0.00    +0.000 C 
ATOM     19  C   UNL     1       2.207   7.726  18.161  0.00  0.00    +0.000 C 
ATOM     20  C   UNL     1       3.583   7.216  17.871  0.00  0.00    +0.000 C 
ENDBRANCH  14  18
ENDBRANCH  11  12
ENDBRANCH   1  11
TORSDOF 5
ENDMDL
MODEL 8
REMARK VINA RESULT:      -6.6      1.686      2.254
REMARK  Name = 
REMARK  7 active torsions:
REMARK  status: ('A' for Active; 'I' for Inactive)
REMARK    1  A    between atoms: C_1  and  C_2
REMARK    2  A    between atoms: C_5  and  C_6
REMARK    3  A    between atoms: C_7  and  C_8
REMARK    4  A    between atoms: C_8  and  N_9
REMARK    5  A    between atoms: N_9  and  C_10
REMARK    6  A    between atoms: C_10  and  C_11
REMARK    7  A    between atoms: N_13  and  C_14
REMARK                            x       y       z     vdW  Elec       q    Type
REMARK                         _______ _______ _______ _____ _____    ______ ____
ROOT
ATOM      1  N   UNL     1       4.142   5.221  18.060  0.00  0.00    +0.000 NA
ATOM      2  H   UNL     1       3.147   5.171  18.287  0.00  0.00    +0.000 HD
ENDROOT
BRANCH   1   3
ATOM      3  C   UNL     1       4.296   6.083  16.886  0.00  0.00    +0.000 C 
BRANCH   3  10
ATOM      4  C   UNL     1       5.178   4.344  14.277  0.00  0.00    +0.000 C 
ATOM      5  C   UNL     1       6.043   5.141  15.177  0.00  0.00    +0.000 A 
ATOM      6  N   UNL     1       7.360   5.208  14.953  0.00  0.00    +0.000 NA
ATOM      7  O   UNL     1       7.871   5.999  15.959  0.00  0.00    +0.000 OA
ATOM      8  C   UNL     1       6.866   6.403  16.780  0.00  0.00    +0.000 A 
ATOM      9  C   UNL     1       7.277   7.262  17.908  0.00  0.00    +0.000 C 
ATOM     10  C   UNL     1       5.666   5.887  16.333  0.00  0.00    +0.000 A 
ENDBRANCH   3  10
ENDBRANCH   1   3
BRANCH   1  11
ATOM     11  C   UNL     1       4.645   3.854  17.858  0.00  0.00    +0.000 C 
BRANCH  11  12
ATOM     12  C   UNL     1       3.611   2.786  17.426  0.00  0.00    +0.000 C 
ATOM     13  C   UNL     1       3.226   1.738  18.506  0.00  0.00    +0.000 C 
ATOM     14  N   UNL     1       2.165   2.114  19.458  0.00  0.00    +0.000 NA
ATOM     15  C   UNL     1       1.065   2.782  18.753  0.00  0.00    +0.000 C 
ATOM     16  C   UNL     1       1.524   3.895  17.810  0.00  0.00    +0.000 C 
ATOM     17  O   UNL     1       2.453   3.411  16.837  0.00  0.00    +0.000 OA
BRANCH  14  18
ATOM     18  C   UNL     1       2.639   2.775  20.681  0.00  0.00    +0.000 C 
ATOM     19  C   UNL     1       1.887   3.935  21.283  0.00  0.00    +0.000 C 
ATOM     20  C   UNL     1       1.799   2.586  21.923  0.00  0.00    +0.000 C 
ENDBRANCH  14  18
ENDBRANCH  11  12
ENDBRANCH   1  11
TORSDOF 5
ENDMDL
MODEL 9
REMARK VINA RESULT:      -6.6      1.875      3.157
REMARK  Name = 
REMARK  7 active torsions:
REMARK  status: ('A' for Active; 'I' for Inactive)
REMARK    1  A    between atoms: C_1  and  C_2
REMARK    2  A    between atoms: C_5  and  C_6
REMARK    3  A    between atoms: C_7  and  C_8
REMARK    4  A    between atoms: C_8  and  N_9
REMARK    5  A    between atoms: N_9  and  C_10
REMARK    6  A    between atoms: C_10  and  C_11
REMARK    7  A    between atoms: N_13  and  C_14
REMARK                            x       y       z     vdW  Elec       q    Type
REMARK                         _______ _______ _______ _____ _____    ______ ____
ROOT
ATOM      1  N   UNL     1       4.433   6.794  17.021  0.00  0.00    +0.000 NA
ATOM      2  H   UNL     1       4.321   5.973  16.424  0.00  0.00    +0.000 HD
ENDROOT
BRANCH   1   3
ATOM      3  C   UNL     1       5.848   7.176  17.003  0.00  0.00    +0.000 C 
BRANCH   3  10
ATOM      4  C   UNL     1       6.155   5.063  14.543  0.00  0.00    +0.000 C 
ATOM      5  C   UNL     1       6.817   5.023  15.868  0.00  0.00    +0.000 A 
ATOM      6  N   UNL     1       7.664   4.031  16.163  0.00  0.00    +0.000 NA
ATOM      7  O   UNL     1       8.087   4.272  17.453  0.00  0.00    +0.000 OA
ATOM      8  C   UNL     1       7.498   5.401  17.925  0.00  0.00    +0.000 A 
ATOM      9  C   UNL     1       7.865   5.777  19.305  0.00  0.00    +0.000 C 
ATOM     10  C   UNL     1       6.670   5.934  16.957  0.00  0.00    +0.000 A 
ENDBRANCH   3  10
ENDBRANCH   1   3
BRANCH   1  11
ATOM     11  C   UNL     1       3.926   6.472  18.363  0.00  0.00    +0.000 C 
BRANCH  11  12
ATOM     12  C   UNL     1       2.435   6.067  18.466  0.00  0.00    +0.000 C 
ATOM     13  C   UNL     1       2.063   4.687  17.859  0.00  0.00    +0.000 C 
ATOM     14  N   UNL     1       2.253   3.502  18.716  0.00  0.00    +0.000 NA
ATOM     15  C   UNL     1       1.783   3.782  20.078  0.00  0.00    +0.000 C 
ATOM     16  C   UNL     1       2.308   5.098  20.652  0.00  0.00    +0.000 C 
ATOM     17  O   UNL     1       1.964   6.210  19.822  0.00  0.00    +0.000 OA
BRANCH  14  18
ATOM     18  C   UNL     1       3.575   2.869  18.610  0.00  0.00    +0.000 C 
ATOM     19  C   UNL     1       4.147   2.061  19.747  0.00  0.00    +0.000 C 
ATOM     20  C   UNL     1       3.601   1.360  18.544  0.00  0.00    +0.000 C 
ENDBRANCH  14  18
ENDBRANCH  11  12
ENDBRANCH   1  11
TORSDOF 5
ENDMDL
