MODEL 1
REMARK VINA RESULT:      -8.5      0.000      0.000
REMARK  Name = 
REMARK  13 active torsions:
REMARK  status: ('A' for Active; 'I' for Inactive)
REMARK    1  A    between atoms: C_1  and  C_2
REMARK    2  A    between atoms: C_4  and  N_5
REMARK    3  A    between atoms: N_5  and  C_6
REMARK    4  A    between atoms: C_6  and  C_7
REMARK    5  A    between atoms: C_7  and  C_8
REMARK    6  A    between atoms: C_8  and  C_9
REMARK    7  A    between atoms: C_9  and  C_10
REMARK    8  A    between atoms: C_10  and  C_11
REMARK    9  A    between atoms: C_11  and  N_12
REMARK   10  A    between atoms: N_12  and  C_13
REMARK   11  A    between atoms: C_15  and  C_16
REMARK   12  A    between atoms: C_19  and  C_20
REMARK   13  A    between atoms: C_29  and  C_30
REMARK                            x       y       z     vdW  Elec       q    Type
REMARK                         _______ _______ _______ _____ _____    ______ ____
ROOT
ATOM      1  C   UNL     1       0.975   2.780  19.306  0.00  0.00    +0.000 C 
ENDROOT
BRANCH   1   2
ATOM      2  C   UNL     1       0.840   3.863  20.366  0.00  0.00    +0.000 C 
BRANCH   2   3
ATOM      3  C   UNL     1       2.211   4.276  20.918  0.00  0.00    +0.000 C 
BRANCH   3   4
ATOM      4  N   UNL     1       2.223   5.673  21.263  0.00  0.00    +0.000 N 
ATOM      5  H   UNL     1       2.250   5.897  22.262  0.00  0.00    +0.000 HD
BRANCH   4   9
ATOM      6  C   UNL     1       3.789   7.427  16.859  0.00  0.00    +0.000 C 
ATOM      7  C   UNL     1       2.973   7.553  18.110  0.00  0.00    +0.000 A 
ATOM      8  C   UNL     1       2.970   6.550  19.080  0.00  0.00    +0.000 A 
ATOM      9  C   UNL     1       2.225   6.704  20.269  0.00  0.00    +0.000 A 
ATOM     10  C   UNL     1       1.482   7.902  20.456  0.00  0.00    +0.000 A 
ATOM     11  C   UNL     1       0.730   8.169  21.624  0.00  0.00    +0.000 A 
ATOM     12  C   UNL     1       0.023   9.360  21.758  0.00  0.00    +0.000 A 
ATOM     13  C   UNL     1       0.033  10.303  20.736  0.00  0.00    +0.000 A 
ATOM     14  C   UNL     1       0.765  10.070  19.565  0.00  0.00    +0.000 A 
ATOM     15  C   UNL     1       0.759  11.088  18.460  0.00  0.00    +0.000 C 
ATOM     16  C   UNL     1       1.500   8.878  19.427  0.00  0.00    +0.000 A 
ATOM     17  N   UNL     1       2.235   8.671  18.303  0.00  0.00    +0.000 NA
ENDBRANCH   4   9
ENDBRANCH   3   4
ENDBRANCH   2   3
ENDBRANCH   1   2
BRANCH   1  18
ATOM     18  C   UNL     1       2.394   2.170  19.256  0.00  0.00    +0.000 C 
BRANCH  18  19
ATOM     19  C   UNL     1       2.883   1.957  17.829  0.00  0.00    +0.000 C 
BRANCH  19  20
ATOM     20  C   UNL     1       3.566   3.221  17.300  0.00  0.00    +0.000 C 
BRANCH  20  21
ATOM     21  N   UNL     1       4.671   2.899  16.442  0.00  0.00    +0.000 N 
ATOM     22  H   UNL     1       4.723   1.936  16.094  0.00  0.00    +0.000 HD
BRANCH  21  23
ATOM     23  C   UNL     1       5.642   3.883  16.076  0.00  0.00    +0.000 A 
ATOM     24  C   UNL     1       6.170   4.756  17.055  0.00  0.00    +0.000 A 
ATOM     25  C   UNL     1       7.120   5.715  16.711  0.00  0.00    +0.000 A 
ATOM     26  C   UNL     1       7.647   6.674  17.738  0.00  0.00    +0.000 C 
ATOM     27  N   UNL     1       7.561   5.791  15.433  0.00  0.00    +0.000 NA
ATOM     28  C   UNL     1       7.087   4.984  14.445  0.00  0.00    +0.000 A 
ATOM     29  C   UNL     1       7.575   5.117  13.128  0.00  0.00    +0.000 A 
ATOM     30  C   UNL     1       8.662   6.091  12.771  0.00  0.00    +0.000 C 
ATOM     31  C   UNL     1       7.043   4.318  12.108  0.00  0.00    +0.000 A 
ATOM     32  C   UNL     1       6.052   3.385  12.386  0.00  0.00    +0.000 A 
ATOM     33  C   UNL     1       5.583   3.223  13.683  0.00  0.00    +0.000 A 
ATOM     34  C   UNL     1       6.091   4.014  14.738  0.00  0.00    +0.000 A 
ENDBRANCH  21  23
ENDBRANCH  20  21
ENDBRANCH  19  20
ENDBRANCH  18  19
ENDBRANCH   1  18
TORSDOF 9
ENDMDL
MODEL 2
REMARK VINA RESULT:      -8.4      4.953      7.951
REMARK  Name = 
REMARK  13 active torsions:
REMARK  status: ('A' for Active; 'I' for Inactive)
REMARK    1  A    between atoms: C_1  and  C_2
REMARK    2  A    between atoms: C_4  and  N_5
REMARK    3  A    between atoms: N_5  and  C_6
REMARK    4  A    between atoms: C_6  and  C_7
REMARK    5  A    between atoms: C_7  and  C_8
REMARK    6  A    between atoms: C_8  and  C_9
REMARK    7  A    between atoms: C_9  and  C_10
REMARK    8  A    between atoms: C_10  and  C_11
REMARK    9  A    between atoms: C_11  and  N_12
REMARK   10  A    between atoms: N_12  and  C_13
REMARK   11  A    between atoms: C_15  and  C_16
REMARK   12  A    between atoms: C_19  and  C_20
REMARK   13  A    between atoms: C_29  and  C_30
REMARK                            x       y       z     vdW  Elec       q    Type
REMARK                         _______ _______ _______ _____ _____    ______ ____
ROOT
ATOM      1  C   UNL     1       7.757   7.130  17.391  0.00  0.00    +0.000 C 
ENDROOT
BRANCH   1   2
ATOM      2  C   UNL     1       7.384   8.466  18.015  0.00  0.00    +0.000 C 
BRANCH   2   3
ATOM      3  C   UNL     1       8.432   9.541  17.696  0.00  0.00    +0.000 C 
BRANCH   3   4
ATOM      4  N   UNL     1       9.062  10.013  18.901  0.00  0.00    +0.000 N 
ATOM      5  H   UNL     1       9.018   9.392  19.714  0.00  0.00    +0.000 HD
BRANCH   4   9
ATOM      6  C   UNL     1      12.056  13.415  16.805  0.00  0.00    +0.000 C 
ATOM      7  C   UNL     1      11.188  12.942  17.932  0.00  0.00    +0.000 A 
ATOM      8  C   UNL     1      10.525  11.716  17.874  0.00  0.00    +0.000 A 
ATOM      9  C   UNL     1       9.742  11.272  18.962  0.00  0.00    +0.000 A 
ATOM     10  C   UNL     1       9.647  12.099  20.115  0.00  0.00    +0.000 A 
ATOM     11  C   UNL     1       8.917  11.732  21.270  0.00  0.00    +0.000 A 
ATOM     12  C   UNL     1       8.859  12.578  22.373  0.00  0.00    +0.000 A 
ATOM     13  C   UNL     1       9.510  13.807  22.352  0.00  0.00    +0.000 A 
ATOM     14  C   UNL     1      10.239  14.203  21.225  0.00  0.00    +0.000 A 
ATOM     15  C   UNL     1      10.926  15.539  21.205  0.00  0.00    +0.000 C 
ATOM     16  C   UNL     1      10.321  13.347  20.110  0.00  0.00    +0.000 A 
ATOM     17  N   UNL     1      11.058  13.720  19.031  0.00  0.00    +0.000 NA
ENDBRANCH   4   9
ENDBRANCH   3   4
ENDBRANCH   2   3
ENDBRANCH   1   2
BRANCH   1  18
ATOM     18  C   UNL     1       7.481   5.935  18.332  0.00  0.00    +0.000 C 
BRANCH  18  19
ATOM     19  C   UNL     1       7.321   4.625  17.572  0.00  0.00    +0.000 C 
BRANCH  19  20
ATOM     20  C   UNL     1       6.800   4.885  16.157  0.00  0.00    +0.000 C 
BRANCH  20  21
ATOM     21  N   UNL     1       5.432   4.470  16.017  0.00  0.00    +0.000 N 
ATOM     22  H   UNL     1       5.216   3.842  15.236  0.00  0.00    +0.000 HD
BRANCH  21  23
ATOM     23  C   UNL     1       4.425   4.902  16.936  0.00  0.00    +0.000 A 
ATOM     24  C   UNL     1       4.102   6.274  17.041  0.00  0.00    +0.000 A 
ATOM     25  C   UNL     1       3.119   6.705  17.928  0.00  0.00    +0.000 A 
ATOM     26  C   UNL     1       2.807   8.166  18.076  0.00  0.00    +0.000 C 
ATOM     27  N   UNL     1       2.448   5.796  18.676  0.00  0.00    +0.000 NA
ATOM     28  C   UNL     1       2.718   4.464  18.625  0.00  0.00    +0.000 A 
ATOM     29  C   UNL     1       1.995   3.564  19.437  0.00  0.00    +0.000 A 
ATOM     30  C   UNL     1       0.875   4.015  20.331  0.00  0.00    +0.000 C 
ATOM     31  C   UNL     1       2.315   2.201  19.416  0.00  0.00    +0.000 A 
ATOM     32  C   UNL     1       3.327   1.726  18.590  0.00  0.00    +0.000 A 
ATOM     33  C   UNL     1       4.026   2.596  17.765  0.00  0.00    +0.000 A 
ATOM     34  C   UNL     1       3.736   3.978  17.762  0.00  0.00    +0.000 A 
ENDBRANCH  21  23
ENDBRANCH  20  21
ENDBRANCH  19  20
ENDBRANCH  18  19
ENDBRANCH   1  18
TORSDOF 9
ENDMDL
MODEL 3
REMARK VINA RESULT:      -8.1      4.736      8.047
REMARK  Name = 
REMARK  13 active torsions:
REMARK  status: ('A' for Active; 'I' for Inactive)
REMARK    1  A    between atoms: C_1  and  C_2
REMARK    2  A    between atoms: C_4  and  N_5
REMARK    3  A    between atoms: N_5  and  C_6
REMARK    4  A    between atoms: C_6  and  C_7
REMARK    5  A    between atoms: C_7  and  C_8
REMARK    6  A    between atoms: C_8  and  C_9
REMARK    7  A    between atoms: C_9  and  C_10
REMARK    8  A    between atoms: C_10  and  C_11
REMARK    9  A    between atoms: C_11  and  N_12
REMARK   10  A    between atoms: N_12  and  C_13
REMARK   11  A    between atoms: C_15  and  C_16
REMARK   12  A    between atoms: C_19  and  C_20
REMARK   13  A    between atoms: C_29  and  C_30
REMARK                            x       y       z     vdW  Elec       q    Type
REMARK                         _______ _______ _______ _____ _____    ______ ____
ROOT
ATOM      1  C   UNL     1       7.600   5.467  17.908  0.00  0.00    +0.000 C 
ENDROOT
BRANCH   1   2
ATOM      2  C   UNL     1       7.126   5.560  16.465  0.00  0.00    +0.000 C 
BRANCH   2   3
ATOM      3  C   UNL     1       5.779   4.850  16.276  0.00  0.00    +0.000 C 
BRANCH   3   4
ATOM      4  N   UNL     1       4.686   5.755  16.518  0.00  0.00    +0.000 N 
ATOM      5  H   UNL     1       4.548   6.501  15.830  0.00  0.00    +0.000 HD
BRANCH   4   9
ATOM      6  C   UNL     1       1.927   7.814  20.134  0.00  0.00    +0.000 C 
ATOM      7  C   UNL     1       2.452   6.618  19.399  0.00  0.00    +0.000 A 
ATOM      8  C   UNL     1       3.301   6.753  18.301  0.00  0.00    +0.000 A 
ATOM      9  C   UNL     1       3.814   5.613  17.646  0.00  0.00    +0.000 A 
ATOM     10  C   UNL     1       3.449   4.327  18.131  0.00  0.00    +0.000 A 
ATOM     11  C   UNL     1       3.934   3.124  17.567  0.00  0.00    +0.000 A 
ATOM     12  C   UNL     1       3.546   1.891  18.083  0.00  0.00    +0.000 A 
ATOM     13  C   UNL     1       2.663   1.822  19.155  0.00  0.00    +0.000 A 
ATOM     14  C   UNL     1       2.162   2.993  19.735  0.00  0.00    +0.000 A 
ATOM     15  C   UNL     1       1.197   2.910  20.883  0.00  0.00    +0.000 C 
ATOM     16  C   UNL     1       2.561   4.247  19.235  0.00  0.00    +0.000 A 
ATOM     17  N   UNL     1       2.099   5.381  19.822  0.00  0.00    +0.000 NA
ENDBRANCH   4   9
ENDBRANCH   3   4
ENDBRANCH   2   3
ENDBRANCH   1   2
BRANCH   1  18
ATOM     18  C   UNL     1       7.819   6.854  18.553  0.00  0.00    +0.000 C 
BRANCH  18  19
ATOM     19  C   UNL     1       8.015   7.952  17.515  0.00  0.00    +0.000 C 
BRANCH  19  20
ATOM     20  C   UNL     1       8.059   9.326  18.187  0.00  0.00    +0.000 C 
BRANCH  20  21
ATOM     21  N   UNL     1       9.234   9.475  19.000  0.00  0.00    +0.000 N 
ATOM     22  H   UNL     1       9.860   8.665  19.061  0.00  0.00    +0.000 HD
BRANCH  21  23
ATOM     23  C   UNL     1       9.524  10.702  19.674  0.00  0.00    +0.000 A 
ATOM     24  C   UNL     1       9.026  10.929  20.977  0.00  0.00    +0.000 A 
ATOM     25  C   UNL     1       9.306  12.118  21.646  0.00  0.00    +0.000 A 
ATOM     26  C   UNL     1       8.740  12.383  23.011  0.00  0.00    +0.000 C 
ATOM     27  N   UNL     1      10.087  13.052  21.051  0.00  0.00    +0.000 NA
ATOM     28  C   UNL     1      10.590  12.895  19.796  0.00  0.00    +0.000 A 
ATOM     29  C   UNL     1      11.387  13.907  19.222  0.00  0.00    +0.000 A 
ATOM     30  C   UNL     1      11.763  15.153  19.973  0.00  0.00    +0.000 C 
ATOM     31  C   UNL     1      11.857  13.759  17.911  0.00  0.00    +0.000 A 
ATOM     32  C   UNL     1      11.557  12.617  17.179  0.00  0.00    +0.000 A 
ATOM     33  C   UNL     1      10.799  11.600  17.742  0.00  0.00    +0.000 A 
ATOM     34  C   UNL     1      10.302  11.715  19.060  0.00  0.00    +0.000 A 
ENDBRANCH  21  23
ENDBRANCH  20  21
ENDBRANCH  19  20
ENDBRANCH  18  19
ENDBRANCH   1  18
TORSDOF 9
ENDMDL
MODEL 4
REMARK VINA RESULT:      -8.0      3.777      7.525
REMARK  Name = 
REMARK  13 active torsions:
REMARK  status: ('A' for Active; 'I' for Inactive)
REMARK    1  A    between atoms: C_1  and  C_2
REMARK    2  A    between atoms: C_4  and  N_5
REMARK    3  A    between atoms: N_5  and  C_6
REMARK    4  A    between atoms: C_6  and  C_7
REMARK    5  A    between atoms: C_7  and  C_8
REMARK    6  A    between atoms: C_8  and  C_9
REMARK    7  A    between atoms: C_9  and  C_10
REMARK    8  A    between atoms: C_10  and  C_11
REMARK    9  A    between atoms: C_11  and  N_12
REMARK   10  A    between atoms: N_12  and  C_13
REMARK   11  A    between atoms: C_15  and  C_16
REMARK   12  A    between atoms: C_19  and  C_20
REMARK   13  A    between atoms: C_29  and  C_30
REMARK                            x       y       z     vdW  Elec       q    Type
REMARK                         _______ _______ _______ _____ _____    ______ ____
ROOT
ATOM      1  C   UNL     1      -0.922  10.490  18.470  0.00  0.00    +0.000 C 
ENDROOT
BRANCH   1   2
ATOM      2  C   UNL     1      -2.099  10.149  17.569  0.00  0.00    +0.000 C 
BRANCH   2   3
ATOM      3  C   UNL     1      -3.032  11.355  17.394  0.00  0.00    +0.000 C 
BRANCH   3   4
ATOM      4  N   UNL     1      -2.816  12.324  18.436  0.00  0.00    +0.000 N 
ATOM      5  H   UNL     1      -2.069  13.006  18.278  0.00  0.00    +0.000 HD
BRANCH   4   9
ATOM      6  C   UNL     1      -7.288  12.102  20.644  0.00  0.00    +0.000 C 
ATOM      7  C   UNL     1      -5.796  12.230  20.705  0.00  0.00    +0.000 A 
ATOM      8  C   UNL     1      -5.015  12.198  19.549  0.00  0.00    +0.000 A 
ATOM      9  C   UNL     1      -3.615  12.358  19.625  0.00  0.00    +0.000 A 
ATOM     10  C   UNL     1      -3.020  12.555  20.901  0.00  0.00    +0.000 A 
ATOM     11  C   UNL     1      -1.632  12.759  21.081  0.00  0.00    +0.000 A 
ATOM     12  C   UNL     1      -1.101  12.951  22.353  0.00  0.00    +0.000 A 
ATOM     13  C   UNL     1      -1.928  12.931  23.471  0.00  0.00    +0.000 A 
ATOM     14  C   UNL     1      -3.306  12.730  23.329  0.00  0.00    +0.000 A 
ATOM     15  C   UNL     1      -4.190  12.696  24.543  0.00  0.00    +0.000 C 
ATOM     16  C   UNL     1      -3.857  12.554  22.046  0.00  0.00    +0.000 A 
ATOM     17  N   UNL     1      -5.199  12.393  21.909  0.00  0.00    +0.000 NA
ENDBRANCH   4   9
ENDBRANCH   3   4
ENDBRANCH   2   3
ENDBRANCH   1   2
BRANCH   1  18
ATOM     18  C   UNL     1       0.346   9.674  18.127  0.00  0.00    +0.000 C 
BRANCH  18  19
ATOM     19  C   UNL     1       1.315   9.591  19.300  0.00  0.00    +0.000 C 
BRANCH  19  20
ATOM     20  C   UNL     1       1.000   8.375  20.173  0.00  0.00    +0.000 C 
BRANCH  20  21
ATOM     21  N   UNL     1       2.177   7.592  20.427  0.00  0.00    +0.000 N 
ATOM     22  H   UNL     1       2.661   7.759  21.315  0.00  0.00    +0.000 HD
BRANCH  21  23
ATOM     23  C   UNL     1       2.639   6.615  19.490  0.00  0.00    +0.000 A 
ATOM     24  C   UNL     1       3.484   6.998  18.424  0.00  0.00    +0.000 A 
ATOM     25  C   UNL     1       3.944   6.054  17.510  0.00  0.00    +0.000 A 
ATOM     26  C   UNL     1       4.803   6.465  16.350  0.00  0.00    +0.000 C 
ATOM     27  N   UNL     1       3.599   4.752  17.662  0.00  0.00    +0.000 NA
ATOM     28  C   UNL     1       2.783   4.323  18.662  0.00  0.00    +0.000 A 
ATOM     29  C   UNL     1       2.448   2.956  18.764  0.00  0.00    +0.000 A 
ATOM     30  C   UNL     1       3.012   1.922  17.831  0.00  0.00    +0.000 C 
ATOM     31  C   UNL     1       1.566   2.532  19.765  0.00  0.00    +0.000 A 
ATOM     32  C   UNL     1       1.033   3.443  20.669  0.00  0.00    +0.000 A 
ATOM     33  C   UNL     1       1.377   4.785  20.599  0.00  0.00    +0.000 A 
ATOM     34  C   UNL     1       2.260   5.253  19.600  0.00  0.00    +0.000 A 
ENDBRANCH  21  23
ENDBRANCH  20  21
ENDBRANCH  19  20
ENDBRANCH  18  19
ENDBRANCH   1  18
TORSDOF 9
ENDMDL
MODEL 5
REMARK VINA RESULT:      -8.0      4.806      7.816
REMARK  Name = 
REMARK  13 active torsions:
REMARK  status: ('A' for Active; 'I' for Inactive)
REMARK    1  A    between atoms: C_1  and  C_2
REMARK    2  A    between atoms: C_4  and  N_5
REMARK    3  A    between atoms: N_5  and  C_6
REMARK    4  A    between atoms: C_6  and  C_7
REMARK    5  A    between atoms: C_7  and  C_8
REMARK    6  A    between atoms: C_8  and  C_9
REMARK    7  A    between atoms: C_9  and  C_10
REMARK    8  A    between atoms: C_10  and  C_11
REMARK    9  A    between atoms: C_11  and  N_12
REMARK   10  A    between atoms: N_12  and  C_13
REMARK   11  A    between atoms: C_15  and  C_16
REMARK   12  A    between atoms: C_19  and  C_20
REMARK   13  A    between atoms: C_29  and  C_30
REMARK                            x       y       z     vdW  Elec       q    Type
REMARK                         _______ _______ _______ _____ _____    ______ ____
ROOT
ATOM      1  C   UNL     1       7.356   5.723  17.943  0.00  0.00    +0.000 C 
ENDROOT
BRANCH   1   2
ATOM      2  C   UNL     1       6.123   4.835  18.020  0.00  0.00    +0.000 C 
BRANCH   2   3
ATOM      3  C   UNL     1       5.193   5.069  16.822  0.00  0.00    +0.000 C 
BRANCH   3   4
ATOM      4  N   UNL     1       3.849   4.657  17.130  0.00  0.00    +0.000 N 
ATOM      5  H   UNL     1       3.378   4.074  16.433  0.00  0.00    +0.000 HD
BRANCH   4   9
ATOM      6  C   UNL     1       2.151   3.389  21.651  0.00  0.00    +0.000 C 
ATOM      7  C   UNL     1       2.392   4.402  20.572  0.00  0.00    +0.000 A 
ATOM      8  C   UNL     1       3.020   4.055  19.376  0.00  0.00    +0.000 A 
ATOM      9  C   UNL     1       3.204   5.016  18.358  0.00  0.00    +0.000 A 
ATOM     10  C   UNL     1       2.734   6.339  18.578  0.00  0.00    +0.000 A 
ATOM     11  C   UNL     1       2.840   7.366  17.610  0.00  0.00    +0.000 A 
ATOM     12  C   UNL     1       2.360   8.645  17.875  0.00  0.00    +0.000 A 
ATOM     13  C   UNL     1       1.780   8.938  19.105  0.00  0.00    +0.000 A 
ATOM     14  C   UNL     1       1.662   7.947  20.086  0.00  0.00    +0.000 A 
ATOM     15  C   UNL     1       1.048   8.276  21.417  0.00  0.00    +0.000 C 
ATOM     16  C   UNL     1       2.126   6.645  19.822  0.00  0.00    +0.000 A 
ATOM     17  N   UNL     1       1.979   5.677  20.764  0.00  0.00    +0.000 NA
ENDBRANCH   4   9
ENDBRANCH   3   4
ENDBRANCH   2   3
ENDBRANCH   1   2
BRANCH   1  18
ATOM     18  C   UNL     1       7.020   7.174  17.532  0.00  0.00    +0.000 C 
BRANCH  18  19
ATOM     19  C   UNL     1       8.260   8.056  17.456  0.00  0.00    +0.000 C 
BRANCH  19  20
ATOM     20  C   UNL     1       7.980   9.431  18.066  0.00  0.00    +0.000 C 
BRANCH  20  21
ATOM     21  N   UNL     1       8.989   9.797  19.020  0.00  0.00    +0.000 N 
ATOM     22  H   UNL     1       9.252   9.087  19.711  0.00  0.00    +0.000 HD
BRANCH  21  23
ATOM     23  C   UNL     1       9.608  11.086  18.994  0.00  0.00    +0.000 A 
ATOM     24  C   UNL     1      10.285  11.524  17.832  0.00  0.00    +0.000 A 
ATOM     25  C   UNL     1      10.886  12.779  17.793  0.00  0.00    +0.000 A 
ATOM     26  C   UNL     1      11.645  13.228  16.579  0.00  0.00    +0.000 C 
ATOM     27  N   UNL     1      10.797  13.598  18.869  0.00  0.00    +0.000 NA
ATOM     28  C   UNL     1      10.166  13.231  20.018  0.00  0.00    +0.000 A 
ATOM     29  C   UNL     1      10.115  14.120  21.112  0.00  0.00    +0.000 A 
ATOM     30  C   UNL     1      10.687  15.508  21.043  0.00  0.00    +0.000 C 
ATOM     31  C   UNL     1       9.509  13.715  22.307  0.00  0.00    +0.000 A 
ATOM     32  C   UNL     1       8.944  12.450  22.419  0.00  0.00    +0.000 A 
ATOM     33  C   UNL     1       8.961  11.576  21.341  0.00  0.00    +0.000 A 
ATOM     34  C   UNL     1       9.567  11.946  20.119  0.00  0.00    +0.000 A 
ENDBRANCH  21  23
ENDBRANCH  20  21
ENDBRANCH  19  20
ENDBRANCH  18  19
ENDBRANCH   1  18
TORSDOF 9
ENDMDL
MODEL 6
REMARK VINA RESULT:      -7.9      4.148     10.862
REMARK  Name = 
REMARK  13 active torsions:
REMARK  status: ('A' for Active; 'I' for Inactive)
REMARK    1  A    between atoms: C_1  and  C_2
REMARK    2  A    between atoms: C_4  and  N_5
REMARK    3  A    between atoms: N_5  and  C_6
REMARK    4  A    between atoms: C_6  and  C_7
REMARK    5  A    between atoms: C_7  and  C_8
REMARK    6  A    between atoms: C_8  and  C_9
REMARK    7  A    between atoms: C_9  and  C_10
REMARK    8  A    between atoms: C_10  and  C_11
REMARK    9  A    between atoms: C_11  and  N_12
REMARK   10  A    between atoms: N_12  and  C_13
REMARK   11  A    between atoms: C_15  and  C_16
REMARK   12  A    between atoms: C_19  and  C_20
REMARK   13  A    between atoms: C_29  and  C_30
REMARK                            x       y       z     vdW  Elec       q    Type
REMARK                         _______ _______ _______ _____ _____    ______ ____
ROOT
ATOM      1  C   UNL     1       0.335  10.651  21.251  0.00  0.00    +0.000 C 
ENDROOT
BRANCH   1   2
ATOM      2  C   UNL     1       0.934   9.297  21.599  0.00  0.00    +0.000 C 
BRANCH   2   3
ATOM      3  C   UNL     1       1.404   8.556  20.340  0.00  0.00    +0.000 C 
BRANCH   3   4
ATOM      4  N   UNL     1       1.853   7.228  20.667  0.00  0.00    +0.000 N 
ATOM      5  H   UNL     1       1.719   6.925  21.636  0.00  0.00    +0.000 HD
BRANCH   4   9
ATOM      6  C   UNL     1       4.725   6.561  16.638  0.00  0.00    +0.000 C 
ATOM      7  C   UNL     1       3.851   6.028  17.733  0.00  0.00    +0.000 A 
ATOM      8  C   UNL     1       3.284   6.874  18.687  0.00  0.00    +0.000 A 
ATOM      9  C   UNL     1       2.434   6.357  19.688  0.00  0.00    +0.000 A 
ATOM     10  C   UNL     1       2.167   4.961  19.701  0.00  0.00    +0.000 A 
ATOM     11  C   UNL     1       1.304   4.349  20.640  0.00  0.00    +0.000 A 
ATOM     12  C   UNL     1       1.074   2.977  20.606  0.00  0.00    +0.000 A 
ATOM     13  C   UNL     1       1.703   2.182  19.654  0.00  0.00    +0.000 A 
ATOM     14  C   UNL     1       2.565   2.754  18.712  0.00  0.00    +0.000 A 
ATOM     15  C   UNL     1       3.252   1.885  17.697  0.00  0.00    +0.000 C 
ATOM     16  C   UNL     1       2.790   4.143  18.724  0.00  0.00    +0.000 A 
ATOM     17  N   UNL     1       3.601   4.699  17.787  0.00  0.00    +0.000 NA
ENDBRANCH   4   9
ENDBRANCH   3   4
ENDBRANCH   2   3
ENDBRANCH   1   2
BRANCH   1  18
ATOM     18  C   UNL     1       0.192  10.865  19.727  0.00  0.00    +0.000 C 
BRANCH  18  19
ATOM     19  C   UNL     1      -1.238  10.655  19.245  0.00  0.00    +0.000 C 
BRANCH  19  20
ATOM     20  C   UNL     1      -1.648  11.769  18.279  0.00  0.00    +0.000 C 
BRANCH  20  21
ATOM     21  N   UNL     1      -2.233  12.880  18.977  0.00  0.00    +0.000 N 
ATOM     22  H   UNL     1      -1.921  13.816  18.699  0.00  0.00    +0.000 HD
BRANCH  21  23
ATOM     23  C   UNL     1      -3.216  12.686  19.997  0.00  0.00    +0.000 A 
ATOM     24  C   UNL     1      -2.877  12.884  21.355  0.00  0.00    +0.000 A 
ATOM     25  C   UNL     1      -3.827  12.704  22.357  0.00  0.00    +0.000 A 
ATOM     26  C   UNL     1      -3.459  12.867  23.802  0.00  0.00    +0.000 C 
ATOM     27  N   UNL     1      -5.095  12.362  22.022  0.00  0.00    +0.000 NA
ATOM     28  C   UNL     1      -5.480  12.150  20.734  0.00  0.00    +0.000 A 
ATOM     29  C   UNL     1      -6.812  11.783  20.446  0.00  0.00    +0.000 A 
ATOM     30  C   UNL     1      -7.862  11.672  21.516  0.00  0.00    +0.000 C 
ATOM     31  C   UNL     1      -7.187  11.517  19.124  0.00  0.00    +0.000 A 
ATOM     32  C   UNL     1      -6.262  11.626  18.092  0.00  0.00    +0.000 A 
ATOM     33  C   UNL     1      -4.956  12.014  18.358  0.00  0.00    +0.000 A 
ATOM     34  C   UNL     1      -4.538  12.287  19.680  0.00  0.00    +0.000 A 
ENDBRANCH  21  23
ENDBRANCH  20  21
ENDBRANCH  19  20
ENDBRANCH  18  19
ENDBRANCH   1  18
TORSDOF 9
ENDMDL
MODEL 7
REMARK VINA RESULT:      -7.7      2.422      4.131
REMARK  Name = 
REMARK  13 active torsions:
REMARK  status: ('A' for Active; 'I' for Inactive)
REMARK    1  A    between atoms: C_1  and  C_2
REMARK    2  A    between atoms: C_4  and  N_5
REMARK    3  A    between atoms: N_5  and  C_6
REMARK    4  A    between atoms: C_6  and  C_7
REMARK    5  A    between atoms: C_7  and  C_8
REMARK    6  A    between atoms: C_8  and  C_9
REMARK    7  A    between atoms: C_9  and  C_10
REMARK    8  A    between atoms: C_10  and  C_11
REMARK    9  A    between atoms: C_11  and  N_12
REMARK   10  A    between atoms: N_12  and  C_13
REMARK   11  A    between atoms: C_15  and  C_16
REMARK   12  A    between atoms: C_19  and  C_20
REMARK   13  A    between atoms: C_29  and  C_30
REMARK                            x       y       z     vdW  Elec       q    Type
REMARK                         _______ _______ _______ _____ _____    ______ ____
ROOT
ATOM      1  C   UNL     1       2.140   7.255  18.149  0.00  0.00    +0.000 C 
ENDROOT
BRANCH   1   2
ATOM      2  C   UNL     1       2.982   8.477  17.817  0.00  0.00    +0.000 C 
BRANCH   2   3
ATOM      3  C   UNL     1       2.138   9.758  17.846  0.00  0.00    +0.000 C 
BRANCH   3   4
ATOM      4  N   UNL     1       0.734   9.445  17.836  0.00  0.00    +0.000 N 
ATOM      5  H   UNL     1       0.452   8.623  17.295  0.00  0.00    +0.000 HD
BRANCH   4   9
ATOM      6  C   UNL     1      -0.509  12.095  21.881  0.00  0.00    +0.000 C 
ATOM      7  C   UNL     1      -0.827  11.531  20.528  0.00  0.00    +0.000 A 
ATOM      8  C   UNL     1       0.106  10.774  19.818  0.00  0.00    +0.000 A 
ATOM      9  C   UNL     1      -0.226  10.221  18.563  0.00  0.00    +0.000 A 
ATOM     10  C   UNL     1      -1.529  10.450  18.041  0.00  0.00    +0.000 A 
ATOM     11  C   UNL     1      -1.971   9.913  16.809  0.00  0.00    +0.000 A 
ATOM     12  C   UNL     1      -3.259  10.164  16.346  0.00  0.00    +0.000 A 
ATOM     13  C   UNL     1      -4.129  10.962  17.082  0.00  0.00    +0.000 A 
ATOM     14  C   UNL     1      -3.723  11.511  18.304  0.00  0.00    +0.000 A 
ATOM     15  C   UNL     1      -4.663  12.383  19.086  0.00  0.00    +0.000 C 
ATOM     16  C   UNL     1      -2.430  11.247  18.793  0.00  0.00    +0.000 A 
ATOM     17  N   UNL     1      -2.050  11.754  19.995  0.00  0.00    +0.000 NA
ENDBRANCH   4   9
ENDBRANCH   3   4
ENDBRANCH   2   3
ENDBRANCH   1   2
BRANCH   1  18
ATOM     18  C   UNL     1       2.831   6.313  19.161  0.00  0.00    +0.000 C 
BRANCH  18  19
ATOM     19  C   UNL     1       2.538   4.844  18.878  0.00  0.00    +0.000 C 
BRANCH  19  20
ATOM     20  C   UNL     1       2.927   4.486  17.442  0.00  0.00    +0.000 C 
BRANCH  20  21
ATOM     21  N   UNL     1       4.245   3.919  17.381  0.00  0.00    +0.000 N 
ATOM     22  H   UNL     1       4.353   2.961  17.731  0.00  0.00    +0.000 HD
BRANCH  21  23
ATOM     23  C   UNL     1       5.348   4.651  16.842  0.00  0.00    +0.000 A 
ATOM     24  C   UNL     1       6.050   5.574  17.651  0.00  0.00    +0.000 A 
ATOM     25  C   UNL     1       7.130   6.288  17.138  0.00  0.00    +0.000 A 
ATOM     26  C   UNL     1       7.848   7.302  17.979  0.00  0.00    +0.000 C 
ATOM     27  N   UNL     1       7.526   6.076  15.859  0.00  0.00    +0.000 NA
ATOM     28  C   UNL     1       6.886   5.207  15.030  0.00  0.00    +0.000 A 
ATOM     29  C   UNL     1       7.336   5.036  13.703  0.00  0.00    +0.000 A 
ATOM     30  C   UNL     1       8.552   5.741  13.172  0.00  0.00    +0.000 C 
ATOM     31  C   UNL     1       6.640   4.180  12.841  0.00  0.00    +0.000 A 
ATOM     32  C   UNL     1       5.522   3.486  13.286  0.00  0.00    +0.000 A 
ATOM     33  C   UNL     1       5.086   3.622  14.597  0.00  0.00    +0.000 A 
ATOM     34  C   UNL     1       5.758   4.481  15.496  0.00  0.00    +0.000 A 
ENDBRANCH  21  23
ENDBRANCH  20  21
ENDBRANCH  19  20
ENDBRANCH  18  19
ENDBRANCH   1  18
TORSDOF 9
ENDMDL
MODEL 8
REMARK VINA RESULT:      -7.7      4.771      8.252
REMARK  Name = 
REMARK  13 active torsions:
REMARK  status: ('A' for Active; 'I' for Inactive)
REMARK    1  A    between atoms: C_1  and  C_2
REMARK    2  A    between atoms: C_4  and  N_5
REMARK    3  A    between atoms: N_5  and  C_6
REMARK    4  A    between atoms: C_6  and  C_7
REMARK    5  A    between atoms: C_7  and  C_8
REMARK    6  A    between atoms: C_8  and  C_9
REMARK    7  A    between atoms: C_9  and  C_10
REMARK    8  A    between atoms: C_10  and  C_11
REMARK    9  A    between atoms: C_11  and  N_12
REMARK   10  A    between atoms: N_12  and  C_13
REMARK   11  A    between atoms: C_15  and  C_16
REMARK   12  A    between atoms: C_19  and  C_20
REMARK   13  A    between atoms: C_29  and  C_30
REMARK                            x       y       z     vdW  Elec       q    Type
REMARK                         _______ _______ _______ _____ _____    ______ ____
ROOT
ATOM      1  C   UNL     1       8.051   6.861  18.402  0.00  0.00    +0.000 C 
ENDROOT
BRANCH   1   2
ATOM      2  C   UNL     1       7.414   8.163  17.939  0.00  0.00    +0.000 C 
BRANCH   2   3
ATOM      3  C   UNL     1       8.478   9.230  17.652  0.00  0.00    +0.000 C 
BRANCH   3   4
ATOM      4  N   UNL     1       9.011   9.764  18.877  0.00  0.00    +0.000 N 
ATOM      5  H   UNL     1       8.948   9.163  19.704  0.00  0.00    +0.000 HD
BRANCH   4   9
ATOM      6  C   UNL     1      11.738  13.369  16.758  0.00  0.00    +0.000 C 
ATOM      7  C   UNL     1      10.938  12.826  17.903  0.00  0.00    +0.000 A 
ATOM      8  C   UNL     1      10.341  11.566  17.841  0.00  0.00    +0.000 A 
ATOM      9  C   UNL     1       9.622  11.058  18.944  0.00  0.00    +0.000 A 
ATOM     10  C   UNL     1       9.522  11.855  20.117  0.00  0.00    +0.000 A 
ATOM     11  C   UNL     1       8.854  11.425  21.287  0.00  0.00    +0.000 A 
ATOM     12  C   UNL     1       8.788  12.244  22.410  0.00  0.00    +0.000 A 
ATOM     13  C   UNL     1       9.368  13.508  22.394  0.00  0.00    +0.000 A 
ATOM     14  C   UNL     1      10.036  13.966  21.252  0.00  0.00    +0.000 A 
ATOM     15  C   UNL     1      10.647  15.338  21.239  0.00  0.00    +0.000 C 
ATOM     16  C   UNL     1      10.126  13.139  20.117  0.00  0.00    +0.000 A 
ATOM     17  N   UNL     1      10.803  13.574  19.023  0.00  0.00    +0.000 NA
ENDBRANCH   4   9
ENDBRANCH   3   4
ENDBRANCH   2   3
ENDBRANCH   1   2
BRANCH   1  18
ATOM     18  C   UNL     1       7.386   5.616  17.772  0.00  0.00    +0.000 C 
BRANCH  18  19
ATOM     19  C   UNL     1       5.865   5.683  17.825  0.00  0.00    +0.000 C 
BRANCH  19  20
ATOM     20  C   UNL     1       5.250   4.409  17.241  0.00  0.00    +0.000 C 
BRANCH  20  21
ATOM     21  N   UNL     1       3.815   4.443  17.304  0.00  0.00    +0.000 N 
ATOM     22  H   UNL     1       3.308   4.165  16.457  0.00  0.00    +0.000 HD
BRANCH  21  23
ATOM     23  C   UNL     1       3.130   4.829  18.498  0.00  0.00    +0.000 A 
ATOM     24  C   UNL     1       2.883   3.876  19.513  0.00  0.00    +0.000 A 
ATOM     25  C   UNL     1       2.222   4.242  20.682  0.00  0.00    +0.000 A 
ATOM     26  C   UNL     1       1.916   3.224  21.741  0.00  0.00    +0.000 C 
ATOM     27  N   UNL     1       1.837   5.530  20.859  0.00  0.00    +0.000 NA
ATOM     28  C   UNL     1       2.040   6.490  19.916  0.00  0.00    +0.000 A 
ATOM     29  C   UNL     1       1.606   7.812  20.149  0.00  0.00    +0.000 A 
ATOM     30  C   UNL     1       0.970   8.230  21.445  0.00  0.00    +0.000 C 
ATOM     31  C   UNL     1       1.773   8.782  19.153  0.00  0.00    +0.000 A 
ATOM     32  C   UNL     1       2.375   8.455  17.944  0.00  0.00    +0.000 A 
ATOM     33  C   UNL     1       2.832   7.165  17.712  0.00  0.00    +0.000 A 
ATOM     34  C   UNL     1       2.678   6.158  18.691  0.00  0.00    +0.000 A 
ENDBRANCH  21  23
ENDBRANCH  20  21
ENDBRANCH  19  20
ENDBRANCH  18  19
ENDBRANCH   1  18
TORSDOF 9
ENDMDL
MODEL 9
REMARK VINA RESULT:      -7.7      5.059      8.342
REMARK  Name = 
REMARK  13 active torsions:
REMARK  status: ('A' for Active; 'I' for Inactive)
REMARK    1  A    between atoms: C_1  and  C_2
REMARK    2  A    between atoms: C_4  and  N_5
REMARK    3  A    between atoms: N_5  and  C_6
REMARK    4  A    between atoms: C_6  and  C_7
REMARK    5  A    between atoms: C_7  and  C_8
REMARK    6  A    between atoms: C_8  and  C_9
REMARK    7  A    between atoms: C_9  and  C_10
REMARK    8  A    between atoms: C_10  and  C_11
REMARK    9  A    between atoms: C_11  and  N_12
REMARK   10  A    between atoms: N_12  and  C_13
REMARK   11  A    between atoms: C_15  and  C_16
REMARK   12  A    between atoms: C_19  and  C_20
REMARK   13  A    between atoms: C_29  and  C_30
REMARK                            x       y       z     vdW  Elec       q    Type
REMARK                         _______ _______ _______ _____ _____    ______ ____
ROOT
ATOM      1  C   UNL     1       7.153   5.937  17.253  0.00  0.00    +0.000 C 
ENDROOT
BRANCH   1   2
ATOM      2  C   UNL     1       7.401   5.591  15.792  0.00  0.00    +0.000 C 
BRANCH   2   3
ATOM      3  C   UNL     1       6.122   5.077  15.117  0.00  0.00    +0.000 C 
BRANCH   3   4
ATOM      4  N   UNL     1       4.953   5.639  15.742  0.00  0.00    +0.000 N 
ATOM      5  H   UNL     1       4.608   6.522  15.355  0.00  0.00    +0.000 HD
BRANCH   4   9
ATOM      6  C   UNL     1       3.739   1.467  18.200  0.00  0.00    +0.000 C 
ATOM      7  C   UNL     1       3.706   2.957  18.042  0.00  0.00    +0.000 A 
ATOM      8  C   UNL     1       4.357   3.590  16.982  0.00  0.00    +0.000 A 
ATOM      9  C   UNL     1       4.284   4.991  16.830  0.00  0.00    +0.000 A 
ATOM     10  C   UNL     1       3.533   5.740  17.776  0.00  0.00    +0.000 A 
ATOM     11  C   UNL     1       3.369   7.143  17.695  0.00  0.00    +0.000 A 
ATOM     12  C   UNL     1       2.620   7.828  18.647  0.00  0.00    +0.000 A 
ATOM     13  C   UNL     1       2.029   7.143  19.704  0.00  0.00    +0.000 A 
ATOM     14  C   UNL     1       2.172   5.755  19.816  0.00  0.00    +0.000 A 
ATOM     15  C   UNL     1       1.544   5.026  20.968  0.00  0.00    +0.000 C 
ATOM     16  C   UNL     1       2.912   5.049  18.849  0.00  0.00    +0.000 A 
ATOM     17  N   UNL     1       3.021   3.698  18.942  0.00  0.00    +0.000 NA
ENDBRANCH   4   9
ENDBRANCH   3   4
ENDBRANCH   2   3
ENDBRANCH   1   2
BRANCH   1  18
ATOM     18  C   UNL     1       7.116   7.461  17.506  0.00  0.00    +0.000 C 
BRANCH  18  19
ATOM     19  C   UNL     1       8.349   7.953  18.255  0.00  0.00    +0.000 C 
BRANCH  19  20
ATOM     20  C   UNL     1       8.469   9.475  18.151  0.00  0.00    +0.000 C 
BRANCH  20  21
ATOM     21  N   UNL     1       9.127  10.028  19.302  0.00  0.00    +0.000 N 
ATOM     22  H   UNL     1       9.116   9.463  20.157  0.00  0.00    +0.000 HD
BRANCH  21  23
ATOM     23  C   UNL     1       9.779  11.299  19.249  0.00  0.00    +0.000 A 
ATOM     24  C   UNL     1      10.560  11.648  18.123  0.00  0.00    +0.000 A 
ATOM     25  C   UNL     1      11.195  12.886  18.057  0.00  0.00    +0.000 A 
ATOM     26  C   UNL     1      12.062  13.241  16.885  0.00  0.00    +0.000 C 
ATOM     27  N   UNL     1      11.040  13.772  19.070  0.00  0.00    +0.000 NA
ATOM     28  C   UNL     1      10.309  13.492  20.183  0.00  0.00    +0.000 A 
ATOM     29  C   UNL     1      10.193  14.449  21.213  0.00  0.00    +0.000 A 
ATOM     30  C   UNL     1      10.805  15.817  21.107  0.00  0.00    +0.000 C 
ATOM     31  C   UNL     1       9.481  14.132  22.376  0.00  0.00    +0.000 A 
ATOM     32  C   UNL     1       8.875  12.890  22.517  0.00  0.00    +0.000 A 
ATOM     33  C   UNL     1       8.957  11.949  21.500  0.00  0.00    +0.000 A 
ATOM     34  C   UNL     1       9.670  12.229  20.313  0.00  0.00    +0.000 A 
ENDBRANCH  21  23
ENDBRANCH  20  21
ENDBRANCH  19  20
ENDBRANCH  18  19
ENDBRANCH   1  18
TORSDOF 9
ENDMDL
