MODEL 1
REMARK VINA RESULT:      -7.3      0.000      0.000
REMARK  Name = 
REMARK  14 active torsions:
REMARK  status: ('A' for Active; 'I' for Inactive)
REMARK    1  A    between atoms: C_1  and  N_2
REMARK    2  A    between atoms: N_2  and  C_3
REMARK    3  A    between atoms: C_4  and  O_6
REMARK    4  A    between atoms: O_6  and  C_7
REMARK    5  A    between atoms: C_10  and  C_11
REMARK    6  A    between atoms: C_11  and  C_13
REMARK    7  A    between atoms: C_14  and  C_15
REMARK    8  A    between atoms: C_18  and  N_19
REMARK    9  A    between atoms: N_19  and  C_20
REMARK   10  A    between atoms: N_19  and  C_21
REMARK   11  A    between atoms: C_24  and  O_25
REMARK   12  A    between atoms: O_25  and  C_26
REMARK   13  A    between atoms: N_28  and  C_29
REMARK   14  A    between atoms: N_28  and  C_30
REMARK                            x       y       z     vdW  Elec       q    Type
REMARK                         _______ _______ _______ _____ _____    ______ ____
ROOT
ATOM      1  C   UNL     1      -2.953  11.043  18.455  0.00  0.00    +0.000 A 
ATOM      2  C   UNL     1      -2.424  10.035  17.661  0.00  0.00    +0.000 A 
ATOM      3  C   UNL     1      -1.043   9.810  17.668  0.00  0.00    +0.000 A 
ATOM      4  C   UNL     1      -0.183  10.547  18.512  0.00  0.00    +0.000 A 
ATOM      5  C   UNL     1      -0.749  11.534  19.344  0.00  0.00    +0.000 A 
ATOM      6  C   UNL     1      -2.126  11.793  19.290  0.00  0.00    +0.000 A 
ENDROOT
BRANCH   4   7
ATOM      7  C   UNL     1       1.296  10.292  18.441  0.00  0.00    +0.000 C 
ATOM      8  O   UNL     1       2.087  11.172  18.125  0.00  0.00    +0.000 OA
BRANCH   7   9
ATOM      9  C   UNL     1       1.760   8.896  18.745  0.00  0.00    +0.000 C 
ATOM     10  C   UNL     1       2.407   8.148  17.835  0.00  0.00    +0.000 C 
BRANCH  10  11
ATOM     11  C   UNL     1       2.794   6.756  18.110  0.00  0.00    +0.000 A 
ATOM     12  C   UNL     1       4.065   6.286  17.762  0.00  0.00    +0.000 A 
ATOM     13  C   UNL     1       4.429   4.953  18.029  0.00  0.00    +0.000 A 
ATOM     14  C   UNL     1       3.562   4.039  18.650  0.00  0.00    +0.000 A 
ATOM     15  C   UNL     1       2.294   4.541  18.983  0.00  0.00    +0.000 A 
ATOM     16  C   UNL     1       1.909   5.869  18.716  0.00  0.00    +0.000 A 
BRANCH  14  17
ATOM     17  N   UNL     1       3.934   2.718  18.873  0.00  0.00    +0.000 N 
ATOM     18  C   UNL     1       4.487   2.289  20.158  0.00  0.00    +0.000 C 
ATOM     19  C   UNL     1       3.498   1.622  18.012  0.00  0.00    +0.000 C 
ENDBRANCH  14  17
ENDBRANCH  10  11
ENDBRANCH   7   9
ENDBRANCH   4   7
BRANCH   1  20
ATOM     20  O   UNL     1      -4.353  11.188  18.482  0.00  0.00    +0.000 OA
BRANCH  20  24
ATOM     21  C   UNL     1      -6.584  13.542  16.829  0.00  0.00    +0.000 C 
ATOM     22  N   UNL     1      -6.070  12.587  17.792  0.00  0.00    +0.000 N 
ATOM     23  C   UNL     1      -6.405  12.760  19.193  0.00  0.00    +0.000 C 
ATOM     24  C   UNL     1      -4.961  11.838  17.407  0.00  0.00    +0.000 C 
ATOM     25  O   UNL     1      -4.552  11.791  16.250  0.00  0.00    +0.000 OA
ENDBRANCH  20  24
ENDBRANCH   1  20
BRANCH   5  26
ATOM     26  O   UNL     1       0.077  12.305  20.208  0.00  0.00    +0.000 OA
BRANCH  26  27
ATOM     27  C   UNL     1      -0.249  12.521  21.559  0.00  0.00    +0.000 C 
ATOM     28  O   UNL     1      -0.218  11.643  22.418  0.00  0.00    +0.000 OA
ATOM     29  N   UNL     1      -0.611  13.831  21.848  0.00  0.00    +0.000 N 
ATOM     30  C   UNL     1      -0.548  14.912  20.883  0.00  0.00    +0.000 C 
ATOM     31  C   UNL     1      -0.955  14.194  23.214  0.00  0.00    +0.000 C 
ENDBRANCH  26  27
ENDBRANCH   5  26
TORSDOF 8
ENDMDL
MODEL 2
REMARK VINA RESULT:      -7.2      3.141     10.019
REMARK  Name = 
REMARK  14 active torsions:
REMARK  status: ('A' for Active; 'I' for Inactive)
REMARK    1  A    between atoms: C_1  and  N_2
REMARK    2  A    between atoms: N_2  and  C_3
REMARK    3  A    between atoms: C_4  and  O_6
REMARK    4  A    between atoms: O_6  and  C_7
REMARK    5  A    between atoms: C_10  and  C_11
REMARK    6  A    between atoms: C_11  and  C_13
REMARK    7  A    between atoms: C_14  and  C_15
REMARK    8  A    between atoms: C_18  and  N_19
REMARK    9  A    between atoms: N_19  and  C_20
REMARK   10  A    between atoms: N_19  and  C_21
REMARK   11  A    between atoms: C_24  and  O_25
REMARK   12  A    between atoms: O_25  and  C_26
REMARK   13  A    between atoms: N_28  and  C_29
REMARK   14  A    between atoms: N_28  and  C_30
REMARK                            x       y       z     vdW  Elec       q    Type
REMARK                         _______ _______ _______ _____ _____    ______ ____
ROOT
ATOM      1  C   UNL     1       2.868   5.109  20.042  0.00  0.00    +0.000 A 
ATOM      2  C   UNL     1       1.944   6.002  20.566  0.00  0.00    +0.000 A 
ATOM      3  C   UNL     1       1.744   7.234  19.931  0.00  0.00    +0.000 A 
ATOM      4  C   UNL     1       2.420   7.561  18.735  0.00  0.00    +0.000 A 
ATOM      5  C   UNL     1       3.320   6.619  18.196  0.00  0.00    +0.000 A 
ATOM      6  C   UNL     1       3.557   5.410  18.868  0.00  0.00    +0.000 A 
ENDROOT
BRANCH   4   7
ATOM      7  C   UNL     1       2.200   8.917  18.125  0.00  0.00    +0.000 C 
ATOM      8  O   UNL     1       3.056   9.462  17.441  0.00  0.00    +0.000 OA
BRANCH   7   9
ATOM      9  C   UNL     1       0.889   9.589  18.421  0.00  0.00    +0.000 C 
ATOM     10  C   UNL     1      -0.176   9.455  17.612  0.00  0.00    +0.000 C 
BRANCH  10  11
ATOM     11  C   UNL     1      -1.435  10.173  17.864  0.00  0.00    +0.000 A 
ATOM     12  C   UNL     1      -1.499  11.186  18.826  0.00  0.00    +0.000 A 
ATOM     13  C   UNL     1      -2.706  11.870  19.061  0.00  0.00    +0.000 A 
ATOM     14  C   UNL     1      -3.889  11.587  18.358  0.00  0.00    +0.000 A 
ATOM     15  C   UNL     1      -3.792  10.563  17.402  0.00  0.00    +0.000 A 
ATOM     16  C   UNL     1      -2.594   9.862  17.159  0.00  0.00    +0.000 A 
BRANCH  14  17
ATOM     17  N   UNL     1      -5.077  12.254  18.632  0.00  0.00    +0.000 N 
ATOM     18  C   UNL     1      -6.138  12.364  17.629  0.00  0.00    +0.000 C 
ATOM     19  C   UNL     1      -5.500  12.582  19.991  0.00  0.00    +0.000 C 
ENDBRANCH  14  17
ENDBRANCH  10  11
ENDBRANCH   7   9
ENDBRANCH   4   7
BRANCH   1  20
ATOM     20  O   UNL     1       2.984   3.851  20.661  0.00  0.00    +0.000 OA
BRANCH  20  24
ATOM     21  C   UNL     1       3.633   1.180  18.274  0.00  0.00    +0.000 C 
ATOM     22  N   UNL     1       2.944   2.024  19.230  0.00  0.00    +0.000 N 
ATOM     23  C   UNL     1       1.531   2.289  19.036  0.00  0.00    +0.000 C 
ATOM     24  C   UNL     1       3.732   2.869  20.008  0.00  0.00    +0.000 C 
ATOM     25  O   UNL     1       4.954   2.773  20.077  0.00  0.00    +0.000 OA
ENDBRANCH  20  24
ENDBRANCH   1  20
BRANCH   5  26
ATOM     26  O   UNL     1       4.027   6.905  16.996  0.00  0.00    +0.000 OA
BRANCH  26  27
ATOM     27  C   UNL     1       5.414   6.699  16.878  0.00  0.00    +0.000 C 
ATOM     28  O   UNL     1       6.260   7.433  17.386  0.00  0.00    +0.000 OA
ATOM     29  N   UNL     1       5.755   5.577  16.133  0.00  0.00    +0.000 N 
ATOM     30  C   UNL     1       4.783   4.631  15.618  0.00  0.00    +0.000 C 
ATOM     31  C   UNL     1       7.157   5.239  15.949  0.00  0.00    +0.000 C 
ENDBRANCH  26  27
ENDBRANCH   5  26
TORSDOF 8
ENDMDL
MODEL 3
REMARK VINA RESULT:      -7.2      1.448      1.942
REMARK  Name = 
REMARK  14 active torsions:
REMARK  status: ('A' for Active; 'I' for Inactive)
REMARK    1  A    between atoms: C_1  and  N_2
REMARK    2  A    between atoms: N_2  and  C_3
REMARK    3  A    between atoms: C_4  and  O_6
REMARK    4  A    between atoms: O_6  and  C_7
REMARK    5  A    between atoms: C_10  and  C_11
REMARK    6  A    between atoms: C_11  and  C_13
REMARK    7  A    between atoms: C_14  and  C_15
REMARK    8  A    between atoms: C_18  and  N_19
REMARK    9  A    between atoms: N_19  and  C_20
REMARK   10  A    between atoms: N_19  and  C_21
REMARK   11  A    between atoms: C_24  and  O_25
REMARK   12  A    between atoms: O_25  and  C_26
REMARK   13  A    between atoms: N_28  and  C_29
REMARK   14  A    between atoms: N_28  and  C_30
REMARK                            x       y       z     vdW  Elec       q    Type
REMARK                         _______ _______ _______ _____ _____    ______ ____
ROOT
ATOM      1  C   UNL     1      -3.381  11.993  18.875  0.00  0.00    +0.000 A 
ATOM      2  C   UNL     1      -2.832  11.383  17.756  0.00  0.00    +0.000 A 
ATOM      3  C   UNL     1      -1.488  10.992  17.778  0.00  0.00    +0.000 A 
ATOM      4  C   UNL     1      -0.696  11.151  18.937  0.00  0.00    +0.000 A 
ATOM      5  C   UNL     1      -1.288  11.731  20.077  0.00  0.00    +0.000 A 
ATOM      6  C   UNL     1      -2.619  12.173  20.029  0.00  0.00    +0.000 A 
ENDROOT
BRANCH   4   7
ATOM      7  C   UNL     1       0.753  10.756  18.885  0.00  0.00    +0.000 C 
ATOM      8  O   UNL     1       1.615  11.522  18.475  0.00  0.00    +0.000 OA
BRANCH   7   9
ATOM      9  C   UNL     1       1.092   9.362  19.330  0.00  0.00    +0.000 C 
ATOM     10  C   UNL     1       1.958   8.590  18.651  0.00  0.00    +0.000 C 
BRANCH  10  11
ATOM     11  C   UNL     1       2.232   7.200  19.047  0.00  0.00    +0.000 A 
ATOM     12  C   UNL     1       1.819   6.718  20.293  0.00  0.00    +0.000 A 
ATOM     13  C   UNL     1       2.083   5.386  20.665  0.00  0.00    +0.000 A 
ATOM     14  C   UNL     1       2.757   4.483  19.827  0.00  0.00    +0.000 A 
ATOM     15  C   UNL     1       3.162   4.999  18.585  0.00  0.00    +0.000 A 
ATOM     16  C   UNL     1       2.913   6.331  18.199  0.00  0.00    +0.000 A 
BRANCH  14  17
ATOM     17  N   UNL     1       3.035   3.183  20.230  0.00  0.00    +0.000 N 
ATOM     18  C   UNL     1       4.116   2.409  19.618  0.00  0.00    +0.000 C 
ATOM     19  C   UNL     1       2.533   2.624  21.483  0.00  0.00    +0.000 C 
ENDBRANCH  14  17
ENDBRANCH  10  11
ENDBRANCH   7   9
ENDBRANCH   4   7
BRANCH   1  20
ATOM     20  O   UNL     1      -4.754  12.300  18.844  0.00  0.00    +0.000 OA
BRANCH  20  24
ATOM     21  C   UNL     1      -7.520  10.738  20.623  0.00  0.00    +0.000 C 
ATOM     22  N   UNL     1      -6.351  11.553  20.353  0.00  0.00    +0.000 N 
ATOM     23  C   UNL     1      -6.222  12.831  21.025  0.00  0.00    +0.000 C 
ATOM     24  C   UNL     1      -5.656  11.288  19.176  0.00  0.00    +0.000 C 
ATOM     25  O   UNL     1      -5.849  10.285  18.493  0.00  0.00    +0.000 OA
ENDBRANCH  20  24
ENDBRANCH   1  20
BRANCH   5  26
ATOM     26  O   UNL     1      -0.529  11.917  21.265  0.00  0.00    +0.000 OA
BRANCH  26  27
ATOM     27  C   UNL     1      -1.113  12.373  22.462  0.00  0.00    +0.000 C 
ATOM     28  O   UNL     1      -1.813  11.673  23.191  0.00  0.00    +0.000 OA
ATOM     29  N   UNL     1      -0.825  13.700  22.758  0.00  0.00    +0.000 N 
ATOM     30  C   UNL     1       0.087  14.516  21.980  0.00  0.00    +0.000 C 
ATOM     31  C   UNL     1      -1.352  14.291  23.978  0.00  0.00    +0.000 C 
ENDBRANCH  26  27
ENDBRANCH   5  26
TORSDOF 8
ENDMDL
MODEL 4
REMARK VINA RESULT:      -7.2      2.201      8.634
REMARK  Name = 
REMARK  14 active torsions:
REMARK  status: ('A' for Active; 'I' for Inactive)
REMARK    1  A    between atoms: C_1  and  N_2
REMARK    2  A    between atoms: N_2  and  C_3
REMARK    3  A    between atoms: C_4  and  O_6
REMARK    4  A    between atoms: O_6  and  C_7
REMARK    5  A    between atoms: C_10  and  C_11
REMARK    6  A    between atoms: C_11  and  C_13
REMARK    7  A    between atoms: C_14  and  C_15
REMARK    8  A    between atoms: C_18  and  N_19
REMARK    9  A    between atoms: N_19  and  C_20
REMARK   10  A    between atoms: N_19  and  C_21
REMARK   11  A    between atoms: C_24  and  O_25
REMARK   12  A    between atoms: O_25  and  C_26
REMARK   13  A    between atoms: N_28  and  C_29
REMARK   14  A    between atoms: N_28  and  C_30
REMARK                            x       y       z     vdW  Elec       q    Type
REMARK                         _______ _______ _______ _____ _____    ______ ____
ROOT
ATOM      1  C   UNL     1       1.948   6.995  19.782  0.00  0.00    +0.000 A 
ATOM      2  C   UNL     1       2.118   7.373  18.458  0.00  0.00    +0.000 A 
ATOM      3  C   UNL     1       1.900   8.707  18.091  0.00  0.00    +0.000 A 
ATOM      4  C   UNL     1       1.568   9.687  19.052  0.00  0.00    +0.000 A 
ATOM      5  C   UNL     1       1.446   9.289  20.398  0.00  0.00    +0.000 A 
ATOM      6  C   UNL     1       1.610   7.941  20.750  0.00  0.00    +0.000 A 
ENDROOT
BRANCH   4   7
ATOM      7  C   UNL     1       1.300  11.092  18.591  0.00  0.00    +0.000 C 
ATOM      8  O   UNL     1       2.206  11.846  18.262  0.00  0.00    +0.000 OA
BRANCH   7   9
ATOM      9  C   UNL     1      -0.134  11.541  18.582  0.00  0.00    +0.000 C 
ATOM     10  C   UNL     1      -1.140  10.700  18.287  0.00  0.00    +0.000 C 
BRANCH  10  11
ATOM     11  C   UNL     1      -2.535  11.159  18.206  0.00  0.00    +0.000 A 
ATOM     12  C   UNL     1      -3.304  10.912  17.064  0.00  0.00    +0.000 A 
ATOM     13  C   UNL     1      -4.639  11.353  16.995  0.00  0.00    +0.000 A 
ATOM     14  C   UNL     1      -5.265  12.047  18.043  0.00  0.00    +0.000 A 
ATOM     15  C   UNL     1      -4.466  12.282  19.174  0.00  0.00    +0.000 A 
ATOM     16  C   UNL     1      -3.126  11.855  19.258  0.00  0.00    +0.000 A 
BRANCH  14  17
ATOM     17  N   UNL     1      -6.574  12.500  17.937  0.00  0.00    +0.000 N 
ATOM     18  C   UNL     1      -7.521  12.363  19.044  0.00  0.00    +0.000 C 
ATOM     19  C   UNL     1      -7.002  13.429  16.894  0.00  0.00    +0.000 C 
ENDBRANCH  14  17
ENDBRANCH  10  11
ENDBRANCH   7   9
ENDBRANCH   4   7
BRANCH   1  20
ATOM     20  O   UNL     1       2.252   5.666  20.127  0.00  0.00    +0.000 OA
BRANCH  20  24
ATOM     21  C   UNL     1       4.036   3.472  17.834  0.00  0.00    +0.000 C 
ATOM     22  N   UNL     1       3.024   3.967  18.747  0.00  0.00    +0.000 N 
ATOM     23  C   UNL     1       1.637   3.621  18.505  0.00  0.00    +0.000 C 
ATOM     24  C   UNL     1       3.363   5.073  19.522  0.00  0.00    +0.000 C 
ATOM     25  O   UNL     1       4.512   5.493  19.628  0.00  0.00    +0.000 OA
ENDBRANCH  20  24
ENDBRANCH   1  20
BRANCH   5  26
ATOM     26  O   UNL     1       1.109  10.240  21.401  0.00  0.00    +0.000 OA
BRANCH  26  27
ATOM     27  C   UNL     1      -0.112  10.189  22.099  0.00  0.00    +0.000 C 
ATOM     28  O   UNL     1      -0.611   9.151  22.527  0.00  0.00    +0.000 OA
ATOM     29  N   UNL     1      -0.713  11.430  22.272  0.00  0.00    +0.000 N 
ATOM     30  C   UNL     1      -0.095  12.682  21.879  0.00  0.00    +0.000 C 
ATOM     31  C   UNL     1      -1.971  11.521  22.994  0.00  0.00    +0.000 C 
ENDBRANCH  26  27
ENDBRANCH   5  26
TORSDOF 8
ENDMDL
MODEL 5
REMARK VINA RESULT:      -7.1      0.982      1.293
REMARK  Name = 
REMARK  14 active torsions:
REMARK  status: ('A' for Active; 'I' for Inactive)
REMARK    1  A    between atoms: C_1  and  N_2
REMARK    2  A    between atoms: N_2  and  C_3
REMARK    3  A    between atoms: C_4  and  O_6
REMARK    4  A    between atoms: O_6  and  C_7
REMARK    5  A    between atoms: C_10  and  C_11
REMARK    6  A    between atoms: C_11  and  C_13
REMARK    7  A    between atoms: C_14  and  C_15
REMARK    8  A    between atoms: C_18  and  N_19
REMARK    9  A    between atoms: N_19  and  C_20
REMARK   10  A    between atoms: N_19  and  C_21
REMARK   11  A    between atoms: C_24  and  O_25
REMARK   12  A    between atoms: O_25  and  C_26
REMARK   13  A    between atoms: N_28  and  C_29
REMARK   14  A    between atoms: N_28  and  C_30
REMARK                            x       y       z     vdW  Elec       q    Type
REMARK                         _______ _______ _______ _____ _____    ______ ____
ROOT
ATOM      1  C   UNL     1      -2.621  11.366  18.588  0.00  0.00    +0.000 A 
ATOM      2  C   UNL     1      -2.248  10.077  18.234  0.00  0.00    +0.000 A 
ATOM      3  C   UNL     1      -0.888   9.762  18.121  0.00  0.00    +0.000 A 
ATOM      4  C   UNL     1       0.112  10.713  18.417  0.00  0.00    +0.000 A 
ATOM      5  C   UNL     1      -0.290  12.003  18.819  0.00  0.00    +0.000 A 
ATOM      6  C   UNL     1      -1.653  12.328  18.876  0.00  0.00    +0.000 A 
ENDROOT
BRANCH   4   7
ATOM      7  C   UNL     1       1.554  10.331  18.231  0.00  0.00    +0.000 C 
ATOM      8  O   UNL     1       2.384  11.131  17.821  0.00  0.00    +0.000 OA
BRANCH   7   9
ATOM      9  C   UNL     1       1.924   8.909  18.543  0.00  0.00    +0.000 C 
ATOM     10  C   UNL     1       2.780   8.213  17.776  0.00  0.00    +0.000 C 
BRANCH  10  11
ATOM     11  C   UNL     1       3.084   6.799  18.041  0.00  0.00    +0.000 A 
ATOM     12  C   UNL     1       2.062   5.893  18.341  0.00  0.00    +0.000 A 
ATOM     13  C   UNL     1       2.359   4.540  18.593  0.00  0.00    +0.000 A 
ATOM     14  C   UNL     1       3.668   4.030  18.553  0.00  0.00    +0.000 A 
ATOM     15  C   UNL     1       4.671   4.966  18.252  0.00  0.00    +0.000 A 
ATOM     16  C   UNL     1       4.393   6.325  18.006  0.00  0.00    +0.000 A 
BRANCH  14  17
ATOM     17  N   UNL     1       3.939   2.697  18.838  0.00  0.00    +0.000 N 
ATOM     18  C   UNL     1       4.448   2.285  20.147  0.00  0.00    +0.000 C 
ATOM     19  C   UNL     1       3.431   1.600  18.019  0.00  0.00    +0.000 C 
ENDBRANCH  14  17
ENDBRANCH  10  11
ENDBRANCH   7   9
ENDBRANCH   4   7
BRANCH   1  20
ATOM     20  O   UNL     1      -3.992  11.624  18.769  0.00  0.00    +0.000 OA
BRANCH  20  24
ATOM     21  C   UNL     1      -6.702  13.144  16.872  0.00  0.00    +0.000 C 
ATOM     22  N   UNL     1      -5.977  12.510  17.956  0.00  0.00    +0.000 N 
ATOM     23  C   UNL     1      -6.293  12.884  19.321  0.00  0.00    +0.000 C 
ATOM     24  C   UNL     1      -4.753  11.926  17.638  0.00  0.00    +0.000 C 
ATOM     25  O   UNL     1      -4.381  11.733  16.483  0.00  0.00    +0.000 OA
ENDBRANCH  20  24
ENDBRANCH   1  20
BRANCH   5  26
ATOM     26  O   UNL     1       0.682  12.997  19.123  0.00  0.00    +0.000 OA
BRANCH  26  27
ATOM     27  C   UNL     1       1.030  13.321  20.447  0.00  0.00    +0.000 C 
ATOM     28  O   UNL     1       1.361  12.490  21.290  0.00  0.00    +0.000 OA
ATOM     29  N   UNL     1       0.974  14.681  20.727  0.00  0.00    +0.000 N 
ATOM     30  C   UNL     1       0.698  15.695  19.726  0.00  0.00    +0.000 C 
ATOM     31  C   UNL     1       1.328  15.153  22.055  0.00  0.00    +0.000 C 
ENDBRANCH  26  27
ENDBRANCH   5  26
TORSDOF 8
ENDMDL
MODEL 6
REMARK VINA RESULT:      -7.1      1.141      1.809
REMARK  Name = 
REMARK  14 active torsions:
REMARK  status: ('A' for Active; 'I' for Inactive)
REMARK    1  A    between atoms: C_1  and  N_2
REMARK    2  A    between atoms: N_2  and  C_3
REMARK    3  A    between atoms: C_4  and  O_6
REMARK    4  A    between atoms: O_6  and  C_7
REMARK    5  A    between atoms: C_10  and  C_11
REMARK    6  A    between atoms: C_11  and  C_13
REMARK    7  A    between atoms: C_14  and  C_15
REMARK    8  A    between atoms: C_18  and  N_19
REMARK    9  A    between atoms: N_19  and  C_20
REMARK   10  A    between atoms: N_19  and  C_21
REMARK   11  A    between atoms: C_24  and  O_25
REMARK   12  A    between atoms: O_25  and  C_26
REMARK   13  A    between atoms: N_28  and  C_29
REMARK   14  A    between atoms: N_28  and  C_30
REMARK                            x       y       z     vdW  Elec       q    Type
REMARK                         _______ _______ _______ _____ _____    ______ ____
ROOT
ATOM      1  C   UNL     1      -3.498  10.916  17.464  0.00  0.00    +0.000 A 
ATOM      2  C   UNL     1      -2.698  10.027  16.759  0.00  0.00    +0.000 A 
ATOM      3  C   UNL     1      -1.354   9.876  17.123  0.00  0.00    +0.000 A 
ATOM      4  C   UNL     1      -0.812  10.566  18.230  0.00  0.00    +0.000 A 
ATOM      5  C   UNL     1      -1.655  11.428  18.959  0.00  0.00    +0.000 A 
ATOM      6  C   UNL     1      -2.985  11.617  18.555  0.00  0.00    +0.000 A 
ENDROOT
BRANCH   4   7
ATOM      7  C   UNL     1       0.649  10.400  18.543  0.00  0.00    +0.000 C 
ATOM      8  O   UNL     1       1.407  11.358  18.603  0.00  0.00    +0.000 OA
BRANCH   7   9
ATOM      9  C   UNL     1       1.143   8.996  18.747  0.00  0.00    +0.000 C 
ATOM     10  C   UNL     1       2.132   8.475  18.000  0.00  0.00    +0.000 C 
BRANCH  10  11
ATOM     11  C   UNL     1       2.564   7.078  18.152  0.00  0.00    +0.000 A 
ATOM     12  C   UNL     1       1.710   6.123  18.714  0.00  0.00    +0.000 A 
ATOM     13  C   UNL     1       2.130   4.787  18.856  0.00  0.00    +0.000 A 
ATOM     14  C   UNL     1       3.397   4.341  18.446  0.00  0.00    +0.000 A 
ATOM     15  C   UNL     1       4.231   5.324  17.889  0.00  0.00    +0.000 A 
ATOM     16  C   UNL     1       3.832   6.668  17.747  0.00  0.00    +0.000 A 
BRANCH  14  17
ATOM     17  N   UNL     1       3.800   3.023  18.627  0.00  0.00    +0.000 N 
ATOM     18  C   UNL     1       4.555   2.613  19.811  0.00  0.00    +0.000 C 
ATOM     19  C   UNL     1       3.228   1.916  17.866  0.00  0.00    +0.000 C 
ENDBRANCH  14  17
ENDBRANCH  10  11
ENDBRANCH   7   9
ENDBRANCH   4   7
BRANCH   1  20
ATOM     20  O   UNL     1      -4.861  10.982  17.121  0.00  0.00    +0.000 OA
BRANCH  20  24
ATOM     21  C   UNL     1      -7.674  12.375  18.965  0.00  0.00    +0.000 C 
ATOM     22  N   UNL     1      -6.483  12.290  18.141  0.00  0.00    +0.000 N 
ATOM     23  C   UNL     1      -6.325  13.227  17.046  0.00  0.00    +0.000 C 
ATOM     24  C   UNL     1      -5.790  11.082  18.158  0.00  0.00    +0.000 C 
ATOM     25  O   UNL     1      -6.005  10.196  18.980  0.00  0.00    +0.000 OA
ENDBRANCH  20  24
ENDBRANCH   1  20
BRANCH   5  26
ATOM     26  O   UNL     1      -1.153  12.147  20.079  0.00  0.00    +0.000 OA
BRANCH  26  27
ATOM     27  C   UNL     1      -1.360  13.531  20.233  0.00  0.00    +0.000 C 
ATOM     28  O   UNL     1      -0.893  14.380  19.477  0.00  0.00    +0.000 OA
ATOM     29  N   UNL     1      -2.153  13.863  21.325  0.00  0.00    +0.000 N 
ATOM     30  C   UNL     1      -2.810  12.881  22.167  0.00  0.00    +0.000 C 
ATOM     31  C   UNL     1      -2.460  15.259  21.588  0.00  0.00    +0.000 C 
ENDBRANCH  26  27
ENDBRANCH   5  26
TORSDOF 8
ENDMDL
MODEL 7
REMARK VINA RESULT:      -7.1      1.779      2.229
REMARK  Name = 
REMARK  14 active torsions:
REMARK  status: ('A' for Active; 'I' for Inactive)
REMARK    1  A    between atoms: C_1  and  N_2
REMARK    2  A    between atoms: N_2  and  C_3
REMARK    3  A    between atoms: C_4  and  O_6
REMARK    4  A    between atoms: O_6  and  C_7
REMARK    5  A    between atoms: C_10  and  C_11
REMARK    6  A    between atoms: C_11  and  C_13
REMARK    7  A    between atoms: C_14  and  C_15
REMARK    8  A    between atoms: C_18  and  N_19
REMARK    9  A    between atoms: N_19  and  C_20
REMARK   10  A    between atoms: N_19  and  C_21
REMARK   11  A    between atoms: C_24  and  O_25
REMARK   12  A    between atoms: O_25  and  C_26
REMARK   13  A    between atoms: N_28  and  C_29
REMARK   14  A    between atoms: N_28  and  C_30
REMARK                            x       y       z     vdW  Elec       q    Type
REMARK                         _______ _______ _______ _____ _____    ______ ____
ROOT
ATOM      1  C   UNL     1      -4.223  11.178  18.080  0.00  0.00    +0.000 A 
ATOM      2  C   UNL     1      -3.364  10.428  17.290  0.00  0.00    +0.000 A 
ATOM      3  C   UNL     1      -1.983  10.521  17.499  0.00  0.00    +0.000 A 
ATOM      4  C   UNL     1      -1.449  11.316  18.537  0.00  0.00    +0.000 A 
ATOM      5  C   UNL     1      -2.344  12.033  19.357  0.00  0.00    +0.000 A 
ATOM      6  C   UNL     1      -3.723  11.980  19.105  0.00  0.00    +0.000 A 
ENDROOT
BRANCH   4   7
ATOM      7  C   UNL     1       0.043  11.413  18.682  0.00  0.00    +0.000 C 
ATOM      8  O   UNL     1       0.640  12.468  18.511  0.00  0.00    +0.000 OA
BRANCH   7   9
ATOM      9  C   UNL     1       0.776  10.145  19.016  0.00  0.00    +0.000 C 
ATOM     10  C   UNL     1       1.589   9.540  18.133  0.00  0.00    +0.000 C 
BRANCH  10  11
ATOM     11  C   UNL     1       2.247   8.260  18.436  0.00  0.00    +0.000 A 
ATOM     12  C   UNL     1       3.161   7.697  17.540  0.00  0.00    +0.000 A 
ATOM     13  C   UNL     1       3.789   6.472  17.837  0.00  0.00    +0.000 A 
ATOM     14  C   UNL     1       3.543   5.761  19.024  0.00  0.00    +0.000 A 
ATOM     15  C   UNL     1       2.618   6.351  19.900  0.00  0.00    +0.000 A 
ATOM     16  C   UNL     1       1.975   7.572  19.616  0.00  0.00    +0.000 A 
BRANCH  14  17
ATOM     17  N   UNL     1       4.150   4.538  19.279  0.00  0.00    +0.000 N 
ATOM     18  C   UNL     1       3.407   3.428  19.878  0.00  0.00    +0.000 C 
ATOM     19  C   UNL     1       5.423   4.151  18.676  0.00  0.00    +0.000 C 
ENDBRANCH  14  17
ENDBRANCH  10  11
ENDBRANCH   7   9
ENDBRANCH   4   7
BRANCH   1  20
ATOM     20  O   UNL     1      -5.606  10.999  17.894  0.00  0.00    +0.000 OA
BRANCH  20  24
ATOM     21  C   UNL     1      -7.850  11.151  20.756  0.00  0.00    +0.000 C 
ATOM     22  N   UNL     1      -7.172  10.659  19.573  0.00  0.00    +0.000 N 
ATOM     23  C   UNL     1      -6.871   9.244  19.478  0.00  0.00    +0.000 C 
ATOM     24  C   UNL     1      -6.471  11.594  18.815  0.00  0.00    +0.000 C 
ATOM     25  O   UNL     1      -6.584  12.807  18.972  0.00  0.00    +0.000 OA
ENDBRANCH  20  24
ENDBRANCH   1  20
BRANCH   5  26
ATOM     26  O   UNL     1      -1.854  12.852  20.411  0.00  0.00    +0.000 OA
BRANCH  26  27
ATOM     27  C   UNL     1      -2.150  12.589  21.762  0.00  0.00    +0.000 C 
ATOM     28  O   UNL     1      -1.707  11.625  22.383  0.00  0.00    +0.000 OA
ATOM     29  N   UNL     1      -2.993  13.526  22.346  0.00  0.00    +0.000 N 
ATOM     30  C   UNL     1      -3.440  14.732  21.674  0.00  0.00    +0.000 C 
ATOM     31  C   UNL     1      -3.364  13.381  23.744  0.00  0.00    +0.000 C 
ENDBRANCH  26  27
ENDBRANCH   5  26
TORSDOF 8
ENDMDL
MODEL 8
REMARK VINA RESULT:      -7.0      3.125     10.046
REMARK  Name = 
REMARK  14 active torsions:
REMARK  status: ('A' for Active; 'I' for Inactive)
REMARK    1  A    between atoms: C_1  and  N_2
REMARK    2  A    between atoms: N_2  and  C_3
REMARK    3  A    between atoms: C_4  and  O_6
REMARK    4  A    between atoms: O_6  and  C_7
REMARK    5  A    between atoms: C_10  and  C_11
REMARK    6  A    between atoms: C_11  and  C_13
REMARK    7  A    between atoms: C_14  and  C_15
REMARK    8  A    between atoms: C_18  and  N_19
REMARK    9  A    between atoms: N_19  and  C_20
REMARK   10  A    between atoms: N_19  and  C_21
REMARK   11  A    between atoms: C_24  and  O_25
REMARK   12  A    between atoms: O_25  and  C_26
REMARK   13  A    between atoms: N_28  and  C_29
REMARK   14  A    between atoms: N_28  and  C_30
REMARK                            x       y       z     vdW  Elec       q    Type
REMARK                         _______ _______ _______ _____ _____    ______ ____
ROOT
ATOM      1  C   UNL     1       2.970   5.041  20.044  0.00  0.00    +0.000 A 
ATOM      2  C   UNL     1       1.947   5.870  20.483  0.00  0.00    +0.000 A 
ATOM      3  C   UNL     1       1.705   7.075  19.813  0.00  0.00    +0.000 A 
ATOM      4  C   UNL     1       2.441   7.437  18.664  0.00  0.00    +0.000 A 
ATOM      5  C   UNL     1       3.445   6.557  18.209  0.00  0.00    +0.000 A 
ATOM      6  C   UNL     1       3.720   5.379  18.918  0.00  0.00    +0.000 A 
ENDROOT
BRANCH   4   7
ATOM      7  C   UNL     1       2.168   8.765  18.016  0.00  0.00    +0.000 C 
ATOM      8  O   UNL     1       3.070   9.458  17.563  0.00  0.00    +0.000 OA
BRANCH   7   9
ATOM      9  C   UNL     1       0.737   9.220  17.978  0.00  0.00    +0.000 C 
ATOM     10  C   UNL     1       0.351  10.399  18.495  0.00  0.00    +0.000 C 
BRANCH  10  11
ATOM     11  C   UNL     1      -1.061  10.808  18.523  0.00  0.00    +0.000 A 
ATOM     12  C   UNL     1      -1.983  10.253  17.630  0.00  0.00    +0.000 A 
ATOM     13  C   UNL     1      -3.334  10.648  17.662  0.00  0.00    +0.000 A 
ATOM     14  C   UNL     1      -3.825  11.597  18.574  0.00  0.00    +0.000 A 
ATOM     15  C   UNL     1      -2.874  12.138  19.454  0.00  0.00    +0.000 A 
ATOM     16  C   UNL     1      -1.517  11.760  19.430  0.00  0.00    +0.000 A 
BRANCH  14  17
ATOM     17  N   UNL     1      -5.157  11.995  18.564  0.00  0.00    +0.000 N 
ATOM     18  C   UNL     1      -6.214  11.108  18.078  0.00  0.00    +0.000 C 
ATOM     19  C   UNL     1      -5.641  13.141  19.330  0.00  0.00    +0.000 C 
ENDBRANCH  14  17
ENDBRANCH  10  11
ENDBRANCH   7   9
ENDBRANCH   4   7
BRANCH   1  20
ATOM     20  O   UNL     1       3.132   3.803  20.692  0.00  0.00    +0.000 OA
BRANCH  20  24
ATOM     21  C   UNL     1       3.661   1.138  18.269  0.00  0.00    +0.000 C 
ATOM     22  N   UNL     1       3.012   1.995  19.242  0.00  0.00    +0.000 N 
ATOM     23  C   UNL     1       1.607   2.312  19.065  0.00  0.00    +0.000 C 
ATOM     24  C   UNL     1       3.837   2.803  20.020  0.00  0.00    +0.000 C 
ATOM     25  O   UNL     1       5.056   2.662  20.074  0.00  0.00    +0.000 OA
ENDBRANCH  20  24
ENDBRANCH   1  20
BRANCH   5  26
ATOM     26  O   UNL     1       4.216   6.881  17.058  0.00  0.00    +0.000 OA
BRANCH  26  27
ATOM     27  C   UNL     1       5.036   5.934  16.417  0.00  0.00    +0.000 C 
ATOM     28  O   UNL     1       4.606   5.022  15.715  0.00  0.00    +0.000 OA
ATOM     29  N   UNL     1       6.394   6.122  16.643  0.00  0.00    +0.000 N 
ATOM     30  C   UNL     1       6.937   7.254  17.371  0.00  0.00    +0.000 C 
ATOM     31  C   UNL     1       7.353   5.223  16.022  0.00  0.00    +0.000 C 
ENDBRANCH  26  27
ENDBRANCH   5  26
TORSDOF 8
ENDMDL
MODEL 9
REMARK VINA RESULT:      -7.0      2.504      5.328
REMARK  Name = 
REMARK  14 active torsions:
REMARK  status: ('A' for Active; 'I' for Inactive)
REMARK    1  A    between atoms: C_1  and  N_2
REMARK    2  A    between atoms: N_2  and  C_3
REMARK    3  A    between atoms: C_4  and  O_6
REMARK    4  A    between atoms: O_6  and  C_7
REMARK    5  A    between atoms: C_10  and  C_11
REMARK    6  A    between atoms: C_11  and  C_13
REMARK    7  A    between atoms: C_14  and  C_15
REMARK    8  A    between atoms: C_18  and  N_19
REMARK    9  A    between atoms: N_19  and  C_20
REMARK   10  A    between atoms: N_19  and  C_21
REMARK   11  A    between atoms: C_24  and  O_25
REMARK   12  A    between atoms: O_25  and  C_26
REMARK   13  A    between atoms: N_28  and  C_29
REMARK   14  A    between atoms: N_28  and  C_30
REMARK                            x       y       z     vdW  Elec       q    Type
REMARK                         _______ _______ _______ _____ _____    ______ ____
ROOT
ATOM      1  C   UNL     1       0.514  13.960  19.418  0.00  0.00    +0.000 A 
ATOM      2  C   UNL     1       1.248  13.643  20.551  0.00  0.00    +0.000 A 
ATOM      3  C   UNL     1       0.957  12.465  21.250  0.00  0.00    +0.000 A 
ATOM      4  C   UNL     1      -0.030  11.565  20.792  0.00  0.00    +0.000 A 
ATOM      5  C   UNL     1      -0.732  11.886  19.613  0.00  0.00    +0.000 A 
ATOM      6  C   UNL     1      -0.474  13.094  18.949  0.00  0.00    +0.000 A 
ENDROOT
BRANCH   4   7
ATOM      7  C   UNL     1      -0.331  10.341  21.611  0.00  0.00    +0.000 C 
ATOM      8  O   UNL     1      -1.108  10.374  22.556  0.00  0.00    +0.000 OA
BRANCH   7   9
ATOM      9  C   UNL     1       0.392   9.079  21.235  0.00  0.00    +0.000 C 
ATOM     10  C   UNL     1       1.179   9.007  20.148  0.00  0.00    +0.000 C 
BRANCH  10  11
ATOM     11  C   UNL     1       1.825   7.750  19.741  0.00  0.00    +0.000 A 
ATOM     12  C   UNL     1       2.494   7.655  18.516  0.00  0.00    +0.000 A 
ATOM     13  C   UNL     1       3.112   6.450  18.133  0.00  0.00    +0.000 A 
ATOM     14  C   UNL     1       3.098   5.300  18.940  0.00  0.00    +0.000 A 
ATOM     15  C   UNL     1       2.416   5.427  20.161  0.00  0.00    +0.000 A 
ATOM     16  C   UNL     1       1.785   6.623  20.557  0.00  0.00    +0.000 A 
BRANCH  14  17
ATOM     17  N   UNL     1       3.688   4.112  18.525  0.00  0.00    +0.000 N 
ATOM     18  C   UNL     1       4.226   3.960  17.172  0.00  0.00    +0.000 C 
ATOM     19  C   UNL     1       4.122   3.080  19.463  0.00  0.00    +0.000 C 
ENDBRANCH  14  17
ENDBRANCH  10  11
ENDBRANCH   7   9
ENDBRANCH   4   7
BRANCH   1  20
ATOM     20  O   UNL     1       0.887  15.110  18.697  0.00  0.00    +0.000 OA
BRANCH  20  24
ATOM     21  C   UNL     1       4.189  16.643  18.746  0.00  0.00    +0.000 C 
ATOM     22  N   UNL     1       2.746  16.498  18.754  0.00  0.00    +0.000 N 
ATOM     23  C   UNL     1       1.957  17.414  19.554  0.00  0.00    +0.000 C 
ATOM     24  C   UNL     1       2.235  15.262  18.365  0.00  0.00    +0.000 C 
ATOM     25  O   UNL     1       2.914  14.395  17.821  0.00  0.00    +0.000 OA
ENDBRANCH  20  24
ENDBRANCH   1  20
BRANCH   5  26
ATOM     26  O   UNL     1      -1.738  11.012  19.115  0.00  0.00    +0.000 OA
BRANCH  26  27
ATOM     27  C   UNL     1      -1.666  10.444  17.830  0.00  0.00    +0.000 C 
ATOM     28  O   UNL     1      -0.749   9.716  17.455  0.00  0.00    +0.000 OA
ATOM     29  N   UNL     1      -2.736  10.774  17.008  0.00  0.00    +0.000 N 
ATOM     30  C   UNL     1      -3.887  11.536  17.456  0.00  0.00    +0.000 C 
ATOM     31  C   UNL     1      -2.794  10.237  15.658  0.00  0.00    +0.000 C 
ENDBRANCH  26  27
ENDBRANCH   5  26
TORSDOF 8
ENDMDL
