MODEL 1
REMARK VINA RESULT:      -8.0      0.000      0.000
REMARK  Name = 
REMARK  14 active torsions:
REMARK  status: ('A' for Active; 'I' for Inactive)
REMARK    1  A    between atoms: C_1  and  O_2
REMARK    2  A    between atoms: O_2  and  C_3
REMARK    3  A    between atoms: C_3  and  C_4
REMARK    4  A    between atoms: C_4  and  N_5
REMARK    5  A    between atoms: N_5  and  C_6
REMARK    6  A    between atoms: C_8  and  C_9
REMARK    7  A    between atoms: C_12  and  N_13
REMARK    8  A    between atoms: N_13  and  CA_14
REMARK    9  A    between atoms: CA_14  and  CB_15
REMARK   10  A    between atoms: CA_14  and  C_16
REMARK   11  A    between atoms: C_16  and  O_17
REMARK   12  A    between atoms: C_18  and  S_19
REMARK   13  A    between atoms: S_19  and  C_20
REMARK   14  A    between atoms: N_28  and  C_29
REMARK                            x       y       z     vdW  Elec       q    Type
REMARK                         _______ _______ _______ _____ _____    ______ ____
ROOT
ATOM      1  C   UNK A   0       0.156  10.180  19.211  0.00  0.00    +0.000 A 
ATOM      2  N   UNK A   0       1.004   9.244  18.711  0.00  0.00    +0.000 NA
ATOM      3  C   UNK A   0       1.601   8.372  19.548  0.00  0.00    +0.000 A 
ATOM      4  C   UNK A   0       1.373   8.385  20.923  0.00  0.00    +0.000 A 
ATOM      5  C   UNK A   0       0.495   9.326  21.444  0.00  0.00    +0.000 A 
ATOM      6  N   UNK A   0       0.266   9.323  22.830  0.00  0.00    +0.000 NA
ATOM      7  C   UNK A   0      -0.572  10.182  23.295  0.00  0.00    +0.000 A 
ATOM      8  N   UNK A   0      -1.252  11.104  22.544  0.00  0.00    +0.000 N 
ATOM      9  C   UNK A   0      -2.212  11.998  23.155  0.00  0.00    +0.000 C 
ATOM     10  C   UNK A   0      -1.066  11.198  21.169  0.00  0.00    +0.000 A 
ATOM     11  O   UNK A   0      -1.671  11.997  20.470  0.00  0.00    +0.000 OA
ATOM     12  C   UNK A   0      -0.111  10.234  20.575  0.00  0.00    +0.000 A 
ENDROOT
BRANCH   3  13
ATOM     13  C   UNK A   0       2.566   7.442  18.936  0.00  0.00    +0.000 A 
ATOM     14  C   UNK A   0       3.325   7.828  17.830  0.00  0.00    +0.000 A 
ATOM     15  C   UNK A   0       4.165   6.931  17.167  0.00  0.00    +0.000 A 
ATOM     16  C   UNK A   0       4.213   5.576  17.520  0.00  0.00    +0.000 A 
ATOM     17  C   UNK A   0       3.533   5.207  18.690  0.00  0.00    +0.000 A 
ATOM     18  C   UNK A   0       2.731   6.128  19.404  0.00  0.00    +0.000 A 
BRANCH  17  19
ATOM     19  S   UNK A   0       3.572   3.527  19.288  0.00  0.00    +0.000 S 
ATOM     20  C   UNK A   0       2.634   3.556  20.795  0.00  0.00    +0.000 C 
ATOM     21  O   UNK A   0       2.865   2.686  18.325  0.00  0.00    +0.000 OA
ATOM     22  O   UNK A   0       4.940   3.212  19.635  0.00  0.00    +0.000 OA
ENDBRANCH  17  19
BRANCH  16  23
ATOM     23  N   ALA A   1       4.887   4.636  16.730  0.00  0.00    +0.000 N 
ATOM     24  H   ALA A   1       4.902   3.705  17.155  0.00  0.00    +0.000 HD
BRANCH  23  25
ATOM     25  CA  ALA A   1       6.129   4.982  16.013  0.00  0.00    +0.000 C 
ATOM     26  CB  ALA A   1       6.408   3.984  14.882  0.00  0.00    +0.000 C 
BRANCH  25  27
ATOM     27  C   ALA A   1       7.312   4.932  17.011  0.00  0.00    +0.000 C 
BRANCH  27  28
ATOM     28  O   ALA A   1       7.085   3.997  18.066  0.00  0.00    +0.000 OA
ATOM     29  H   ALA A   1       7.803   4.133  18.719  0.00  0.00    +0.000 HD
ENDBRANCH  27  28
ENDBRANCH  25  27
ENDBRANCH  23  25
ENDBRANCH  16  23
ENDBRANCH   3  13
BRANCH   1  30
ATOM     30  N   UNK A   0      -0.352  11.147  18.317  0.00  0.00    +0.000 N 
ATOM     31  H   UNK A   0      -0.796  11.899  18.863  0.00  0.00    +0.000 HD
BRANCH  30  32
ATOM     32  C   UNK A   0      -1.287  10.627  17.312  0.00  0.00    +0.000 C 
BRANCH  32  33
ATOM     33  C   UNK A   0      -2.609  11.409  17.347  0.00  0.00    +0.000 C 
BRANCH  33  35
ATOM     34  C   UNK A   0      -3.005  10.167  15.392  0.00  0.00    +0.000 C 
ATOM     35  O   UNK A   0      -3.599  10.763  16.539  0.00  0.00    +0.000 OA
ENDBRANCH  33  35
ENDBRANCH  32  33
ENDBRANCH  30  32
ENDBRANCH   1  30
TORSDOF 10
ENDMDL
MODEL 2
REMARK VINA RESULT:      -7.8      1.222      1.274
REMARK  Name = 
REMARK  14 active torsions:
REMARK  status: ('A' for Active; 'I' for Inactive)
REMARK    1  A    between atoms: C_1  and  O_2
REMARK    2  A    between atoms: O_2  and  C_3
REMARK    3  A    between atoms: C_3  and  C_4
REMARK    4  A    between atoms: C_4  and  N_5
REMARK    5  A    between atoms: N_5  and  C_6
REMARK    6  A    between atoms: C_8  and  C_9
REMARK    7  A    between atoms: C_12  and  N_13
REMARK    8  A    between atoms: N_13  and  CA_14
REMARK    9  A    between atoms: CA_14  and  CB_15
REMARK   10  A    between atoms: CA_14  and  C_16
REMARK   11  A    between atoms: C_16  and  O_17
REMARK   12  A    between atoms: C_18  and  S_19
REMARK   13  A    between atoms: S_19  and  C_20
REMARK   14  A    between atoms: N_28  and  C_29
REMARK                            x       y       z     vdW  Elec       q    Type
REMARK                         _______ _______ _______ _____ _____    ______ ____
ROOT
ATOM      1  C   UNK A   0      -0.285  10.155  18.394  0.00  0.00    +0.000 A 
ATOM      2  N   UNK A   0       0.576   9.164  18.045  0.00  0.00    +0.000 NA
ATOM      3  C   UNK A   0       1.379   8.620  18.981  0.00  0.00    +0.000 A 
ATOM      4  C   UNK A   0       1.356   9.032  20.312  0.00  0.00    +0.000 A 
ATOM      5  C   UNK A   0       0.469  10.032  20.685  0.00  0.00    +0.000 A 
ATOM      6  N   UNK A   0       0.448  10.432  22.031  0.00  0.00    +0.000 NA
ATOM      7  C   UNK A   0      -0.400  11.342  22.367  0.00  0.00    +0.000 A 
ATOM      8  N   UNK A   0      -1.278  11.953  21.512  0.00  0.00    +0.000 N 
ATOM      9  C   UNK A   0      -2.227  12.932  21.997  0.00  0.00    +0.000 C 
ATOM     10  C   UNK A   0      -1.307  11.640  20.157  0.00  0.00    +0.000 A 
ATOM     11  O   UNK A   0      -2.091  12.156  19.374  0.00  0.00    +0.000 OA
ATOM     12  C   UNK A   0      -0.352  10.600  19.709  0.00  0.00    +0.000 A 
ENDROOT
BRANCH   3  13
ATOM     13  C   UNK A   0       2.338   7.608  18.504  0.00  0.00    +0.000 A 
ATOM     14  C   UNK A   0       3.437   7.976  17.728  0.00  0.00    +0.000 A 
ATOM     15  C   UNK A   0       4.297   7.025  17.174  0.00  0.00    +0.000 A 
ATOM     16  C   UNK A   0       4.043   5.653  17.291  0.00  0.00    +0.000 A 
ATOM     17  C   UNK A   0       3.001   5.278  18.153  0.00  0.00    +0.000 A 
ATOM     18  C   UNK A   0       2.165   6.238  18.769  0.00  0.00    +0.000 A 
BRANCH  17  19
ATOM     19  S   UNK A   0       2.619   3.560  18.445  0.00  0.00    +0.000 S 
ATOM     20  C   UNK A   0       1.279   3.581  19.610  0.00  0.00    +0.000 C 
ATOM     21  O   UNK A   0       2.128   2.985  17.194  0.00  0.00    +0.000 OA
ATOM     22  O   UNK A   0       3.757   2.959  19.103  0.00  0.00    +0.000 OA
ENDBRANCH  17  19
BRANCH  16  23
ATOM     23  N   ALA A   1       4.777   4.706  16.566  0.00  0.00    +0.000 N 
ATOM     24  H   ALA A   1       5.170   3.973  17.162  0.00  0.00    +0.000 HD
BRANCH  23  25
ATOM     25  CA  ALA A   1       5.661   5.105  15.454  0.00  0.00    +0.000 C 
ATOM     26  CB  ALA A   1       5.505   4.157  14.259  0.00  0.00    +0.000 C 
BRANCH  25  27
ATOM     27  C   ALA A   1       7.130   5.044  15.937  0.00  0.00    +0.000 C 
BRANCH  27  28
ATOM     28  O   ALA A   1       7.608   6.320  16.363  0.00  0.00    +0.000 OA
ATOM     29  H   ALA A   1       6.816   6.863  16.560  0.00  0.00    +0.000 HD
ENDBRANCH  27  28
ENDBRANCH  25  27
ENDBRANCH  23  25
ENDBRANCH  16  23
ENDBRANCH   3  13
BRANCH   1  30
ATOM     30  N   UNK A   0      -1.020  10.777  17.362  0.00  0.00    +0.000 N 
ATOM     31  H   UNK A   0      -1.325  11.705  17.688  0.00  0.00    +0.000 HD
BRANCH  30  32
ATOM     32  C   UNK A   0      -2.169  10.007  16.871  0.00  0.00    +0.000 C 
BRANCH  32  33
ATOM     33  C   UNK A   0      -2.924  10.791  15.788  0.00  0.00    +0.000 C 
BRANCH  33  35
ATOM     34  C   UNK A   0      -3.801   9.993  13.759  0.00  0.00    +0.000 C 
ATOM     35  O   UNK A   0      -2.613  10.281  14.486  0.00  0.00    +0.000 OA
ENDBRANCH  33  35
ENDBRANCH  32  33
ENDBRANCH  30  32
ENDBRANCH   1  30
TORSDOF 10
ENDMDL
MODEL 3
REMARK VINA RESULT:      -7.7      1.820      2.460
REMARK  Name = 
REMARK  14 active torsions:
REMARK  status: ('A' for Active; 'I' for Inactive)
REMARK    1  A    between atoms: C_1  and  O_2
REMARK    2  A    between atoms: O_2  and  C_3
REMARK    3  A    between atoms: C_3  and  C_4
REMARK    4  A    between atoms: C_4  and  N_5
REMARK    5  A    between atoms: N_5  and  C_6
REMARK    6  A    between atoms: C_8  and  C_9
REMARK    7  A    between atoms: C_12  and  N_13
REMARK    8  A    between atoms: N_13  and  CA_14
REMARK    9  A    between atoms: CA_14  and  CB_15
REMARK   10  A    between atoms: CA_14  and  C_16
REMARK   11  A    between atoms: C_16  and  O_17
REMARK   12  A    between atoms: C_18  and  S_19
REMARK   13  A    between atoms: S_19  and  C_20
REMARK   14  A    between atoms: N_28  and  C_29
REMARK                            x       y       z     vdW  Elec       q    Type
REMARK                         _______ _______ _______ _____ _____    ______ ____
ROOT
ATOM      1  C   UNK A   0       1.088  10.305  19.184  0.00  0.00    +0.000 A 
ATOM      2  N   UNK A   0       1.809   9.287  18.646  0.00  0.00    +0.000 NA
ATOM      3  C   UNK A   0       2.002   8.159  19.358  0.00  0.00    +0.000 A 
ATOM      4  C   UNK A   0       1.477   7.987  20.637  0.00  0.00    +0.000 A 
ATOM      5  C   UNK A   0       0.724   9.013  21.192  0.00  0.00    +0.000 A 
ATOM      6  N   UNK A   0       0.192   8.825  22.478  0.00  0.00    +0.000 NA
ATOM      7  C   UNK A   0      -0.527   9.774  22.968  0.00  0.00    +0.000 A 
ATOM      8  N   UNK A   0      -0.809  10.955  22.334  0.00  0.00    +0.000 N 
ATOM      9  C   UNK A   0      -1.669  11.942  22.950  0.00  0.00    +0.000 C 
ATOM     10  C   UNK A   0      -0.300  11.239  21.071  0.00  0.00    +0.000 A 
ATOM     11  O   UNK A   0      -0.548  12.276  20.473  0.00  0.00    +0.000 OA
ATOM     12  C   UNK A   0       0.538  10.184  20.455  0.00  0.00    +0.000 A 
ENDROOT
BRANCH   3  13
ATOM     13  C   UNK A   0       2.861   7.137  18.734  0.00  0.00    +0.000 A 
ATOM     14  C   UNK A   0       3.556   7.412  17.556  0.00  0.00    +0.000 A 
ATOM     15  C   UNK A   0       4.288   6.427  16.888  0.00  0.00    +0.000 A 
ATOM     16  C   UNK A   0       4.282   5.094  17.317  0.00  0.00    +0.000 A 
ATOM     17  C   UNK A   0       3.672   4.834  18.553  0.00  0.00    +0.000 A 
ATOM     18  C   UNK A   0       2.982   5.842  19.267  0.00  0.00    +0.000 A 
BRANCH  17  19
ATOM     19  S   UNK A   0       3.655   3.191  19.246  0.00  0.00    +0.000 S 
ATOM     20  C   UNK A   0       2.634   3.314  20.694  0.00  0.00    +0.000 C 
ATOM     21  O   UNK A   0       2.993   2.303  18.293  0.00  0.00    +0.000 OA
ATOM     22  O   UNK A   0       4.997   2.883  19.687  0.00  0.00    +0.000 OA
ENDBRANCH  17  19
BRANCH  16  23
ATOM     23  N   ALA A   1       4.836   4.071  16.539  0.00  0.00    +0.000 N 
ATOM     24  H   ALA A   1       4.399   3.162  16.715  0.00  0.00    +0.000 HD
BRANCH  23  25
ATOM     25  CA  ALA A   1       6.289   3.993  16.291  0.00  0.00    +0.000 C 
ATOM     26  CB  ALA A   1       7.073   4.731  17.383  0.00  0.00    +0.000 C 
BRANCH  25  27
ATOM     27  C   ALA A   1       6.600   4.662  14.930  0.00  0.00    +0.000 C 
BRANCH  27  28
ATOM     28  O   ALA A   1       7.714   5.551  15.012  0.00  0.00    +0.000 OA
ATOM     29  H   ALA A   1       8.109   5.423  15.900  0.00  0.00    +0.000 HD
ENDBRANCH  27  28
ENDBRANCH  25  27
ENDBRANCH  23  25
ENDBRANCH  16  23
ENDBRANCH   3  13
BRANCH   1  30
ATOM     30  N   UNK A   0       1.012  11.510  18.454  0.00  0.00    +0.000 N 
ATOM     31  H   UNK A   0       0.462  11.343  17.600  0.00  0.00    +0.000 HD
BRANCH  30  32
ATOM     32  C   UNK A   0       2.308  12.110  18.116  0.00  0.00    +0.000 C 
BRANCH  32  33
ATOM     33  C   UNK A   0       2.226  13.642  18.166  0.00  0.00    +0.000 C 
BRANCH  33  35
ATOM     34  C   UNK A   0       1.224  15.235  19.574  0.00  0.00    +0.000 C 
ATOM     35  O   UNK A   0       2.074  14.096  19.516  0.00  0.00    +0.000 OA
ENDBRANCH  33  35
ENDBRANCH  32  33
ENDBRANCH  30  32
ENDBRANCH   1  30
TORSDOF 10
ENDMDL
MODEL 4
REMARK VINA RESULT:      -7.7      1.991      2.548
REMARK  Name = 
REMARK  14 active torsions:
REMARK  status: ('A' for Active; 'I' for Inactive)
REMARK    1  A    between atoms: C_1  and  O_2
REMARK    2  A    between atoms: O_2  and  C_3
REMARK    3  A    between atoms: C_3  and  C_4
REMARK    4  A    between atoms: C_4  and  N_5
REMARK    5  A    between atoms: N_5  and  C_6
REMARK    6  A    between atoms: C_8  and  C_9
REMARK    7  A    between atoms: C_12  and  N_13
REMARK    8  A    between atoms: N_13  and  CA_14
REMARK    9  A    between atoms: CA_14  and  CB_15
REMARK   10  A    between atoms: CA_14  and  C_16
REMARK   11  A    between atoms: C_16  and  O_17
REMARK   12  A    between atoms: C_18  and  S_19
REMARK   13  A    between atoms: S_19  and  C_20
REMARK   14  A    between atoms: N_28  and  C_29
REMARK                            x       y       z     vdW  Elec       q    Type
REMARK                         _______ _______ _______ _____ _____    ______ ____
ROOT
ATOM      1  C   UNK A   0       0.905  10.417  19.201  0.00  0.00    +0.000 A 
ATOM      2  N   UNK A   0       1.605   9.401  18.632  0.00  0.00    +0.000 NA
ATOM      3  C   UNK A   0       1.841   8.277  19.338  0.00  0.00    +0.000 A 
ATOM      4  C   UNK A   0       1.380   8.107  20.642  0.00  0.00    +0.000 A 
ATOM      5  C   UNK A   0       0.648   9.131  21.229  0.00  0.00    +0.000 A 
ATOM      6  N   UNK A   0       0.181   8.944  22.540  0.00  0.00    +0.000 NA
ATOM      7  C   UNK A   0      -0.520   9.890  23.061  0.00  0.00    +0.000 A 
ATOM      8  N   UNK A   0      -0.839  11.067  22.437  0.00  0.00    +0.000 N 
ATOM      9  C   UNK A   0      -1.676  12.051  23.091  0.00  0.00    +0.000 C 
ATOM     10  C   UNK A   0      -0.395  11.349  21.150  0.00  0.00    +0.000 A 
ATOM     11  O   UNK A   0      -0.679  12.382  20.561  0.00  0.00    +0.000 OA
ATOM     12  C   UNK A   0       0.418  10.297  20.498  0.00  0.00    +0.000 A 
ENDROOT
BRANCH   3  13
ATOM     13  C   UNK A   0       2.675   7.258  18.676  0.00  0.00    +0.000 A 
ATOM     14  C   UNK A   0       3.648   7.627  17.747  0.00  0.00    +0.000 A 
ATOM     15  C   UNK A   0       4.375   6.675  17.028  0.00  0.00    +0.000 A 
ATOM     16  C   UNK A   0       4.095   5.307  17.135  0.00  0.00    +0.000 A 
ATOM     17  C   UNK A   0       3.193   4.927  18.139  0.00  0.00    +0.000 A 
ATOM     18  C   UNK A   0       2.500   5.885  18.916  0.00  0.00    +0.000 A 
BRANCH  17  19
ATOM     19  S   UNK A   0       2.802   3.211  18.427  0.00  0.00    +0.000 S 
ATOM     20  C   UNK A   0       1.603   3.226  19.736  0.00  0.00    +0.000 C 
ATOM     21  O   UNK A   0       2.160   2.683  17.225  0.00  0.00    +0.000 OA
ATOM     22  O   UNK A   0       3.992   2.565  18.936  0.00  0.00    +0.000 OA
ENDBRANCH  17  19
BRANCH  16  23
ATOM     23  N   ALA A   1       4.670   4.371  16.267  0.00  0.00    +0.000 N 
ATOM     24  H   ALA A   1       4.861   3.476  16.725  0.00  0.00    +0.000 HD
BRANCH  23  25
ATOM     25  CA  ALA A   1       5.695   4.764  15.281  0.00  0.00    +0.000 C 
ATOM     26  CB  ALA A   1       5.704   3.805  14.084  0.00  0.00    +0.000 C 
BRANCH  25  27
ATOM     27  C   ALA A   1       7.086   4.711  15.958  0.00  0.00    +0.000 C 
BRANCH  27  28
ATOM     28  O   ALA A   1       7.680   6.005  16.065  0.00  0.00    +0.000 OA
ATOM     29  H   ALA A   1       8.598   5.866  16.381  0.00  0.00    +0.000 HD
ENDBRANCH  27  28
ENDBRANCH  25  27
ENDBRANCH  23  25
ENDBRANCH  16  23
ENDBRANCH   3  13
BRANCH   1  30
ATOM     30  N   UNK A   0       0.786  11.618  18.471  0.00  0.00    +0.000 N 
ATOM     31  H   UNK A   0       0.309  11.417  17.581  0.00  0.00    +0.000 HD
BRANCH  30  32
ATOM     32  C   UNK A   0       2.052  12.318  18.223  0.00  0.00    +0.000 C 
BRANCH  32  33
ATOM     33  C   UNK A   0       1.895  13.826  18.471  0.00  0.00    +0.000 C 
BRANCH  33  35
ATOM     34  C   UNK A   0       3.117  15.776  17.994  0.00  0.00    +0.000 C 
ATOM     35  O   UNK A   0       3.176  14.462  18.537  0.00  0.00    +0.000 OA
ENDBRANCH  33  35
ENDBRANCH  32  33
ENDBRANCH  30  32
ENDBRANCH   1  30
TORSDOF 10
ENDMDL
MODEL 5
REMARK VINA RESULT:      -7.7      1.678      2.432
REMARK  Name = 
REMARK  14 active torsions:
REMARK  status: ('A' for Active; 'I' for Inactive)
REMARK    1  A    between atoms: C_1  and  O_2
REMARK    2  A    between atoms: O_2  and  C_3
REMARK    3  A    between atoms: C_3  and  C_4
REMARK    4  A    between atoms: C_4  and  N_5
REMARK    5  A    between atoms: N_5  and  C_6
REMARK    6  A    between atoms: C_8  and  C_9
REMARK    7  A    between atoms: C_12  and  N_13
REMARK    8  A    between atoms: N_13  and  CA_14
REMARK    9  A    between atoms: CA_14  and  CB_15
REMARK   10  A    between atoms: CA_14  and  C_16
REMARK   11  A    between atoms: C_16  and  O_17
REMARK   12  A    between atoms: C_18  and  S_19
REMARK   13  A    between atoms: S_19  and  C_20
REMARK   14  A    between atoms: N_28  and  C_29
REMARK                            x       y       z     vdW  Elec       q    Type
REMARK                         _______ _______ _______ _____ _____    ______ ____
ROOT
ATOM      1  C   UNK A   0       0.589  10.522  19.291  0.00  0.00    +0.000 A 
ATOM      2  N   UNK A   0       1.372   9.530  18.791  0.00  0.00    +0.000 NA
ATOM      3  C   UNK A   0       1.683   8.472  19.567  0.00  0.00    +0.000 A 
ATOM      4  C   UNK A   0       1.218   8.347  20.875  0.00  0.00    +0.000 A 
ATOM      5  C   UNK A   0       0.403   9.345  21.391  0.00  0.00    +0.000 A 
ATOM      6  N   UNK A   0      -0.066   9.203  22.708  0.00  0.00    +0.000 NA
ATOM      7  C   UNK A   0      -0.844  10.123  23.163  0.00  0.00    +0.000 A 
ATOM      8  N   UNK A   0      -1.243  11.232  22.465  0.00  0.00    +0.000 N 
ATOM      9  C   UNK A   0      -2.161  12.186  23.050  0.00  0.00    +0.000 C 
ATOM     10  C   UNK A   0      -0.805  11.468  21.168  0.00  0.00    +0.000 A 
ATOM     11  O   UNK A   0      -1.158  12.439  20.514  0.00  0.00    +0.000 OA
ATOM     12  C   UNK A   0       0.095  10.444  20.588  0.00  0.00    +0.000 A 
ENDROOT
BRANCH   3  13
ATOM     13  C   UNK A   0       2.600   7.482  18.977  0.00  0.00    +0.000 A 
ATOM     14  C   UNK A   0       3.327   7.782  17.825  0.00  0.00    +0.000 A 
ATOM     15  C   UNK A   0       4.119   6.824  17.186  0.00  0.00    +0.000 A 
ATOM     16  C   UNK A   0       4.146   5.492  17.616  0.00  0.00    +0.000 A 
ATOM     17  C   UNK A   0       3.500   5.210  18.829  0.00  0.00    +0.000 A 
ATOM     18  C   UNK A   0       2.748   6.193  19.516  0.00  0.00    +0.000 A 
BRANCH  17  19
ATOM     19  S   UNK A   0       3.518   3.568  19.524  0.00  0.00    +0.000 S 
ATOM     20  C   UNK A   0       2.507   2.598  18.433  0.00  0.00    +0.000 C 
ATOM     21  O   UNK A   0       4.886   3.059  19.453  0.00  0.00    +0.000 OA
ATOM     22  O   UNK A   0       2.847   3.621  20.804  0.00  0.00    +0.000 OA
ENDBRANCH  17  19
BRANCH  16  23
ATOM     23  N   ALA A   1       4.765   4.489  16.860  0.00  0.00    +0.000 N 
ATOM     24  H   ALA A   1       4.862   3.611  17.377  0.00  0.00    +0.000 HD
BRANCH  23  25
ATOM     25  CA  ALA A   1       5.908   4.787  15.976  0.00  0.00    +0.000 C 
ATOM     26  CB  ALA A   1       6.040   3.732  14.871  0.00  0.00    +0.000 C 
BRANCH  25  27
ATOM     27  C   ALA A   1       7.207   4.777  16.818  0.00  0.00    +0.000 C 
BRANCH  27  28
ATOM     28  O   ALA A   1       7.067   4.004  18.011  0.00  0.00    +0.000 OA
ATOM     29  H   ALA A   1       7.970   3.877  18.368  0.00  0.00    +0.000 HD
ENDBRANCH  27  28
ENDBRANCH  25  27
ENDBRANCH  23  25
ENDBRANCH  16  23
ENDBRANCH   3  13
BRANCH   1  30
ATOM     30  N   UNK A   0       0.389  11.665  18.488  0.00  0.00    +0.000 N 
ATOM     31  H   UNK A   0      -0.031  11.370  17.595  0.00  0.00    +0.000 HD
BRANCH  30  32
ATOM     32  C   UNK A   0       1.594  12.467  18.243  0.00  0.00    +0.000 C 
BRANCH  32  33
ATOM     33  C   UNK A   0       1.416  13.891  18.789  0.00  0.00    +0.000 C 
BRANCH  33  35
ATOM     34  C   UNK A   0       2.491  13.630  20.862  0.00  0.00    +0.000 C 
ATOM     35  O   UNK A   0       2.540  14.268  19.591  0.00  0.00    +0.000 OA
ENDBRANCH  33  35
ENDBRANCH  32  33
ENDBRANCH  30  32
ENDBRANCH   1  30
TORSDOF 10
ENDMDL
MODEL 6
REMARK VINA RESULT:      -7.7      0.976      1.047
REMARK  Name = 
REMARK  14 active torsions:
REMARK  status: ('A' for Active; 'I' for Inactive)
REMARK    1  A    between atoms: C_1  and  O_2
REMARK    2  A    between atoms: O_2  and  C_3
REMARK    3  A    between atoms: C_3  and  C_4
REMARK    4  A    between atoms: C_4  and  N_5
REMARK    5  A    between atoms: N_5  and  C_6
REMARK    6  A    between atoms: C_8  and  C_9
REMARK    7  A    between atoms: C_12  and  N_13
REMARK    8  A    between atoms: N_13  and  CA_14
REMARK    9  A    between atoms: CA_14  and  CB_15
REMARK   10  A    between atoms: CA_14  and  C_16
REMARK   11  A    between atoms: C_16  and  O_17
REMARK   12  A    between atoms: C_18  and  S_19
REMARK   13  A    between atoms: S_19  and  C_20
REMARK   14  A    between atoms: N_28  and  C_29
REMARK                            x       y       z     vdW  Elec       q    Type
REMARK                         _______ _______ _______ _____ _____    ______ ____
ROOT
ATOM      1  C   UNK A   0      -0.412  10.393  18.657  0.00  0.00    +0.000 A 
ATOM      2  N   UNK A   0       0.480   9.426  18.319  0.00  0.00    +0.000 NA
ATOM      3  C   UNK A   0       1.224   8.841  19.279  0.00  0.00    +0.000 A 
ATOM      4  C   UNK A   0       1.106   9.185  20.624  0.00  0.00    +0.000 A 
ATOM      5  C   UNK A   0       0.185  10.159  20.985  0.00  0.00    +0.000 A 
ATOM      6  N   UNK A   0       0.069  10.490  22.345  0.00  0.00    +0.000 NA
ATOM      7  C   UNK A   0      -0.809  11.376  22.668  0.00  0.00    +0.000 A 
ATOM      8  N   UNK A   0      -1.633  12.024  21.786  0.00  0.00    +0.000 N 
ATOM      9  C   UNK A   0      -2.622  12.971  22.254  0.00  0.00    +0.000 C 
ATOM     10  C   UNK A   0      -1.566  11.780  20.419  0.00  0.00    +0.000 A 
ATOM     11  O   UNK A   0      -2.300  12.330  19.610  0.00  0.00    +0.000 OA
ATOM     12  C   UNK A   0      -0.573  10.771  19.986  0.00  0.00    +0.000 A 
ENDROOT
BRANCH   3  13
ATOM     13  C   UNK A   0       2.223   7.861  18.819  0.00  0.00    +0.000 A 
ATOM     14  C   UNK A   0       3.071   8.155  17.752  0.00  0.00    +0.000 A 
ATOM     15  C   UNK A   0       3.950   7.203  17.228  0.00  0.00    +0.000 A 
ATOM     16  C   UNK A   0       3.953   5.880  17.686  0.00  0.00    +0.000 A 
ATOM     17  C   UNK A   0       3.177   5.607  18.823  0.00  0.00    +0.000 A 
ATOM     18  C   UNK A   0       2.332   6.585  19.398  0.00  0.00    +0.000 A 
BRANCH  17  19
ATOM     19  S   UNK A   0       3.147   3.978  19.549  0.00  0.00    +0.000 S 
ATOM     20  C   UNK A   0       2.284   4.178  21.088  0.00  0.00    +0.000 C 
ATOM     21  O   UNK A   0       2.347   3.111  18.686  0.00  0.00    +0.000 OA
ATOM     22  O   UNK A   0       4.509   3.606  19.860  0.00  0.00    +0.000 OA
ENDBRANCH  17  19
BRANCH  16  23
ATOM     23  N   ALA A   1       4.674   4.877  17.027  0.00  0.00    +0.000 N 
ATOM     24  H   ALA A   1       4.662   3.987  17.533  0.00  0.00    +0.000 HD
BRANCH  23  25
ATOM     25  CA  ALA A   1       5.960   5.164  16.363  0.00  0.00    +0.000 C 
ATOM     26  CB  ALA A   1       6.281   4.104  15.302  0.00  0.00    +0.000 C 
BRANCH  25  27
ATOM     27  C   ALA A   1       7.086   5.148  17.425  0.00  0.00    +0.000 C 
BRANCH  27  28
ATOM     28  O   ALA A   1       8.047   4.122  17.173  0.00  0.00    +0.000 OA
ATOM     29  H   ALA A   1       8.143   4.063  16.199  0.00  0.00    +0.000 HD
ENDBRANCH  27  28
ENDBRANCH  25  27
ENDBRANCH  23  25
ENDBRANCH  16  23
ENDBRANCH   3  13
BRANCH   1  30
ATOM     30  N   UNK A   0      -1.081  11.062  17.610  0.00  0.00    +0.000 N 
ATOM     31  H   UNK A   0      -1.625  11.839  18.010  0.00  0.00    +0.000 HD
BRANCH  30  32
ATOM     32  C   UNK A   0      -1.944  10.209  16.784  0.00  0.00    +0.000 C 
BRANCH  32  33
ATOM     33  C   UNK A   0      -3.191  10.979  16.328  0.00  0.00    +0.000 C 
BRANCH  33  35
ATOM     34  C   UNK A   0      -5.187  11.952  17.100  0.00  0.00    +0.000 C 
ATOM     35  O   UNK A   0      -4.198  10.959  17.346  0.00  0.00    +0.000 OA
ENDBRANCH  33  35
ENDBRANCH  32  33
ENDBRANCH  30  32
ENDBRANCH   1  30
TORSDOF 10
ENDMDL
MODEL 7
REMARK VINA RESULT:      -7.6      1.000      1.255
REMARK  Name = 
REMARK  14 active torsions:
REMARK  status: ('A' for Active; 'I' for Inactive)
REMARK    1  A    between atoms: C_1  and  O_2
REMARK    2  A    between atoms: O_2  and  C_3
REMARK    3  A    between atoms: C_3  and  C_4
REMARK    4  A    between atoms: C_4  and  N_5
REMARK    5  A    between atoms: N_5  and  C_6
REMARK    6  A    between atoms: C_8  and  C_9
REMARK    7  A    between atoms: C_12  and  N_13
REMARK    8  A    between atoms: N_13  and  CA_14
REMARK    9  A    between atoms: CA_14  and  CB_15
REMARK   10  A    between atoms: CA_14  and  C_16
REMARK   11  A    between atoms: C_16  and  O_17
REMARK   12  A    between atoms: C_18  and  S_19
REMARK   13  A    between atoms: S_19  and  C_20
REMARK   14  A    between atoms: N_28  and  C_29
REMARK                            x       y       z     vdW  Elec       q    Type
REMARK                         _______ _______ _______ _____ _____    ______ ____
ROOT
ATOM      1  C   UNK A   0       0.265   9.945  19.215  0.00  0.00    +0.000 A 
ATOM      2  N   UNK A   0       1.101   8.978  18.751  0.00  0.00    +0.000 NA
ATOM      3  C   UNK A   0       1.688   8.133  19.621  0.00  0.00    +0.000 A 
ATOM      4  C   UNK A   0       1.462   8.203  20.995  0.00  0.00    +0.000 A 
ATOM      5  C   UNK A   0       0.597   9.175  21.479  0.00  0.00    +0.000 A 
ATOM      6  N   UNK A   0       0.371   9.229  22.864  0.00  0.00    +0.000 NA
ATOM      7  C   UNK A   0      -0.456  10.117  23.297  0.00  0.00    +0.000 A 
ATOM      8  N   UNK A   0      -1.125  11.017  22.510  0.00  0.00    +0.000 N 
ATOM      9  C   UNK A   0      -2.072  11.947  23.087  0.00  0.00    +0.000 C 
ATOM     10  C   UNK A   0      -0.940  11.054  21.132  0.00  0.00    +0.000 A 
ATOM     11  O   UNK A   0      -1.536  11.833  20.403  0.00  0.00    +0.000 OA
ATOM     12  C   UNK A   0       0.002  10.055  20.576  0.00  0.00    +0.000 A 
ENDROOT
BRANCH   3  13
ATOM     13  C   UNK A   0       2.640   7.167  19.045  0.00  0.00    +0.000 A 
ATOM     14  C   UNK A   0       3.381   7.489  17.908  0.00  0.00    +0.000 A 
ATOM     15  C   UNK A   0       4.208   6.553  17.280  0.00  0.00    +0.000 A 
ATOM     16  C   UNK A   0       4.258   5.220  17.707  0.00  0.00    +0.000 A 
ATOM     17  C   UNK A   0       3.597   4.919  18.907  0.00  0.00    +0.000 A 
ATOM     18  C   UNK A   0       2.809   5.880  19.582  0.00  0.00    +0.000 A 
BRANCH  17  19
ATOM     19  S   UNK A   0       3.642   3.274  19.596  0.00  0.00    +0.000 S 
ATOM     20  C   UNK A   0       2.820   2.253  18.399  0.00  0.00    +0.000 C 
ATOM     21  O   UNK A   0       5.039   2.853  19.675  0.00  0.00    +0.000 OA
ATOM     22  O   UNK A   0       2.833   3.274  20.794  0.00  0.00    +0.000 OA
ENDBRANCH  17  19
BRANCH  16  23
ATOM     23  N   ALA A   1       4.916   4.236  16.959  0.00  0.00    +0.000 N 
ATOM     24  H   ALA A   1       4.510   3.305  17.092  0.00  0.00    +0.000 HD
BRANCH  23  25
ATOM     25  CA  ALA A   1       6.384   4.229  16.818  0.00  0.00    +0.000 C 
ATOM     26  CB  ALA A   1       7.049   5.034  17.942  0.00  0.00    +0.000 C 
BRANCH  25  27
ATOM     27  C   ALA A   1       6.760   4.880  15.465  0.00  0.00    +0.000 C 
BRANCH  27  28
ATOM     28  O   ALA A   1       7.586   6.032  15.635  0.00  0.00    +0.000 OA
ATOM     29  H   ALA A   1       7.793   6.088  16.591  0.00  0.00    +0.000 HD
ENDBRANCH  27  28
ENDBRANCH  25  27
ENDBRANCH  23  25
ENDBRANCH  16  23
ENDBRANCH   3  13
BRANCH   1  30
ATOM     30  N   UNK A   0      -0.232  10.881  18.284  0.00  0.00    +0.000 N 
ATOM     31  H   UNK A   0      -0.729  11.624  18.797  0.00  0.00    +0.000 HD
BRANCH  30  32
ATOM     32  C   UNK A   0      -1.097  10.317  17.241  0.00  0.00    +0.000 C 
BRANCH  32  33
ATOM     33  C   UNK A   0      -2.493  10.009  17.803  0.00  0.00    +0.000 C 
BRANCH  33  35
ATOM     34  C   UNK A   0      -2.904  10.095  15.491  0.00  0.00    +0.000 C 
ATOM     35  O   UNK A   0      -3.393   9.648  16.750  0.00  0.00    +0.000 OA
ENDBRANCH  33  35
ENDBRANCH  32  33
ENDBRANCH  30  32
ENDBRANCH   1  30
TORSDOF 10
ENDMDL
MODEL 8
REMARK VINA RESULT:      -7.5      1.274      1.410
REMARK  Name = 
REMARK  14 active torsions:
REMARK  status: ('A' for Active; 'I' for Inactive)
REMARK    1  A    between atoms: C_1  and  O_2
REMARK    2  A    between atoms: O_2  and  C_3
REMARK    3  A    between atoms: C_3  and  C_4
REMARK    4  A    between atoms: C_4  and  N_5
REMARK    5  A    between atoms: N_5  and  C_6
REMARK    6  A    between atoms: C_8  and  C_9
REMARK    7  A    between atoms: C_12  and  N_13
REMARK    8  A    between atoms: N_13  and  CA_14
REMARK    9  A    between atoms: CA_14  and  CB_15
REMARK   10  A    between atoms: CA_14  and  C_16
REMARK   11  A    between atoms: C_16  and  O_17
REMARK   12  A    between atoms: C_18  and  S_19
REMARK   13  A    between atoms: S_19  and  C_20
REMARK   14  A    between atoms: N_28  and  C_29
REMARK                            x       y       z     vdW  Elec       q    Type
REMARK                         _______ _______ _______ _____ _____    ______ ____
ROOT
ATOM      1  C   UNK A   0      -0.626  10.629  18.719  0.00  0.00    +0.000 A 
ATOM      2  N   UNK A   0       0.258   9.640  18.422  0.00  0.00    +0.000 NA
ATOM      3  C   UNK A   0       1.021   9.114  19.401  0.00  0.00    +0.000 A 
ATOM      4  C   UNK A   0       0.932   9.540  20.724  0.00  0.00    +0.000 A 
ATOM      5  C   UNK A   0       0.021  10.538  21.043  0.00  0.00    +0.000 A 
ATOM      6  N   UNK A   0      -0.066  10.953  22.383  0.00  0.00    +0.000 NA
ATOM      7  C   UNK A   0      -0.936  11.858  22.669  0.00  0.00    +0.000 A 
ATOM      8  N   UNK A   0      -1.778  12.453  21.766  0.00  0.00    +0.000 N 
ATOM      9  C   UNK A   0      -2.756  13.429  22.195  0.00  0.00    +0.000 C 
ATOM     10  C   UNK A   0      -1.741  12.125  20.415  0.00  0.00    +0.000 A 
ATOM     11  O   UNK A   0      -2.491  12.626  19.590  0.00  0.00    +0.000 OA
ATOM     12  C   UNK A   0      -0.758  11.088  20.024  0.00  0.00    +0.000 A 
ENDROOT
BRANCH   3  13
ATOM     13  C   UNK A   0       2.009   8.104  18.981  0.00  0.00    +0.000 A 
ATOM     14  C   UNK A   0       2.826   8.325  17.872  0.00  0.00    +0.000 A 
ATOM     15  C   UNK A   0       3.692   7.339  17.390  0.00  0.00    +0.000 A 
ATOM     16  C   UNK A   0       3.711   6.051  17.938  0.00  0.00    +0.000 A 
ATOM     17  C   UNK A   0       2.969   5.857  19.113  0.00  0.00    +0.000 A 
ATOM     18  C   UNK A   0       2.139   6.872  19.643  0.00  0.00    +0.000 A 
BRANCH  17  19
ATOM     19  S   UNK A   0       2.963   4.282  19.951  0.00  0.00    +0.000 S 
ATOM     20  C   UNK A   0       1.765   3.304  19.080  0.00  0.00    +0.000 C 
ATOM     21  O   UNK A   0       4.276   3.666  19.769  0.00  0.00    +0.000 OA
ATOM     22  O   UNK A   0       2.460   4.494  21.289  0.00  0.00    +0.000 OA
ENDBRANCH  17  19
BRANCH  16  23
ATOM     23  N   ALA A   1       4.416   5.005  17.330  0.00  0.00    +0.000 N 
ATOM     24  H   ALA A   1       4.393   4.143  17.882  0.00  0.00    +0.000 HD
BRANCH  23  25
ATOM     25  CA  ALA A   1       5.703   5.240  16.647  0.00  0.00    +0.000 C 
ATOM     26  CB  ALA A   1       5.761   4.490  15.311  0.00  0.00    +0.000 C 
BRANCH  25  27
ATOM     27  C   ALA A   1       6.849   4.720  17.549  0.00  0.00    +0.000 C 
BRANCH  27  28
ATOM     28  O   ALA A   1       8.006   4.361  16.792  0.00  0.00    +0.000 OA
ATOM     29  H   ALA A   1       8.563   3.808  17.379  0.00  0.00    +0.000 HD
ENDBRANCH  27  28
ENDBRANCH  25  27
ENDBRANCH  23  25
ENDBRANCH  16  23
ENDBRANCH   3  13
BRANCH   1  30
ATOM     30  N   UNK A   0      -1.316  11.233  17.646  0.00  0.00    +0.000 N 
ATOM     31  H   UNK A   0      -1.725  12.119  17.975  0.00  0.00    +0.000 HD
BRANCH  30  32
ATOM     32  C   UNK A   0      -2.349  10.395  17.026  0.00  0.00    +0.000 C 
BRANCH  32  33
ATOM     33  C   UNK A   0      -3.091  11.172  15.929  0.00  0.00    +0.000 C 
BRANCH  33  35
ATOM     34  C   UNK A   0      -3.083  10.015  13.883  0.00  0.00    +0.000 C 
ATOM     35  O   UNK A   0      -3.812  10.276  15.076  0.00  0.00    +0.000 OA
ENDBRANCH  33  35
ENDBRANCH  32  33
ENDBRANCH  30  32
ENDBRANCH   1  30
TORSDOF 10
ENDMDL
MODEL 9
REMARK VINA RESULT:      -7.4      2.083      2.781
REMARK  Name = 
REMARK  14 active torsions:
REMARK  status: ('A' for Active; 'I' for Inactive)
REMARK    1  A    between atoms: C_1  and  O_2
REMARK    2  A    between atoms: O_2  and  C_3
REMARK    3  A    between atoms: C_3  and  C_4
REMARK    4  A    between atoms: C_4  and  N_5
REMARK    5  A    between atoms: N_5  and  C_6
REMARK    6  A    between atoms: C_8  and  C_9
REMARK    7  A    between atoms: C_12  and  N_13
REMARK    8  A    between atoms: N_13  and  CA_14
REMARK    9  A    between atoms: CA_14  and  CB_15
REMARK   10  A    between atoms: CA_14  and  C_16
REMARK   11  A    between atoms: C_16  and  O_17
REMARK   12  A    between atoms: C_18  and  S_19
REMARK   13  A    between atoms: S_19  and  C_20
REMARK   14  A    between atoms: N_28  and  C_29
REMARK                            x       y       z     vdW  Elec       q    Type
REMARK                         _______ _______ _______ _____ _____    ______ ____
ROOT
ATOM      1  C   UNK A   0       1.018  10.374  19.202  0.00  0.00    +0.000 A 
ATOM      2  N   UNK A   0       1.687   9.324  18.657  0.00  0.00    +0.000 NA
ATOM      3  C   UNK A   0       1.871   8.203  19.383  0.00  0.00    +0.000 A 
ATOM      4  C   UNK A   0       1.387   8.071  20.683  0.00  0.00    +0.000 A 
ATOM      5  C   UNK A   0       0.687   9.130  21.245  0.00  0.00    +0.000 A 
ATOM      6  N   UNK A   0       0.196   8.981  22.552  0.00  0.00    +0.000 NA
ATOM      7  C   UNK A   0      -0.475   9.960  23.050  0.00  0.00    +0.000 A 
ATOM      8  N   UNK A   0      -0.742  11.139  22.405  0.00  0.00    +0.000 N 
ATOM      9  C   UNK A   0      -1.549  12.163  23.033  0.00  0.00    +0.000 C 
ATOM     10  C   UNK A   0      -0.271  11.384  21.120  0.00  0.00    +0.000 A 
ATOM     11  O   UNK A   0      -0.508  12.418  20.512  0.00  0.00    +0.000 OA
ATOM     12  C   UNK A   0       0.511  10.293  20.494  0.00  0.00    +0.000 A 
ENDROOT
BRANCH   3  13
ATOM     13  C   UNK A   0       2.674   7.143  18.748  0.00  0.00    +0.000 A 
ATOM     14  C   UNK A   0       3.561   7.445  17.715  0.00  0.00    +0.000 A 
ATOM     15  C   UNK A   0       4.252   6.445  17.025  0.00  0.00    +0.000 A 
ATOM     16  C   UNK A   0       4.014   5.087  17.273  0.00  0.00    +0.000 A 
ATOM     17  C   UNK A   0       3.203   4.783  18.376  0.00  0.00    +0.000 A 
ATOM     18  C   UNK A   0       2.550   5.794  19.119  0.00  0.00    +0.000 A 
BRANCH  17  19
ATOM     19  S   UNK A   0       2.877   3.092  18.842  0.00  0.00    +0.000 S 
ATOM     20  C   UNK A   0       4.364   2.542  19.640  0.00  0.00    +0.000 C 
ATOM     21  O   UNK A   0       1.801   3.093  19.831  0.00  0.00    +0.000 OA
ATOM     22  O   UNK A   0       2.724   2.320  17.630  0.00  0.00    +0.000 OA
ENDBRANCH  17  19
BRANCH  16  23
ATOM     23  N   ALA A   1       4.541   4.087  16.446  0.00  0.00    +0.000 N 
ATOM     24  H   ALA A   1       4.000   3.219  16.485  0.00  0.00    +0.000 HD
BRANCH  23  25
ATOM     25  CA  ALA A   1       5.996   3.874  16.328  0.00  0.00    +0.000 C 
ATOM     26  CB  ALA A   1       6.753   4.621  17.433  0.00  0.00    +0.000 C 
BRANCH  25  27
ATOM     27  C   ALA A   1       6.471   4.418  14.958  0.00  0.00    +0.000 C 
BRANCH  27  28
ATOM     28  O   ALA A   1       6.373   3.434  13.928  0.00  0.00    +0.000 OA
ATOM     29  H   ALA A   1       5.526   2.962  14.072  0.00  0.00    +0.000 HD
ENDBRANCH  27  28
ENDBRANCH  25  27
ENDBRANCH  23  25
ENDBRANCH  16  23
ENDBRANCH   3  13
BRANCH   1  30
ATOM     30  N   UNK A   0       0.954  11.568  18.453  0.00  0.00    +0.000 N 
ATOM     31  H   UNK A   0       0.465  11.375  17.568  0.00  0.00    +0.000 HD
BRANCH  30  32
ATOM     32  C   UNK A   0       2.251  12.203  18.190  0.00  0.00    +0.000 C 
BRANCH  32  33
ATOM     33  C   UNK A   0       2.281  13.630  18.755  0.00  0.00    +0.000 C 
BRANCH  33  35
ATOM     34  C   UNK A   0       4.337  14.624  18.199  0.00  0.00    +0.000 C 
ATOM     35  O   UNK A   0       2.961  14.515  17.857  0.00  0.00    +0.000 OA
ENDBRANCH  33  35
ENDBRANCH  32  33
ENDBRANCH  30  32
ENDBRANCH   1  30
TORSDOF 10
ENDMDL
