MODEL 1
REMARK VINA RESULT:      -7.4      0.000      0.000
REMARK  Name = 
REMARK  11 active torsions:
REMARK  status: ('A' for Active; 'I' for Inactive)
REMARK    1  A    between atoms: C_1  and  C_2
REMARK    2  A    between atoms: C_2  and  N_3
REMARK    3  A    between atoms: N_3  and  C_4
REMARK    4  A    between atoms: C_4  and  C_5
REMARK    5  A    between atoms: C_6  and  C_8
REMARK    6  A    between atoms: C_8  and  N_9
REMARK    7  A    between atoms: C_11  and  S_12
REMARK    8  A    between atoms: S_12  and  C_13
REMARK    9  A    between atoms: C_13  and  C_14
REMARK   10  A    between atoms: N_16  and  C_17
REMARK   11  A    between atoms: C_22  and  C_23
REMARK                            x       y       z     vdW  Elec       q    Type
REMARK                         _______ _______ _______ _____ _____    ______ ____
ROOT
ATOM      1  N   UNL     1       3.114   6.138  19.379  0.00  0.00    +0.000 N 
ATOM      2  C   UNL     1       4.472   6.343  19.407  0.00  0.00    +0.000 A 
ATOM      3  C   UNL     1       5.074   5.236  18.861  0.00  0.00    +0.000 A 
ATOM      4  C   UNL     1       4.056   4.300  18.518  0.00  0.00    +0.000 A 
ATOM      5  C   UNL     1       4.046   3.003  17.958  0.00  0.00    +0.000 A 
ATOM      6  C   UNL     1       2.833   2.344  17.741  0.00  0.00    +0.000 A 
ATOM      7  C   UNL     1       1.631   2.947  18.091  0.00  0.00    +0.000 A 
ATOM      8  C   UNL     1       1.606   4.225  18.659  0.00  0.00    +0.000 A 
ATOM      9  C   UNL     1       2.829   4.890  18.862  0.00  0.00    +0.000 A 
ENDROOT
BRANCH   1  10
ATOM     10  C   UNL     1       2.140   7.097  19.891  0.00  0.00    +0.000 C 
BRANCH  10  12
ATOM     11  N   UNL     1       0.952   9.222  19.339  0.00  0.00    +0.000 N 
ATOM     12  C   UNL     1       1.845   8.224  18.909  0.00  0.00    +0.000 C 
ATOM     13  O   UNL     1       2.355   8.263  17.786  0.00  0.00    +0.000 OA
BRANCH  11  15
ATOM     14  C   UNL     1      -0.930  10.335  18.130  0.00  0.00    +0.000 C 
ATOM     15  C   UNL     1       0.573  10.239  18.351  0.00  0.00    +0.000 C 
ENDBRANCH  11  15
BRANCH  11  16
ATOM     16  C   UNL     1       0.405   9.240  20.702  0.00  0.00    +0.000 C 
ATOM     17  C   UNL     1       0.557  10.508  21.524  0.00  0.00    +0.000 C 
ENDBRANCH  11  16
ENDBRANCH  10  12
ENDBRANCH   1  10
BRANCH   3  18
ATOM     18  S   UNL     1       6.801   5.037  18.698  0.00  0.00    +0.000 S 
BRANCH  18  19
ATOM     19  C   UNL     1       7.187   6.342  17.493  0.00  0.00    +0.000 C 
BRANCH  19  20
ATOM     20  C   UNL     1       6.527   6.041  16.157  0.00  0.00    +0.000 C 
ATOM     21  O   UNL     1       5.471   6.596  15.858  0.00  0.00    +0.000 OA
ATOM     22  N   UNL     1       7.237   5.145  15.365  0.00  0.00    +0.000 N 
ATOM     23  H   UNL     1       7.983   4.650  15.837  0.00  0.00    +0.000 HD
BRANCH  22  24
ATOM     24  C   UNL     1       6.846   4.659  14.094  0.00  0.00    +0.000 A 
ATOM     25  C   UNL     1       5.719   3.843  13.936  0.00  0.00    +0.000 A 
ATOM     26  C   UNL     1       5.391   3.291  12.698  0.00  0.00    +0.000 A 
ATOM     27  C   UNL     1       6.175   3.568  11.588  0.00  0.00    +0.000 A 
ATOM     28  C   UNL     1       7.269   4.421  11.711  0.00  0.00    +0.000 A 
ATOM     29  C   UNL     1       7.614   4.985  12.954  0.00  0.00    +0.000 A 
ATOM     30  C   UNL     1       8.818   5.887  13.014  0.00  0.00    +0.000 C 
ENDBRANCH  22  24
ENDBRANCH  19  20
ENDBRANCH  18  19
ENDBRANCH   3  18
TORSDOF 8
ENDMDL
MODEL 2
REMARK VINA RESULT:      -7.3      2.681      8.642
REMARK  Name = 
REMARK  11 active torsions:
REMARK  status: ('A' for Active; 'I' for Inactive)
REMARK    1  A    between atoms: C_1  and  C_2
REMARK    2  A    between atoms: C_2  and  N_3
REMARK    3  A    between atoms: N_3  and  C_4
REMARK    4  A    between atoms: C_4  and  C_5
REMARK    5  A    between atoms: C_6  and  C_8
REMARK    6  A    between atoms: C_8  and  N_9
REMARK    7  A    between atoms: C_11  and  S_12
REMARK    8  A    between atoms: S_12  and  C_13
REMARK    9  A    between atoms: C_13  and  C_14
REMARK   10  A    between atoms: N_16  and  C_17
REMARK   11  A    between atoms: C_22  and  C_23
REMARK                            x       y       z     vdW  Elec       q    Type
REMARK                         _______ _______ _______ _____ _____    ______ ____
ROOT
ATOM      1  N   UNL     1       3.704   5.111  17.766  0.00  0.00    +0.000 N 
ATOM      2  C   UNL     1       3.521   6.375  18.271  0.00  0.00    +0.000 A 
ATOM      3  C   UNL     1       2.548   6.303  19.237  0.00  0.00    +0.000 A 
ATOM      4  C   UNL     1       2.087   4.957  19.305  0.00  0.00    +0.000 A 
ATOM      5  C   UNL     1       1.108   4.278  20.065  0.00  0.00    +0.000 A 
ATOM      6  C   UNL     1       0.906   2.907  19.881  0.00  0.00    +0.000 A 
ATOM      7  C   UNL     1       1.649   2.206  18.940  0.00  0.00    +0.000 A 
ATOM      8  C   UNL     1       2.618   2.849  18.163  0.00  0.00    +0.000 A 
ATOM      9  C   UNL     1       2.827   4.226  18.361  0.00  0.00    +0.000 A 
ENDROOT
BRANCH   1  10
ATOM     10  C   UNL     1       4.653   4.793  16.704  0.00  0.00    +0.000 C 
BRANCH  10  12
ATOM     11  N   UNL     1       6.763   6.075  17.071  0.00  0.00    +0.000 N 
ATOM     12  C   UNL     1       5.561   5.963  16.350  0.00  0.00    +0.000 C 
ATOM     13  O   UNL     1       5.262   6.784  15.476  0.00  0.00    +0.000 OA
BRANCH  11  15
ATOM     14  C   UNL     1       7.237   8.438  17.730  0.00  0.00    +0.000 C 
ATOM     15  C   UNL     1       7.578   7.269  16.817  0.00  0.00    +0.000 C 
ENDBRANCH  11  15
BRANCH  11  16
ATOM     16  C   UNL     1       7.178   5.062  18.050  0.00  0.00    +0.000 C 
ATOM     17  C   UNL     1       7.699   5.532  19.398  0.00  0.00    +0.000 C 
ENDBRANCH  11  16
ENDBRANCH  10  12
ENDBRANCH   1  10
BRANCH   3  18
ATOM     18  S   UNL     1       1.968   7.674  20.151  0.00  0.00    +0.000 S 
BRANCH  18  19
ATOM     19  C   UNL     1       1.652   8.868  18.818  0.00  0.00    +0.000 C 
BRANCH  19  20
ATOM     20  C   UNL     1       0.649   9.917  19.273  0.00  0.00    +0.000 C 
ATOM     21  O   UNL     1      -0.327  10.173  18.571  0.00  0.00    +0.000 OA
ATOM     22  N   UNL     1       0.945  10.483  20.508  0.00  0.00    +0.000 N 
ATOM     23  H   UNL     1       1.875  10.291  20.859  0.00  0.00    +0.000 HD
BRANCH  22  24
ATOM     24  C   UNL     1       0.210  11.503  21.160  0.00  0.00    +0.000 A 
ATOM     25  C   UNL     1       0.222  12.825  20.696  0.00  0.00    +0.000 A 
ATOM     26  C   UNL     1      -0.429  13.844  21.392  0.00  0.00    +0.000 A 
ATOM     27  C   UNL     1      -1.123  13.551  22.556  0.00  0.00    +0.000 A 
ATOM     28  C   UNL     1      -1.193  12.234  23.006  0.00  0.00    +0.000 A 
ATOM     29  C   UNL     1      -0.541  11.195  22.315  0.00  0.00    +0.000 A 
ATOM     30  C   UNL     1      -0.649   9.799  22.867  0.00  0.00    +0.000 C 
ENDBRANCH  22  24
ENDBRANCH  19  20
ENDBRANCH  18  19
ENDBRANCH   3  18
TORSDOF 8
ENDMDL
MODEL 3
REMARK VINA RESULT:      -7.3      1.233      2.031
REMARK  Name = 
REMARK  11 active torsions:
REMARK  status: ('A' for Active; 'I' for Inactive)
REMARK    1  A    between atoms: C_1  and  C_2
REMARK    2  A    between atoms: C_2  and  N_3
REMARK    3  A    between atoms: N_3  and  C_4
REMARK    4  A    between atoms: C_4  and  C_5
REMARK    5  A    between atoms: C_6  and  C_8
REMARK    6  A    between atoms: C_8  and  N_9
REMARK    7  A    between atoms: C_11  and  S_12
REMARK    8  A    between atoms: S_12  and  C_13
REMARK    9  A    between atoms: C_13  and  C_14
REMARK   10  A    between atoms: N_16  and  C_17
REMARK   11  A    between atoms: C_22  and  C_23
REMARK                            x       y       z     vdW  Elec       q    Type
REMARK                         _______ _______ _______ _____ _____    ______ ____
ROOT
ATOM      1  N   UNL     1       3.042   6.399  18.554  0.00  0.00    +0.000 N 
ATOM      2  C   UNL     1       4.344   6.657  18.907  0.00  0.00    +0.000 A 
ATOM      3  C   UNL     1       4.999   5.455  19.002  0.00  0.00    +0.000 A 
ATOM      4  C   UNL     1       4.061   4.416  18.736  0.00  0.00    +0.000 A 
ATOM      5  C   UNL     1       4.123   3.004  18.706  0.00  0.00    +0.000 A 
ATOM      6  C   UNL     1       2.982   2.260  18.393  0.00  0.00    +0.000 A 
ATOM      7  C   UNL     1       1.776   2.898  18.128  0.00  0.00    +0.000 A 
ATOM      8  C   UNL     1       1.677   4.293  18.161  0.00  0.00    +0.000 A 
ATOM      9  C   UNL     1       2.832   5.037  18.463  0.00  0.00    +0.000 A 
ENDROOT
BRANCH   1  10
ATOM     10  C   UNL     1       2.031   7.436  18.371  0.00  0.00    +0.000 C 
BRANCH  10  12
ATOM     11  N   UNL     1       1.248   9.428  19.656  0.00  0.00    +0.000 N 
ATOM     12  C   UNL     1       1.579   8.061  19.684  0.00  0.00    +0.000 C 
ATOM     13  O   UNL     1       1.510   7.409  20.731  0.00  0.00    +0.000 OA
BRANCH  11  15
ATOM     14  C   UNL     1      -0.520  10.502  21.057  0.00  0.00    +0.000 C 
ATOM     15  C   UNL     1       0.931  10.059  20.943  0.00  0.00    +0.000 C 
ENDBRANCH  11  15
BRANCH  11  16
ATOM     16  C   UNL     1       1.238  10.199  18.405  0.00  0.00    +0.000 C 
ATOM     17  C   UNL     1       1.808  11.607  18.423  0.00  0.00    +0.000 C 
ENDBRANCH  11  16
ENDBRANCH  10  12
ENDBRANCH   1  10
BRANCH   3  18
ATOM     18  S   UNL     1       6.680   5.283  19.442  0.00  0.00    +0.000 S 
BRANCH  18  19
ATOM     19  C   UNL     1       7.489   6.122  18.048  0.00  0.00    +0.000 C 
BRANCH  19  20
ATOM     20  C   UNL     1       7.581   5.190  16.850  0.00  0.00    +0.000 C 
ATOM     21  O   UNL     1       8.129   4.095  16.968  0.00  0.00    +0.000 OA
ATOM     22  N   UNL     1       6.985   5.691  15.697  0.00  0.00    +0.000 N 
ATOM     23  H   UNL     1       6.746   6.674  15.727  0.00  0.00    +0.000 HD
BRANCH  22  24
ATOM     24  C   UNL     1       6.949   5.058  14.431  0.00  0.00    +0.000 A 
ATOM     25  C   UNL     1       7.836   5.416  13.408  0.00  0.00    +0.000 A 
ATOM     26  C   UNL     1       7.738   4.857  12.134  0.00  0.00    +0.000 A 
ATOM     27  C   UNL     1       6.761   3.910  11.868  0.00  0.00    +0.000 A 
ATOM     28  C   UNL     1       5.901   3.500  12.886  0.00  0.00    +0.000 A 
ATOM     29  C   UNL     1       5.987   4.056  14.177  0.00  0.00    +0.000 A 
ATOM     30  C   UNL     1       5.017   3.575  15.222  0.00  0.00    +0.000 C 
ENDBRANCH  22  24
ENDBRANCH  19  20
ENDBRANCH  18  19
ENDBRANCH   3  18
TORSDOF 8
ENDMDL
MODEL 4
REMARK VINA RESULT:      -7.3      2.862      8.376
REMARK  Name = 
REMARK  11 active torsions:
REMARK  status: ('A' for Active; 'I' for Inactive)
REMARK    1  A    between atoms: C_1  and  C_2
REMARK    2  A    between atoms: C_2  and  N_3
REMARK    3  A    between atoms: N_3  and  C_4
REMARK    4  A    between atoms: C_4  and  C_5
REMARK    5  A    between atoms: C_6  and  C_8
REMARK    6  A    between atoms: C_8  and  N_9
REMARK    7  A    between atoms: C_11  and  S_12
REMARK    8  A    between atoms: S_12  and  C_13
REMARK    9  A    between atoms: C_13  and  C_14
REMARK   10  A    between atoms: N_16  and  C_17
REMARK   11  A    between atoms: C_22  and  C_23
REMARK                            x       y       z     vdW  Elec       q    Type
REMARK                         _______ _______ _______ _____ _____    ______ ____
ROOT
ATOM      1  N   UNL     1       3.570   5.355  17.901  0.00  0.00    +0.000 N 
ATOM      2  C   UNL     1       3.368   6.567  18.515  0.00  0.00    +0.000 A 
ATOM      3  C   UNL     1       2.426   6.387  19.497  0.00  0.00    +0.000 A 
ATOM      4  C   UNL     1       2.003   5.027  19.464  0.00  0.00    +0.000 A 
ATOM      5  C   UNL     1       1.064   4.259  20.190  0.00  0.00    +0.000 A 
ATOM      6  C   UNL     1       0.894   2.903  19.897  0.00  0.00    +0.000 A 
ATOM      7  C   UNL     1       1.628   2.304  18.881  0.00  0.00    +0.000 A 
ATOM      8  C   UNL     1       2.557   3.037  18.135  0.00  0.00    +0.000 A 
ATOM      9  C   UNL     1       2.734   4.399  18.443  0.00  0.00    +0.000 A 
ENDROOT
BRANCH   1  10
ATOM     10  C   UNL     1       4.497   5.154  16.791  0.00  0.00    +0.000 C 
BRANCH  10  12
ATOM     11  N   UNL     1       6.508   6.538  17.312  0.00  0.00    +0.000 N 
ATOM     12  C   UNL     1       5.362   6.376  16.512  0.00  0.00    +0.000 C 
ATOM     13  O   UNL     1       5.076   7.194  15.633  0.00  0.00    +0.000 OA
BRANCH  11  15
ATOM     14  C   UNL     1       8.198   8.095  18.292  0.00  0.00    +0.000 C 
ATOM     15  C   UNL     1       7.273   7.777  17.127  0.00  0.00    +0.000 C 
ENDBRANCH  11  15
BRANCH  11  16
ATOM     16  C   UNL     1       6.913   5.532  18.302  0.00  0.00    +0.000 C 
ATOM     17  C   UNL     1       7.834   4.410  17.853  0.00  0.00    +0.000 C 
ENDBRANCH  11  16
ENDBRANCH  10  12
ENDBRANCH   1  10
BRANCH   3  18
ATOM     18  S   UNL     1       1.836   7.659  20.538  0.00  0.00    +0.000 S 
BRANCH  18  19
ATOM     19  C   UNL     1       1.421   8.939  19.317  0.00  0.00    +0.000 C 
BRANCH  19  20
ATOM     20  C   UNL     1       0.141   9.657  19.716  0.00  0.00    +0.000 C 
ATOM     21  O   UNL     1      -0.206   9.677  20.896  0.00  0.00    +0.000 OA
ATOM     22  N   UNL     1      -0.520  10.267  18.655  0.00  0.00    +0.000 N 
ATOM     23  H   UNL     1      -0.196   9.998  17.734  0.00  0.00    +0.000 HD
BRANCH  22  24
ATOM     24  C   UNL     1      -1.745  10.972  18.725  0.00  0.00    +0.000 A 
ATOM     25  C   UNL     1      -2.016  11.866  19.769  0.00  0.00    +0.000 A 
ATOM     26  C   UNL     1      -3.259  12.490  19.886  0.00  0.00    +0.000 A 
ATOM     27  C   UNL     1      -4.246  12.245  18.943  0.00  0.00    +0.000 A 
ATOM     28  C   UNL     1      -3.979  11.401  17.867  0.00  0.00    +0.000 A 
ATOM     29  C   UNL     1      -2.730  10.764  17.736  0.00  0.00    +0.000 A 
ATOM     30  C   UNL     1      -2.519   9.855  16.555  0.00  0.00    +0.000 C 
ENDBRANCH  22  24
ENDBRANCH  19  20
ENDBRANCH  18  19
ENDBRANCH   3  18
TORSDOF 8
ENDMDL
MODEL 5
REMARK VINA RESULT:      -7.3      2.780      8.651
REMARK  Name = 
REMARK  11 active torsions:
REMARK  status: ('A' for Active; 'I' for Inactive)
REMARK    1  A    between atoms: C_1  and  C_2
REMARK    2  A    between atoms: C_2  and  N_3
REMARK    3  A    between atoms: N_3  and  C_4
REMARK    4  A    between atoms: C_4  and  C_5
REMARK    5  A    between atoms: C_6  and  C_8
REMARK    6  A    between atoms: C_8  and  N_9
REMARK    7  A    between atoms: C_11  and  S_12
REMARK    8  A    between atoms: S_12  and  C_13
REMARK    9  A    between atoms: C_13  and  C_14
REMARK   10  A    between atoms: N_16  and  C_17
REMARK   11  A    between atoms: C_22  and  C_23
REMARK                            x       y       z     vdW  Elec       q    Type
REMARK                         _______ _______ _______ _____ _____    ______ ____
ROOT
ATOM      1  N   UNL     1       4.331   4.929  19.221  0.00  0.00    +0.000 N 
ATOM      2  C   UNL     1       3.929   6.234  19.074  0.00  0.00    +0.000 A 
ATOM      3  C   UNL     1       2.638   6.329  19.530  0.00  0.00    +0.000 A 
ATOM      4  C   UNL     1       2.215   5.032  19.938  0.00  0.00    +0.000 A 
ATOM      5  C   UNL     1       1.016   4.496  20.460  0.00  0.00    +0.000 A 
ATOM      6  C   UNL     1       0.933   3.135  20.769  0.00  0.00    +0.000 A 
ATOM      7  C   UNL     1       2.019   2.296  20.548  0.00  0.00    +0.000 A 
ATOM      8  C   UNL     1       3.216   2.792  20.022  0.00  0.00    +0.000 A 
ATOM      9  C   UNL     1       3.298   4.165  19.726  0.00  0.00    +0.000 A 
ENDROOT
BRANCH   1  10
ATOM     10  C   UNL     1       5.649   4.438  18.828  0.00  0.00    +0.000 C 
BRANCH  10  12
ATOM     11  N   UNL     1       7.115   6.305  18.058  0.00  0.00    +0.000 N 
ATOM     12  C   UNL     1       6.762   5.439  19.108  0.00  0.00    +0.000 C 
ATOM     13  O   UNL     1       7.337   5.490  20.200  0.00  0.00    +0.000 OA
BRANCH  11  15
ATOM     14  C   UNL     1       8.046   8.610  17.804  0.00  0.00    +0.000 C 
ATOM     15  C   UNL     1       8.269   7.184  18.286  0.00  0.00    +0.000 C 
ENDBRANCH  11  15
BRANCH  11  16
ATOM     16  C   UNL     1       6.385   6.319  16.784  0.00  0.00    +0.000 C 
ATOM     17  C   UNL     1       6.849   5.389  15.677  0.00  0.00    +0.000 C 
ENDBRANCH  11  16
ENDBRANCH  10  12
ENDBRANCH   1  10
BRANCH   3  18
ATOM     18  S   UNL     1       1.701   7.803  19.528  0.00  0.00    +0.000 S 
BRANCH  18  19
ATOM     19  C   UNL     1       1.256   7.931  21.285  0.00  0.00    +0.000 C 
BRANCH  19  20
ATOM     20  C   UNL     1       0.131   8.937  21.474  0.00  0.00    +0.000 C 
ATOM     21  O   UNL     1      -0.674   8.788  22.392  0.00  0.00    +0.000 OA
ATOM     22  N   UNL     1       0.148   9.983  20.558  0.00  0.00    +0.000 N 
ATOM     23  H   UNL     1       0.764   9.852  19.765  0.00  0.00    +0.000 HD
BRANCH  22  24
ATOM     24  C   UNL     1      -0.792  11.038  20.475  0.00  0.00    +0.000 A 
ATOM     25  C   UNL     1      -0.971  11.945  21.528  0.00  0.00    +0.000 A 
ATOM     26  C   UNL     1      -1.961  12.926  21.479  0.00  0.00    +0.000 A 
ATOM     27  C   UNL     1      -2.776  13.032  20.362  0.00  0.00    +0.000 A 
ATOM     28  C   UNL     1      -2.579  12.176  19.281  0.00  0.00    +0.000 A 
ATOM     29  C   UNL     1      -1.585  11.179  19.315  0.00  0.00    +0.000 A 
ATOM     30  C   UNL     1      -1.440  10.282  18.115  0.00  0.00    +0.000 C 
ENDBRANCH  22  24
ENDBRANCH  19  20
ENDBRANCH  18  19
ENDBRANCH   3  18
TORSDOF 8
ENDMDL
MODEL 6
REMARK VINA RESULT:      -7.3      2.611      8.136
REMARK  Name = 
REMARK  11 active torsions:
REMARK  status: ('A' for Active; 'I' for Inactive)
REMARK    1  A    between atoms: C_1  and  C_2
REMARK    2  A    between atoms: C_2  and  N_3
REMARK    3  A    between atoms: N_3  and  C_4
REMARK    4  A    between atoms: C_4  and  C_5
REMARK    5  A    between atoms: C_6  and  C_8
REMARK    6  A    between atoms: C_8  and  N_9
REMARK    7  A    between atoms: C_11  and  S_12
REMARK    8  A    between atoms: S_12  and  C_13
REMARK    9  A    between atoms: C_13  and  C_14
REMARK   10  A    between atoms: N_16  and  C_17
REMARK   11  A    between atoms: C_22  and  C_23
REMARK                            x       y       z     vdW  Elec       q    Type
REMARK                         _______ _______ _______ _____ _____    ______ ____
ROOT
ATOM      1  N   UNL     1       4.174   4.888  19.192  0.00  0.00    +0.000 N 
ATOM      2  C   UNL     1       3.818   6.208  19.326  0.00  0.00    +0.000 A 
ATOM      3  C   UNL     1       2.543   6.250  19.832  0.00  0.00    +0.000 A 
ATOM      4  C   UNL     1       2.080   4.911  19.980  0.00  0.00    +0.000 A 
ATOM      5  C   UNL     1       0.873   4.318  20.418  0.00  0.00    +0.000 A 
ATOM      6  C   UNL     1       0.747   2.926  20.445  0.00  0.00    +0.000 A 
ATOM      7  C   UNL     1       1.795   2.116  20.025  0.00  0.00    +0.000 A 
ATOM      8  C   UNL     1       2.997   2.669  19.575  0.00  0.00    +0.000 A 
ATOM      9  C   UNL     1       3.124   4.071  19.563  0.00  0.00    +0.000 A 
ENDROOT
BRANCH   1  10
ATOM     10  C   UNL     1       5.462   4.445  18.668  0.00  0.00    +0.000 C 
BRANCH  10  12
ATOM     11  N   UNL     1       6.958   6.316  17.964  0.00  0.00    +0.000 N 
ATOM     12  C   UNL     1       6.594   5.415  18.981  0.00  0.00    +0.000 C 
ATOM     13  O   UNL     1       7.175   5.412  20.071  0.00  0.00    +0.000 OA
BRANCH  11  15
ATOM     14  C   UNL     1       7.954   8.596  17.733  0.00  0.00    +0.000 C 
ATOM     15  C   UNL     1       8.128   7.164  18.220  0.00  0.00    +0.000 C 
ENDBRANCH  11  15
BRANCH  11  16
ATOM     16  C   UNL     1       6.221   6.393  16.696  0.00  0.00    +0.000 C 
ATOM     17  C   UNL     1       6.653   5.487  15.556  0.00  0.00    +0.000 C 
ENDBRANCH  11  16
ENDBRANCH  10  12
ENDBRANCH   1  10
BRANCH   3  18
ATOM     18  S   UNL     1       1.662   7.722  20.158  0.00  0.00    +0.000 S 
BRANCH  18  19
ATOM     19  C   UNL     1       1.843   8.591  18.572  0.00  0.00    +0.000 C 
BRANCH  19  20
ATOM     20  C   UNL     1       0.907   9.788  18.513  0.00  0.00    +0.000 C 
ATOM     21  O   UNL     1      -0.074   9.761  17.772  0.00  0.00    +0.000 OA
ATOM     22  N   UNL     1       1.265  10.827  19.365  0.00  0.00    +0.000 N 
ATOM     23  H   UNL     1       2.193  10.758  19.763  0.00  0.00    +0.000 HD
BRANCH  22  24
ATOM     24  C   UNL     1       0.600  12.070  19.495  0.00  0.00    +0.000 A 
ATOM     25  C   UNL     1      -0.613  12.184  20.187  0.00  0.00    +0.000 A 
ATOM     26  C   UNL     1      -1.310  13.391  20.235  0.00  0.00    +0.000 A 
ATOM     27  C   UNL     1      -0.793  14.514  19.607  0.00  0.00    +0.000 A 
ATOM     28  C   UNL     1       0.439  14.437  18.959  0.00  0.00    +0.000 A 
ATOM     29  C   UNL     1       1.155  13.225  18.902  0.00  0.00    +0.000 A 
ATOM     30  C   UNL     1       2.471  13.214  18.173  0.00  0.00    +0.000 C 
ENDBRANCH  22  24
ENDBRANCH  19  20
ENDBRANCH  18  19
ENDBRANCH   3  18
TORSDOF 8
ENDMDL
MODEL 7
REMARK VINA RESULT:      -7.2      2.621      8.444
REMARK  Name = 
REMARK  11 active torsions:
REMARK  status: ('A' for Active; 'I' for Inactive)
REMARK    1  A    between atoms: C_1  and  C_2
REMARK    2  A    between atoms: C_2  and  N_3
REMARK    3  A    between atoms: N_3  and  C_4
REMARK    4  A    between atoms: C_4  and  C_5
REMARK    5  A    between atoms: C_6  and  C_8
REMARK    6  A    between atoms: C_8  and  N_9
REMARK    7  A    between atoms: C_11  and  S_12
REMARK    8  A    between atoms: S_12  and  C_13
REMARK    9  A    between atoms: C_13  and  C_14
REMARK   10  A    between atoms: N_16  and  C_17
REMARK   11  A    between atoms: C_22  and  C_23
REMARK                            x       y       z     vdW  Elec       q    Type
REMARK                         _______ _______ _______ _____ _____    ______ ____
ROOT
ATOM      1  N   UNL     1       3.621   5.045  17.695  0.00  0.00    +0.000 N 
ATOM      2  C   UNL     1       3.392   6.349  18.059  0.00  0.00    +0.000 A 
ATOM      3  C   UNL     1       2.500   6.343  19.103  0.00  0.00    +0.000 A 
ATOM      4  C   UNL     1       2.136   4.992  19.368  0.00  0.00    +0.000 A 
ATOM      5  C   UNL     1       1.263   4.359  20.281  0.00  0.00    +0.000 A 
ATOM      6  C   UNL     1       1.139   2.966  20.280  0.00  0.00    +0.000 A 
ATOM      7  C   UNL     1       1.855   2.196  19.372  0.00  0.00    +0.000 A 
ATOM      8  C   UNL     1       2.719   2.792  18.448  0.00  0.00    +0.000 A 
ATOM      9  C   UNL     1       2.851   4.192  18.462  0.00  0.00    +0.000 A 
ENDROOT
BRANCH   1  10
ATOM     10  C   UNL     1       4.508   4.651  16.605  0.00  0.00    +0.000 C 
BRANCH  10  12
ATOM     11  N   UNL     1       6.669   5.849  16.963  0.00  0.00    +0.000 N 
ATOM     12  C   UNL     1       5.485   5.751  16.210  0.00  0.00    +0.000 C 
ATOM     13  O   UNL     1       5.254   6.527  15.278  0.00  0.00    +0.000 OA
BRANCH  11  15
ATOM     14  C   UNL     1       7.442   8.117  17.672  0.00  0.00    +0.000 C 
ATOM     15  C   UNL     1       7.551   6.983  16.662  0.00  0.00    +0.000 C 
ENDBRANCH  11  15
BRANCH  11  16
ATOM     16  C   UNL     1       7.002   4.881  18.016  0.00  0.00    +0.000 C 
ATOM     17  C   UNL     1       6.754   5.276  19.462  0.00  0.00    +0.000 C 
ENDBRANCH  11  16
ENDBRANCH  10  12
ENDBRANCH   1  10
BRANCH   3  18
ATOM     18  S   UNL     1       1.899   7.781  19.890  0.00  0.00    +0.000 S 
BRANCH  18  19
ATOM     19  C   UNL     1       1.806   8.931  18.485  0.00  0.00    +0.000 C 
BRANCH  19  20
ATOM     20  C   UNL     1       1.128  10.226  18.904  0.00  0.00    +0.000 C 
ATOM     21  O   UNL     1       1.596  11.305  18.544  0.00  0.00    +0.000 OA
ATOM     22  N   UNL     1      -0.020  10.041  19.667  0.00  0.00    +0.000 N 
ATOM     23  H   UNL     1      -0.156   9.103  20.021  0.00  0.00    +0.000 HD
BRANCH  22  24
ATOM     24  C   UNL     1      -0.831  11.061  20.220  0.00  0.00    +0.000 A 
ATOM     25  C   UNL     1      -0.647  11.511  21.534  0.00  0.00    +0.000 A 
ATOM     26  C   UNL     1      -1.505  12.450  22.106  0.00  0.00    +0.000 A 
ATOM     27  C   UNL     1      -2.552  12.973  21.362  0.00  0.00    +0.000 A 
ATOM     28  C   UNL     1      -2.721  12.581  20.036  0.00  0.00    +0.000 A 
ATOM     29  C   UNL     1      -1.863  11.633  19.445  0.00  0.00    +0.000 A 
ATOM     30  C   UNL     1      -2.114  11.247  18.012  0.00  0.00    +0.000 C 
ENDBRANCH  22  24
ENDBRANCH  19  20
ENDBRANCH  18  19
ENDBRANCH   3  18
TORSDOF 8
ENDMDL
MODEL 8
REMARK VINA RESULT:      -7.2      2.048      8.233
REMARK  Name = 
REMARK  11 active torsions:
REMARK  status: ('A' for Active; 'I' for Inactive)
REMARK    1  A    between atoms: C_1  and  C_2
REMARK    2  A    between atoms: C_2  and  N_3
REMARK    3  A    between atoms: N_3  and  C_4
REMARK    4  A    between atoms: C_4  and  C_5
REMARK    5  A    between atoms: C_6  and  C_8
REMARK    6  A    between atoms: C_8  and  N_9
REMARK    7  A    between atoms: C_11  and  S_12
REMARK    8  A    between atoms: S_12  and  C_13
REMARK    9  A    between atoms: C_13  and  C_14
REMARK   10  A    between atoms: N_16  and  C_17
REMARK   11  A    between atoms: C_22  and  C_23
REMARK                            x       y       z     vdW  Elec       q    Type
REMARK                         _______ _______ _______ _____ _____    ______ ____
ROOT
ATOM      1  N   UNL     1       4.161   4.630  18.962  0.00  0.00    +0.000 N 
ATOM      2  C   UNL     1       3.924   5.965  19.178  0.00  0.00    +0.000 A 
ATOM      3  C   UNL     1       2.677   6.085  19.739  0.00  0.00    +0.000 A 
ATOM      4  C   UNL     1       2.108   4.783  19.838  0.00  0.00    +0.000 A 
ATOM      5  C   UNL     1       0.873   4.270  20.297  0.00  0.00    +0.000 A 
ATOM      6  C   UNL     1       0.630   2.894  20.259  0.00  0.00    +0.000 A 
ATOM      7  C   UNL     1       1.588   2.023  19.755  0.00  0.00    +0.000 A 
ATOM      8  C   UNL     1       2.815   2.499  19.283  0.00  0.00    +0.000 A 
ATOM      9  C   UNL     1       3.060   3.883  19.335  0.00  0.00    +0.000 A 
ENDROOT
BRANCH   1  10
ATOM     10  C   UNL     1       5.386   4.110  18.362  0.00  0.00    +0.000 C 
BRANCH  10  12
ATOM     11  N   UNL     1       6.427   5.346  16.460  0.00  0.00    +0.000 N 
ATOM     12  C   UNL     1       5.479   4.390  16.868  0.00  0.00    +0.000 C 
ATOM     13  O   UNL     1       4.757   3.815  16.048  0.00  0.00    +0.000 OA
BRANCH  11  15
ATOM     14  C   UNL     1       7.119   4.672  14.155  0.00  0.00    +0.000 C 
ATOM     15  C   UNL     1       6.432   5.705  15.036  0.00  0.00    +0.000 C 
ENDBRANCH  11  15
BRANCH  11  16
ATOM     16  C   UNL     1       7.354   5.975  17.409  0.00  0.00    +0.000 C 
ATOM     17  C   UNL     1       7.505   7.486  17.375  0.00  0.00    +0.000 C 
ENDBRANCH  11  16
ENDBRANCH  10  12
ENDBRANCH   1  10
BRANCH   3  18
ATOM     18  S   UNL     1       1.938   7.606  20.176  0.00  0.00    +0.000 S 
BRANCH  18  19
ATOM     19  C   UNL     1       2.171   8.556  18.644  0.00  0.00    +0.000 C 
BRANCH  19  20
ATOM     20  C   UNL     1       1.311   9.810  18.663  0.00  0.00    +0.000 C 
ATOM     21  O   UNL     1       1.744  10.855  18.181  0.00  0.00    +0.000 OA
ATOM     22  N   UNL     1       0.054   9.624  19.228  0.00  0.00    +0.000 N 
ATOM     23  H   UNL     1      -0.067   8.757  19.735  0.00  0.00    +0.000 HD
BRANCH  22  24
ATOM     24  C   UNL     1      -0.938  10.618  19.408  0.00  0.00    +0.000 A 
ATOM     25  C   UNL     1      -0.955  11.439  20.543  0.00  0.00    +0.000 A 
ATOM     26  C   UNL     1      -1.986  12.354  20.761  0.00  0.00    +0.000 A 
ATOM     27  C   UNL     1      -3.008  12.478  19.832  0.00  0.00    +0.000 A 
ATOM     28  C   UNL     1      -2.982  11.710  18.670  0.00  0.00    +0.000 A 
ATOM     29  C   UNL     1      -1.949  10.782  18.436  0.00  0.00    +0.000 A 
ATOM     30  C   UNL     1      -1.994   9.977  17.165  0.00  0.00    +0.000 C 
ENDBRANCH  22  24
ENDBRANCH  19  20
ENDBRANCH  18  19
ENDBRANCH   3  18
TORSDOF 8
ENDMDL
MODEL 9
REMARK VINA RESULT:      -7.2      0.976      1.422
REMARK  Name = 
REMARK  11 active torsions:
REMARK  status: ('A' for Active; 'I' for Inactive)
REMARK    1  A    between atoms: C_1  and  C_2
REMARK    2  A    between atoms: C_2  and  N_3
REMARK    3  A    between atoms: N_3  and  C_4
REMARK    4  A    between atoms: C_4  and  C_5
REMARK    5  A    between atoms: C_6  and  C_8
REMARK    6  A    between atoms: C_8  and  N_9
REMARK    7  A    between atoms: C_11  and  S_12
REMARK    8  A    between atoms: S_12  and  C_13
REMARK    9  A    between atoms: C_13  and  C_14
REMARK   10  A    between atoms: N_16  and  C_17
REMARK   11  A    between atoms: C_22  and  C_23
REMARK                            x       y       z     vdW  Elec       q    Type
REMARK                         _______ _______ _______ _____ _____    ______ ____
ROOT
ATOM      1  N   UNL     1       3.072   6.331  18.588  0.00  0.00    +0.000 N 
ATOM      2  C   UNL     1       4.426   6.534  18.696  0.00  0.00    +0.000 A 
ATOM      3  C   UNL     1       5.045   5.317  18.552  0.00  0.00    +0.000 A 
ATOM      4  C   UNL     1       4.037   4.323  18.388  0.00  0.00    +0.000 A 
ATOM      5  C   UNL     1       4.043   2.919  18.222  0.00  0.00    +0.000 A 
ATOM      6  C   UNL     1       2.837   2.227  18.079  0.00  0.00    +0.000 A 
ATOM      7  C   UNL     1       1.626   2.907  18.118  0.00  0.00    +0.000 A 
ATOM      8  C   UNL     1       1.584   4.294  18.291  0.00  0.00    +0.000 A 
ATOM      9  C   UNL     1       2.801   4.987  18.421  0.00  0.00    +0.000 A 
ENDROOT
BRANCH   1  10
ATOM     10  C   UNL     1       2.082   7.397  18.703  0.00  0.00    +0.000 C 
BRANCH  10  12
ATOM     11  N   UNL     1       1.200   8.978  20.422  0.00  0.00    +0.000 N 
ATOM     12  C   UNL     1       1.688   7.688  20.145  0.00  0.00    +0.000 C 
ATOM     13  O   UNL     1       1.795   6.841  21.037  0.00  0.00    +0.000 OA
BRANCH  11  15
ATOM     14  C   UNL     1      -0.477   8.950  22.274  0.00  0.00    +0.000 C 
ATOM     15  C   UNL     1       0.937   9.297  21.830  0.00  0.00    +0.000 C 
ENDBRANCH  11  15
BRANCH  11  16
ATOM     16  C   UNL     1       0.982   9.970  19.361  0.00  0.00    +0.000 C 
ATOM     17  C   UNL     1       0.566  11.375  19.762  0.00  0.00    +0.000 C 
ENDBRANCH  11  16
ENDBRANCH  10  12
ENDBRANCH   1  10
BRANCH   3  18
ATOM     18  S   UNL     1       6.773   5.077  18.631  0.00  0.00    +0.000 S 
BRANCH  18  19
ATOM     19  C   UNL     1       7.348   6.322  17.438  0.00  0.00    +0.000 C 
BRANCH  19  20
ATOM     20  C   UNL     1       6.712   6.086  16.077  0.00  0.00    +0.000 C 
ATOM     21  O   UNL     1       5.792   6.808  15.698  0.00  0.00    +0.000 OA
ATOM     22  N   UNL     1       7.285   5.041  15.360  0.00  0.00    +0.000 N 
ATOM     23  H   UNL     1       7.903   4.440  15.892  0.00  0.00    +0.000 HD
BRANCH  22  24
ATOM     24  C   UNL     1       6.877   4.576  14.086  0.00  0.00    +0.000 A 
ATOM     25  C   UNL     1       5.758   3.748  13.933  0.00  0.00    +0.000 A 
ATOM     26  C   UNL     1       5.413   3.218  12.689  0.00  0.00    +0.000 A 
ATOM     27  C   UNL     1       6.171   3.529  11.571  0.00  0.00    +0.000 A 
ATOM     28  C   UNL     1       7.257   4.394  11.691  0.00  0.00    +0.000 A 
ATOM     29  C   UNL     1       7.618   4.937  12.940  0.00  0.00    +0.000 A 
ATOM     30  C   UNL     1       8.810   5.853  12.996  0.00  0.00    +0.000 C 
ENDBRANCH  22  24
ENDBRANCH  19  20
ENDBRANCH  18  19
ENDBRANCH   3  18
TORSDOF 8
ENDMDL
