MODEL 1
REMARK VINA RESULT:      -6.6      0.000      0.000
REMARK  Name = 
REMARK  8 active torsions:
REMARK  status: ('A' for Active; 'I' for Inactive)
REMARK    1  A    between atoms: C_1  and  S_2
REMARK    2  A    between atoms: S_2  and  C_3
REMARK    3  A    between atoms: C_6  and  C_7
REMARK    4  A    between atoms: N_11  and  C1*_12
REMARK    5  A    between atoms: C4*_14  and  C5*_15
REMARK    6  A    between atoms: C5*_15  and  O5*_16
REMARK    7  A    between atoms: C3*_17  and  O3*_18
REMARK    8  A    between atoms: C2*_19  and  O2*_20
REMARK                            x       y       z     vdW  Elec       q    Type
REMARK                         _______ _______ _______ _____ _____    ______ ____
ROOT
ATOM      1  C1* UNL     1       5.109   6.074  17.603  0.00  0.00    +0.000 C 
ATOM      2  O4* UNL     1       4.801   5.643  16.252  0.00  0.00    +0.000 OA
ATOM      3  C4* UNL     1       6.027   5.210  15.608  0.00  0.00    +0.000 C 
ATOM      4  C3* UNL     1       7.164   5.492  16.584  0.00  0.00    +0.000 C 
ATOM      5  C2* UNL     1       6.475   5.480  17.942  0.00  0.00    +0.000 C 
ENDROOT
BRANCH   1  14
ATOM      6  C   UNL     1       2.884   6.379  18.807  0.00  0.00    +0.000 A 
ATOM      7  N   UNL     1       2.070   5.700  19.598  0.00  0.00    +0.000 NA
ATOM      8  C   UNL     1       2.726   4.539  19.800  0.00  0.00    +0.000 A 
ATOM      9  C   UNL     1       2.445   3.350  20.501  0.00  0.00    +0.000 A 
ATOM     10  C   UNL     1       1.216   3.048  21.269  0.00  0.00    +0.000 C 
ATOM     11  N   UNL     1       3.424   2.429  20.413  0.00  0.00    +0.000 NA
ATOM     12  S   UNL     1       4.656   3.045  19.445  0.00  0.00    +0.000 S 
ATOM     13  C   UNL     1       3.908   4.498  19.164  0.00  0.00    +0.000 A 
ATOM     14  N   UNL     1       4.039   5.670  18.496  0.00  0.00    +0.000 N 
BRANCH   6  16
ATOM     15  C   UNL     1       1.557   8.617  19.583  0.00  0.00    +0.000 C 
ATOM     16  S   UNL     1       2.530   7.963  18.200  0.00  0.00    +0.000 S 
ENDBRANCH   6  16
ENDBRANCH   1  14
BRANCH   4  17
ATOM     17  O3* UNL     1       7.730   6.802  16.386  0.00  0.00    +0.000 OA
ATOM     18  H3* UNL     1       7.783   7.267  17.241  0.00  0.00    +0.000 HD
ENDBRANCH   4  17
BRANCH   5  19
ATOM     19  O2* UNL     1       7.214   6.246  18.894  0.00  0.00    +0.000 OA
ATOM     20  H2* UNL     1       6.984   7.190  18.729  0.00  0.00    +0.000 HD
ENDBRANCH   5  19
BRANCH   3  21
ATOM     21  C5* UNL     1       5.912   3.727  15.251  0.00  0.00    +0.000 C 
BRANCH  21  22
ATOM     22  O5* UNL     1       6.315   3.513  13.902  0.00  0.00    +0.000 OA
ATOM     23  H5* UNL     1       6.668   2.605  13.850  0.00  0.00    +0.000 HD
ENDBRANCH  21  22
ENDBRANCH   3  21
TORSDOF 6
ENDMDL
MODEL 2
REMARK VINA RESULT:      -6.5      3.135      5.870
REMARK  Name = 
REMARK  8 active torsions:
REMARK  status: ('A' for Active; 'I' for Inactive)
REMARK    1  A    between atoms: C_1  and  S_2
REMARK    2  A    between atoms: S_2  and  C_3
REMARK    3  A    between atoms: C_6  and  C_7
REMARK    4  A    between atoms: N_11  and  C1*_12
REMARK    5  A    between atoms: C4*_14  and  C5*_15
REMARK    6  A    between atoms: C5*_15  and  O5*_16
REMARK    7  A    between atoms: C3*_17  and  O3*_18
REMARK    8  A    between atoms: C2*_19  and  O2*_20
REMARK                            x       y       z     vdW  Elec       q    Type
REMARK                         _______ _______ _______ _____ _____    ______ ____
ROOT
ATOM      1  C1* UNL     1       3.665   5.714  19.257  0.00  0.00    +0.000 C 
ATOM      2  O4* UNL     1       3.601   4.704  20.296  0.00  0.00    +0.000 OA
ATOM      3  C4* UNL     1       2.337   4.833  20.997  0.00  0.00    +0.000 C 
ATOM      4  C3* UNL     1       1.636   6.060  20.424  0.00  0.00    +0.000 C 
ATOM      5  C2* UNL     1       2.231   6.186  19.028  0.00  0.00    +0.000 C 
ENDROOT
BRANCH   1  14
ATOM      6  C   UNL     1       3.880   4.090  17.304  0.00  0.00    +0.000 A 
ATOM      7  N   UNL     1       4.657   3.881  16.254  0.00  0.00    +0.000 NA
ATOM      8  C   UNL     1       5.606   4.832  16.372  0.00  0.00    +0.000 A 
ATOM      9  C   UNL     1       6.720   5.221  15.605  0.00  0.00    +0.000 A 
ATOM     10  C   UNL     1       7.169   4.615  14.331  0.00  0.00    +0.000 C 
ATOM     11  N   UNL     1       7.396   6.264  16.126  0.00  0.00    +0.000 NA
ATOM     12  S   UNL     1       6.621   6.753  17.539  0.00  0.00    +0.000 S 
ATOM     13  C   UNL     1       5.431   5.602  17.459  0.00  0.00    +0.000 A 
ATOM     14  N   UNL     1       4.311   5.159  18.082  0.00  0.00    +0.000 N 
BRANCH   6  16
ATOM     15  C   UNL     1       3.234   1.646  18.293  0.00  0.00    +0.000 C 
ATOM     16  S   UNL     1       2.463   3.154  17.649  0.00  0.00    +0.000 S 
ENDBRANCH   6  16
ENDBRANCH   1  14
BRANCH   4  17
ATOM     17  O3* UNL     1       1.964   7.256  21.155  0.00  0.00    +0.000 OA
ATOM     18  H3* UNL     1       2.555   7.815  20.618  0.00  0.00    +0.000 HD
ENDBRANCH   4  17
BRANCH   5  19
ATOM     19  O2* UNL     1       2.138   7.530  18.555  0.00  0.00    +0.000 OA
ATOM     20  H2* UNL     1       2.973   7.977  18.824  0.00  0.00    +0.000 HD
ENDBRANCH   5  19
BRANCH   3  21
ATOM     21  C5* UNL     1       1.524   3.550  20.812  0.00  0.00    +0.000 C 
BRANCH  21  22
ATOM     22  O5* UNL     1       1.594   2.751  21.989  0.00  0.00    +0.000 OA
ATOM     23  H5* UNL     1       0.701   2.746  22.385  0.00  0.00    +0.000 HD
ENDBRANCH  21  22
ENDBRANCH   3  21
TORSDOF 6
ENDMDL
MODEL 3
REMARK VINA RESULT:      -6.5      3.225      5.581
REMARK  Name = 
REMARK  8 active torsions:
REMARK  status: ('A' for Active; 'I' for Inactive)
REMARK    1  A    between atoms: C_1  and  S_2
REMARK    2  A    between atoms: S_2  and  C_3
REMARK    3  A    between atoms: C_6  and  C_7
REMARK    4  A    between atoms: N_11  and  C1*_12
REMARK    5  A    between atoms: C4*_14  and  C5*_15
REMARK    6  A    between atoms: C5*_15  and  O5*_16
REMARK    7  A    between atoms: C3*_17  and  O3*_18
REMARK    8  A    between atoms: C2*_19  and  O2*_20
REMARK                            x       y       z     vdW  Elec       q    Type
REMARK                         _______ _______ _______ _____ _____    ______ ____
ROOT
ATOM      1  C1* UNL     1       5.219   4.959  18.520  0.00  0.00    +0.000 C 
ATOM      2  O4* UNL     1       5.347   3.553  18.853  0.00  0.00    +0.000 OA
ATOM      3  C4* UNL     1       4.067   3.067  19.335  0.00  0.00    +0.000 C 
ATOM      4  C3* UNL     1       3.134   4.270  19.402  0.00  0.00    +0.000 C 
ATOM      5  C2* UNL     1       3.724   5.232  18.379  0.00  0.00    +0.000 C 
ENDROOT
BRANCH   1  14
ATOM      6  C   UNL     1       7.124   6.061  17.235  0.00  0.00    +0.000 A 
ATOM      7  N   UNL     1       7.650   6.057  16.021  0.00  0.00    +0.000 NA
ATOM      8  C   UNL     1       6.837   5.232  15.331  0.00  0.00    +0.000 A 
ATOM      9  C   UNL     1       6.810   4.743  14.011  0.00  0.00    +0.000 A 
ATOM     10  C   UNL     1       7.785   5.044  12.938  0.00  0.00    +0.000 C 
ATOM     11  N   UNL     1       5.780   3.910  13.766  0.00  0.00    +0.000 NA
ATOM     12  S   UNL     1       4.884   3.732  15.181  0.00  0.00    +0.000 S 
ATOM     13  C   UNL     1       5.838   4.744  16.084  0.00  0.00    +0.000 A 
ATOM     14  N   UNL     1       6.000   5.249  17.332  0.00  0.00    +0.000 N 
BRANCH   6  16
ATOM     15  C   UNL     1       7.971   8.581  17.787  0.00  0.00    +0.000 C 
ATOM     16  S   UNL     1       7.788   6.954  18.564  0.00  0.00    +0.000 S 
ENDBRANCH   6  16
ENDBRANCH   1  14
BRANCH   4  17
ATOM     17  O3* UNL     1       3.177   4.913  20.689  0.00  0.00    +0.000 OA
ATOM     18  H3* UNL     1       2.286   5.229  20.927  0.00  0.00    +0.000 HD
ENDBRANCH   4  17
BRANCH   5  19
ATOM     19  O2* UNL     1       3.355   6.579  18.675  0.00  0.00    +0.000 OA
ATOM     20  H2* UNL     1       4.030   6.919  19.307  0.00  0.00    +0.000 HD
ENDBRANCH   5  19
BRANCH   3  21
ATOM     21  C5* UNL     1       3.555   1.976  18.393  0.00  0.00    +0.000 C 
BRANCH  21  22
ATOM     22  O5* UNL     1       4.308   0.780  18.571  0.00  0.00    +0.000 OA
ATOM     23  H5* UNL     1       4.533   0.449  17.680  0.00  0.00    +0.000 HD
ENDBRANCH  21  22
ENDBRANCH   3  21
TORSDOF 6
ENDMDL
MODEL 4
REMARK VINA RESULT:      -6.5      2.744      5.185
REMARK  Name = 
REMARK  8 active torsions:
REMARK  status: ('A' for Active; 'I' for Inactive)
REMARK    1  A    between atoms: C_1  and  S_2
REMARK    2  A    between atoms: S_2  and  C_3
REMARK    3  A    between atoms: C_6  and  C_7
REMARK    4  A    between atoms: N_11  and  C1*_12
REMARK    5  A    between atoms: C4*_14  and  C5*_15
REMARK    6  A    between atoms: C5*_15  and  O5*_16
REMARK    7  A    between atoms: C3*_17  and  O3*_18
REMARK    8  A    between atoms: C2*_19  and  O2*_20
REMARK                            x       y       z     vdW  Elec       q    Type
REMARK                         _______ _______ _______ _____ _____    ______ ____
ROOT
ATOM      1  C1* UNL     1       3.739   4.068  18.348  0.00  0.00    +0.000 C 
ATOM      2  O4* UNL     1       2.429   3.536  18.674  0.00  0.00    +0.000 OA
ATOM      3  C4* UNL     1       2.572   2.564  19.743  0.00  0.00    +0.000 C 
ATOM      4  C3* UNL     1       4.064   2.416  20.011  0.00  0.00    +0.000 C 
ATOM      5  C2* UNL     1       4.642   3.743  19.536  0.00  0.00    +0.000 C 
ENDROOT
BRANCH   1  14
ATOM      6  C   UNL     1       4.216   6.174  16.995  0.00  0.00    +0.000 A 
ATOM      7  N   UNL     1       3.853   7.446  16.956  0.00  0.00    +0.000 NA
ATOM      8  C   UNL     1       3.021   7.566  18.010  0.00  0.00    +0.000 A 
ATOM      9  C   UNL     1       2.250   8.613  18.550  0.00  0.00    +0.000 A 
ATOM     10  C   UNL     1       2.146   9.994  18.025  0.00  0.00    +0.000 C 
ATOM     11  N   UNL     1       1.547   8.256  19.642  0.00  0.00    +0.000 NA
ATOM     12  S   UNL     1       1.838   6.628  19.960  0.00  0.00    +0.000 S 
ATOM     13  C   UNL     1       2.876   6.414  18.686  0.00  0.00    +0.000 A 
ATOM     14  N   UNL     1       3.626   5.483  18.047  0.00  0.00    +0.000 N 
BRANCH   6  16
ATOM     15  C   UNL     1       6.880   5.818  16.609  0.00  0.00    +0.000 C 
ATOM     16  S   UNL     1       5.283   5.446  15.838  0.00  0.00    +0.000 S 
ENDBRANCH   6  16
ENDBRANCH   1  14
BRANCH   4  17
ATOM     17  O3* UNL     1       4.652   1.368  19.217  0.00  0.00    +0.000 OA
ATOM     18  H3* UNL     1       4.979   0.660  19.802  0.00  0.00    +0.000 HD
ENDBRANCH   4  17
BRANCH   5  19
ATOM     19  O2* UNL     1       6.020   3.603  19.187  0.00  0.00    +0.000 OA
ATOM     20  H2* UNL     1       6.400   2.949  19.818  0.00  0.00    +0.000 HD
ENDBRANCH   5  19
BRANCH   3  21
ATOM     21  C5* UNL     1       1.798   3.049  20.970  0.00  0.00    +0.000 C 
BRANCH  21  22
ATOM     22  O5* UNL     1       2.533   2.767  22.157  0.00  0.00    +0.000 OA
ATOM     23  H5* UNL     1       2.808   3.625  22.534  0.00  0.00    +0.000 HD
ENDBRANCH  21  22
ENDBRANCH   3  21
TORSDOF 6
ENDMDL
MODEL 5
REMARK VINA RESULT:      -6.4      2.912      5.118
REMARK  Name = 
REMARK  8 active torsions:
REMARK  status: ('A' for Active; 'I' for Inactive)
REMARK    1  A    between atoms: C_1  and  S_2
REMARK    2  A    between atoms: S_2  and  C_3
REMARK    3  A    between atoms: C_6  and  C_7
REMARK    4  A    between atoms: N_11  and  C1*_12
REMARK    5  A    between atoms: C4*_14  and  C5*_15
REMARK    6  A    between atoms: C5*_15  and  O5*_16
REMARK    7  A    between atoms: C3*_17  and  O3*_18
REMARK    8  A    between atoms: C2*_19  and  O2*_20
REMARK                            x       y       z     vdW  Elec       q    Type
REMARK                         _______ _______ _______ _____ _____    ______ ____
ROOT
ATOM      1  C1* UNL     1       3.885   3.620  17.639  0.00  0.00    +0.000 C 
ATOM      2  O4* UNL     1       2.606   3.091  17.204  0.00  0.00    +0.000 OA
ATOM      3  C4* UNL     1       2.239   1.983  18.067  0.00  0.00    +0.000 C 
ATOM      4  C3* UNL     1       3.409   1.755  19.016  0.00  0.00    +0.000 C 
ATOM      5  C2* UNL     1       4.096   3.114  19.064  0.00  0.00    +0.000 C 
ENDROOT
BRANCH   1  14
ATOM      6  C   UNL     1       4.594   5.832  16.592  0.00  0.00    +0.000 A 
ATOM      7  N   UNL     1       4.312   7.122  16.684  0.00  0.00    +0.000 NA
ATOM      8  C   UNL     1       3.409   7.174  17.684  0.00  0.00    +0.000 A 
ATOM      9  C   UNL     1       2.662   8.201  18.292  0.00  0.00    +0.000 A 
ATOM     10  C   UNL     1       2.684   9.638  17.935  0.00  0.00    +0.000 C 
ATOM     11  N   UNL     1       1.855   7.768  19.280  0.00  0.00    +0.000 NA
ATOM     12  S   UNL     1       2.021   6.097  19.415  0.00  0.00    +0.000 S 
ATOM     13  C   UNL     1       3.142   5.964  18.201  0.00  0.00    +0.000 A 
ATOM     14  N   UNL     1       3.882   5.065  17.507  0.00  0.00    +0.000 N 
BRANCH   6  16
ATOM     15  C   UNL     1       7.092   4.770  16.524  0.00  0.00    +0.000 C 
ATOM     16  S   UNL     1       5.702   5.174  15.433  0.00  0.00    +0.000 S 
ENDBRANCH   6  16
ENDBRANCH   1  14
BRANCH   4  17
ATOM     17  O3* UNL     1       4.351   0.802  18.489  0.00  0.00    +0.000 OA
ATOM     18  H3* UNL     1       4.167  -0.079  18.861  0.00  0.00    +0.000 HD
ENDBRANCH   4  17
BRANCH   5  19
ATOM     19  O2* UNL     1       5.470   2.977  19.428  0.00  0.00    +0.000 OA
ATOM     20  H2* UNL     1       5.994   3.276  18.650  0.00  0.00    +0.000 HD
ENDBRANCH   5  19
BRANCH   3  21
ATOM     21  C5* UNL     1       0.943   2.327  18.803  0.00  0.00    +0.000 C 
BRANCH  21  22
ATOM     22  O5* UNL     1       1.185   2.433  20.202  0.00  0.00    +0.000 OA
ATOM     23  H5* UNL     1       1.841   1.747  20.431  0.00  0.00    +0.000 HD
ENDBRANCH  21  22
ENDBRANCH   3  21
TORSDOF 6
ENDMDL
MODEL 6
REMARK VINA RESULT:      -6.3      1.053      1.053
REMARK  Name = 
REMARK  8 active torsions:
REMARK  status: ('A' for Active; 'I' for Inactive)
REMARK    1  A    between atoms: C_1  and  S_2
REMARK    2  A    between atoms: S_2  and  C_3
REMARK    3  A    between atoms: C_6  and  C_7
REMARK    4  A    between atoms: N_11  and  C1*_12
REMARK    5  A    between atoms: C4*_14  and  C5*_15
REMARK    6  A    between atoms: C5*_15  and  O5*_16
REMARK    7  A    between atoms: C3*_17  and  O3*_18
REMARK    8  A    between atoms: C2*_19  and  O2*_20
REMARK                            x       y       z     vdW  Elec       q    Type
REMARK                         _______ _______ _______ _____ _____    ______ ____
ROOT
ATOM      1  C1* UNL     1       5.004   5.910  17.077  0.00  0.00    +0.000 C 
ATOM      2  O4* UNL     1       4.939   5.550  15.673  0.00  0.00    +0.000 OA
ATOM      3  C4* UNL     1       6.267   5.182  15.221  0.00  0.00    +0.000 C 
ATOM      4  C3* UNL     1       7.217   5.434  16.386  0.00  0.00    +0.000 C 
ATOM      5  C2* UNL     1       6.313   5.329  17.607  0.00  0.00    +0.000 C 
ENDROOT
BRANCH   1  14
ATOM      6  C   UNL     1       2.740   6.187  18.212  0.00  0.00    +0.000 A 
ATOM      7  N   UNL     1       1.775   5.440  18.723  0.00  0.00    +0.000 NA
ATOM      8  C   UNL     1       2.252   4.185  18.596  0.00  0.00    +0.000 A 
ATOM      9  C   UNL     1       1.755   2.901  18.893  0.00  0.00    +0.000 A 
ATOM     10  C   UNL     1       0.433   2.580  19.477  0.00  0.00    +0.000 C 
ATOM     11  N   UNL     1       2.608   1.907  18.578  0.00  0.00    +0.000 NA
ATOM     12  S   UNL     1       3.993   2.583  17.899  0.00  0.00    +0.000 S 
ATOM     13  C   UNL     1       3.471   4.150  18.034  0.00  0.00    +0.000 A 
ATOM     14  N   UNL     1       3.815   5.432  17.756  0.00  0.00    +0.000 N 
BRANCH   6  16
ATOM     15  C   UNL     1       1.778   8.289  19.635  0.00  0.00    +0.000 C 
ATOM     16  S   UNL     1       2.653   7.914  18.093  0.00  0.00    +0.000 S 
ENDBRANCH   6  16
ENDBRANCH   1  14
BRANCH   4  17
ATOM     17  O3* UNL     1       7.766   6.765  16.354  0.00  0.00    +0.000 OA
ATOM     18  H3* UNL     1       8.309   6.913  17.151  0.00  0.00    +0.000 HD
ENDBRANCH   4  17
BRANCH   5  19
ATOM     19  O2* UNL     1       6.860   6.056  18.708  0.00  0.00    +0.000 OA
ATOM     20  H2* UNL     1       6.632   7.002  18.556  0.00  0.00    +0.000 HD
ENDBRANCH   5  19
BRANCH   3  21
ATOM     21  C5* UNL     1       6.260   3.719  14.772  0.00  0.00    +0.000 C 
BRANCH  21  22
ATOM     22  O5* UNL     1       6.455   3.636  13.364  0.00  0.00    +0.000 OA
ATOM     23  H5* UNL     1       7.147   4.285  13.133  0.00  0.00    +0.000 HD
ENDBRANCH  21  22
ENDBRANCH   3  21
TORSDOF 6
ENDMDL
MODEL 7
REMARK VINA RESULT:      -6.3      1.516      1.585
REMARK  Name = 
REMARK  8 active torsions:
REMARK  status: ('A' for Active; 'I' for Inactive)
REMARK    1  A    between atoms: C_1  and  S_2
REMARK    2  A    between atoms: S_2  and  C_3
REMARK    3  A    between atoms: C_6  and  C_7
REMARK    4  A    between atoms: N_11  and  C1*_12
REMARK    5  A    between atoms: C4*_14  and  C5*_15
REMARK    6  A    between atoms: C5*_15  and  O5*_16
REMARK    7  A    between atoms: C3*_17  and  O3*_18
REMARK    8  A    between atoms: C2*_19  and  O2*_20
REMARK                            x       y       z     vdW  Elec       q    Type
REMARK                         _______ _______ _______ _____ _____    ______ ____
ROOT
ATOM      1  C1* UNL     1       5.157   6.045  18.330  0.00  0.00    +0.000 C 
ATOM      2  O4* UNL     1       5.236   6.338  16.911  0.00  0.00    +0.000 OA
ATOM      3  C4* UNL     1       6.610   6.168  16.473  0.00  0.00    +0.000 C 
ATOM      4  C3* UNL     1       7.435   5.859  17.717  0.00  0.00    +0.000 C 
ATOM      5  C2* UNL     1       6.418   5.255  18.676  0.00  0.00    +0.000 C 
ENDROOT
BRANCH   1  14
ATOM      6  C   UNL     1       2.729   5.900  19.087  0.00  0.00    +0.000 A 
ATOM      7  N   UNL     1       1.754   5.008  19.168  0.00  0.00    +0.000 NA
ATOM      8  C   UNL     1       2.337   3.868  18.745  0.00  0.00    +0.000 A 
ATOM      9  C   UNL     1       1.898   2.546  18.542  0.00  0.00    +0.000 A 
ATOM     10  C   UNL     1       0.528   2.028  18.761  0.00  0.00    +0.000 C 
ATOM     11  N   UNL     1       2.862   1.722  18.087  0.00  0.00    +0.000 NA
ATOM     12  S   UNL     1       4.281   2.608  17.899  0.00  0.00    +0.000 S 
ATOM     13  C   UNL     1       3.629   4.040  18.418  0.00  0.00    +0.000 A 
ATOM     14  N   UNL     1       3.915   5.351  18.613  0.00  0.00    +0.000 N 
BRANCH   6  16
ATOM     15  C   UNL     1       2.235   8.263  17.844  0.00  0.00    +0.000 C 
ATOM     16  S   UNL     1       2.532   7.573  19.493  0.00  0.00    +0.000 S 
ENDBRANCH   6  16
ENDBRANCH   1  14
BRANCH   4  17
ATOM     17  O3* UNL     1       7.961   7.054  18.324  0.00  0.00    +0.000 OA
ATOM     18  H3* UNL     1       8.569   7.495  17.703  0.00  0.00    +0.000 HD
ENDBRANCH   4  17
BRANCH   5  19
ATOM     19  O2* UNL     1       6.840   5.412  20.031  0.00  0.00    +0.000 OA
ATOM     20  H2* UNL     1       6.217   6.054  20.443  0.00  0.00    +0.000 HD
ENDBRANCH   5  19
BRANCH   3  21
ATOM     21  C5* UNL     1       6.672   5.049  15.432  0.00  0.00    +0.000 C 
BRANCH  21  22
ATOM     22  O5* UNL     1       7.621   5.372  14.420  0.00  0.00    +0.000 OA
ATOM     23  H5* UNL     1       8.453   4.918  14.653  0.00  0.00    +0.000 HD
ENDBRANCH  21  22
ENDBRANCH   3  21
TORSDOF 6
ENDMDL
MODEL 8
REMARK VINA RESULT:      -6.2      1.900      4.239
REMARK  Name = 
REMARK  8 active torsions:
REMARK  status: ('A' for Active; 'I' for Inactive)
REMARK    1  A    between atoms: C_1  and  S_2
REMARK    2  A    between atoms: S_2  and  C_3
REMARK    3  A    between atoms: C_6  and  C_7
REMARK    4  A    between atoms: N_11  and  C1*_12
REMARK    5  A    between atoms: C4*_14  and  C5*_15
REMARK    6  A    between atoms: C5*_15  and  O5*_16
REMARK    7  A    between atoms: C3*_17  and  O3*_18
REMARK    8  A    between atoms: C2*_19  and  O2*_20
REMARK                            x       y       z     vdW  Elec       q    Type
REMARK                         _______ _______ _______ _____ _____    ______ ____
ROOT
ATOM      1  C1* UNL     1       3.733   4.717  18.662  0.00  0.00    +0.000 C 
ATOM      2  O4* UNL     1       5.074   5.271  18.663  0.00  0.00    +0.000 OA
ATOM      3  C4* UNL     1       5.700   4.986  17.385  0.00  0.00    +0.000 C 
ATOM      4  C3* UNL     1       4.725   4.117  16.599  0.00  0.00    +0.000 C 
ATOM      5  C2* UNL     1       3.371   4.474  17.198  0.00  0.00    +0.000 C 
ENDROOT
BRANCH   1  14
ATOM      6  C   UNL     1       2.159   5.380  20.552  0.00  0.00    +0.000 A 
ATOM      7  N   UNL     1       1.478   6.435  20.968  0.00  0.00    +0.000 NA
ATOM      8  C   UNL     1       1.722   7.359  20.016  0.00  0.00    +0.000 A 
ATOM      9  C   UNL     1       1.355   8.705  19.824  0.00  0.00    +0.000 A 
ATOM     10  C   UNL     1       0.522   9.530  20.729  0.00  0.00    +0.000 C 
ATOM     11  N   UNL     1       1.855   9.243  18.695  0.00  0.00    +0.000 NA
ATOM     12  S   UNL     1       2.787   8.080  17.912  0.00  0.00    +0.000 S 
ATOM     13  C   UNL     1       2.520   6.896  19.040  0.00  0.00    +0.000 A 
ATOM     14  N   UNL     1       2.837   5.618  19.362  0.00  0.00    +0.000 N 
BRANCH   6  16
ATOM     15  C   UNL     1       1.088   2.889  20.414  0.00  0.00    +0.000 C 
ATOM     16  S   UNL     1       2.225   3.880  21.419  0.00  0.00    +0.000 S 
ENDBRANCH   6  16
ENDBRANCH   1  14
BRANCH   4  17
ATOM     17  O3* UNL     1       4.953   2.714  16.824  0.00  0.00    +0.000 OA
ATOM     18  H3* UNL     1       4.903   2.524  17.779  0.00  0.00    +0.000 HD
ENDBRANCH   4  17
BRANCH   5  19
ATOM     19  O2* UNL     1       2.435   3.413  17.007  0.00  0.00    +0.000 OA
ATOM     20  H2* UNL     1       2.903   2.582  17.251  0.00  0.00    +0.000 HD
ENDBRANCH   5  19
BRANCH   3  21
ATOM     21  C5* UNL     1       6.018   6.304  16.675  0.00  0.00    +0.000 C 
BRANCH  21  22
ATOM     22  O5* UNL     1       7.400   6.354  16.331  0.00  0.00    +0.000 OA
ATOM     23  H5* UNL     1       7.467   6.121  15.385  0.00  0.00    +0.000 HD
ENDBRANCH  21  22
ENDBRANCH   3  21
TORSDOF 6
ENDMDL
MODEL 9
REMARK VINA RESULT:      -6.1      1.472      3.884
REMARK  Name = 
REMARK  8 active torsions:
REMARK  status: ('A' for Active; 'I' for Inactive)
REMARK    1  A    between atoms: C_1  and  S_2
REMARK    2  A    between atoms: S_2  and  C_3
REMARK    3  A    between atoms: C_6  and  C_7
REMARK    4  A    between atoms: N_11  and  C1*_12
REMARK    5  A    between atoms: C4*_14  and  C5*_15
REMARK    6  A    between atoms: C5*_15  and  O5*_16
REMARK    7  A    between atoms: C3*_17  and  O3*_18
REMARK    8  A    between atoms: C2*_19  and  O2*_20
REMARK                            x       y       z     vdW  Elec       q    Type
REMARK                         _______ _______ _______ _____ _____    ______ ____
ROOT
ATOM      1  C1* UNL     1       4.574   4.213  18.231  0.00  0.00    +0.000 C 
ATOM      2  O4* UNL     1       5.900   4.454  18.770  0.00  0.00    +0.000 OA
ATOM      3  C4* UNL     1       6.828   4.633  17.669  0.00  0.00    +0.000 C 
ATOM      4  C3* UNL     1       6.046   4.381  16.385  0.00  0.00    +0.000 C 
ATOM      5  C2* UNL     1       4.608   4.690  16.780  0.00  0.00    +0.000 C 
ENDROOT
BRANCH   1  14
ATOM      6  C   UNL     1       2.945   4.366  20.184  0.00  0.00    +0.000 A 
ATOM      7  N   UNL     1       2.151   5.253  20.761  0.00  0.00    +0.000 NA
ATOM      8  C   UNL     1       2.284   6.346  19.982  0.00  0.00    +0.000 A 
ATOM      9  C   UNL     1       1.766   7.655  20.014  0.00  0.00    +0.000 A 
ATOM     10  C   UNL     1       0.851   8.217  21.032  0.00  0.00    +0.000 C 
ATOM     11  N   UNL     1       2.196   8.429  18.999  0.00  0.00    +0.000 NA
ATOM     12  S   UNL     1       3.250   7.526  18.044  0.00  0.00    +0.000 S 
ATOM     13  C   UNL     1       3.124   6.146  18.953  0.00  0.00    +0.000 A 
ATOM     14  N   UNL     1       3.586   4.876  19.060  0.00  0.00    +0.000 N 
BRANCH   6  16
ATOM     15  C   UNL     1       1.626   2.525  21.680  0.00  0.00    +0.000 C 
ATOM     16  S   UNL     1       3.185   2.759  20.787  0.00  0.00    +0.000 S 
ENDBRANCH   6  16
ENDBRANCH   1  14
BRANCH   4  17
ATOM     17  O3* UNL     1       6.107   3.000  15.981  0.00  0.00    +0.000 OA
ATOM     18  H3* UNL     1       6.068   2.943  15.009  0.00  0.00    +0.000 HD
ENDBRANCH   4  17
BRANCH   5  19
ATOM     19  O2* UNL     1       3.688   4.006  15.929  0.00  0.00    +0.000 OA
ATOM     20  H2* UNL     1       3.422   3.188  16.409  0.00  0.00    +0.000 HD
ENDBRANCH   5  19
BRANCH   3  21
ATOM     21  C5* UNL     1       7.417   6.044  17.732  0.00  0.00    +0.000 C 
BRANCH  21  22
ATOM     22  O5* UNL     1       7.567   6.573  16.418  0.00  0.00    +0.000 OA
ATOM     23  H5* UNL     1       6.803   7.158  16.257  0.00  0.00    +0.000 HD
ENDBRANCH  21  22
ENDBRANCH   3  21
TORSDOF 6
ENDMDL
