MODEL 1
REMARK VINA RESULT:      -8.1      0.000      0.000
REMARK  Name = 
REMARK  11 active torsions:
REMARK  status: ('A' for Active; 'I' for Inactive)
REMARK    1  A    between atoms: C_1  and  C_2
REMARK    2  A    between atoms: C_2  and  C_3
REMARK    3  A    between atoms: C_2  and  C_4
REMARK    4  A    between atoms: C_2  and  O_5
REMARK    5  A    between atoms: O_5  and  C_6
REMARK    6  A    between atoms: N_8  and  C_9
REMARK    7  A    between atoms: C_12  and  N_13
REMARK    8  A    between atoms: N_13  and  S_14
REMARK    9  A    between atoms: S_14  and  C_17
REMARK   10  A    between atoms: C_18  and  C_19
REMARK   11  A    between atoms: C_23  and  C_24
REMARK                            x       y       z     vdW  Elec       q    Type
REMARK                         _______ _______ _______ _____ _____    ______ ____
ROOT
ATOM      1  N   UNL     1       3.079   4.275  19.490  0.00  0.00    +0.000 N 
ATOM      2  H   UNL     1       3.018   3.813  20.400  0.00  0.00    +0.000 HD
ENDROOT
BRANCH   1   6
ATOM      3  C   UNL     1       1.637   8.261  19.645  0.00  0.00    +0.000 A 
ATOM      4  C   UNL     1       1.396   7.348  20.680  0.00  0.00    +0.000 A 
ATOM      5  C   UNL     1       1.868   6.039  20.623  0.00  0.00    +0.000 A 
ATOM      6  C   UNL     1       2.584   5.613  19.512  0.00  0.00    +0.000 A 
ATOM      7  C   UNL     1       2.784   6.481  18.439  0.00  0.00    +0.000 A 
ATOM      8  C   UNL     1       2.312   7.805  18.505  0.00  0.00    +0.000 A 
BRANCH   3  11
ATOM      9  C   UNL     1       0.128  10.046  20.434  0.00  0.00    +0.000 C 
ATOM     10  O   UNL     1      -0.588   9.328  21.121  0.00  0.00    +0.000 OA
ATOM     11  N   UNL     1       1.228   9.616  19.728  0.00  0.00    +0.000 N 
ATOM     12  H   UNL     1       1.828  10.341  19.360  0.00  0.00    +0.000 HD
BRANCH   9  13
ATOM     13  O   UNL     1      -0.055  11.396  20.330  0.00  0.00    +0.000 OA
BRANCH  13  15
ATOM     14  C   UNL     1      -1.471  10.664  18.450  0.00  0.00    +0.000 C 
ATOM     15  C   UNL     1      -0.980  11.853  19.294  0.00  0.00    +0.000 C 
ATOM     16  C   UNL     1      -0.365  12.971  18.429  0.00  0.00    +0.000 C 
ATOM     17  C   UNL     1      -2.210  12.449  20.000  0.00  0.00    +0.000 C 
ENDBRANCH  13  15
ENDBRANCH   9  13
ENDBRANCH   3  11
ENDBRANCH   1   6
BRANCH   1  18
ATOM     18  S   UNL     1       2.373   3.208  18.361  0.00  0.00    +0.000 S 
ATOM     19  O   UNL     1       2.561   1.895  18.946  0.00  0.00    +0.000 OA
ATOM     20  O   UNL     1       1.044   3.673  18.031  0.00  0.00    +0.000 OA
BRANCH  18  21
ATOM     21  C   UNL     1       3.374   3.337  16.955  0.00  0.00    +0.000 C 
ATOM     22  C   UNL     1       4.611   3.842  17.085  0.00  0.00    +0.000 C 
BRANCH  22  23
ATOM     23  C   UNL     1       5.528   4.075  15.965  0.00  0.00    +0.000 A 
ATOM     24  C   UNL     1       6.681   4.842  16.172  0.00  0.00    +0.000 A 
ATOM     25  C   UNL     1       7.538   5.140  15.110  0.00  0.00    +0.000 A 
ATOM     26  C   UNL     1       7.242   4.686  13.825  0.00  0.00    +0.000 A 
ATOM     27  C   UNL     1       6.088   3.928  13.590  0.00  0.00    +0.000 A 
ATOM     28  C   UNL     1       5.237   3.630  14.668  0.00  0.00    +0.000 A 
BRANCH  27  29
ATOM     29  C   UNL     1       5.731   3.438  12.210  0.00  0.00    +0.000 C 
ATOM     30  F   UNL     1       4.445   3.706  11.849  0.00  0.00    +0.000 F 
ATOM     31  F   UNL     1       6.516   3.990  11.245  0.00  0.00    +0.000 F 
ATOM     32  F   UNL     1       5.880   2.090  12.086  0.00  0.00    +0.000 F 
ENDBRANCH  27  29
ENDBRANCH  22  23
ENDBRANCH  18  21
ENDBRANCH   1  18
TORSDOF 8
ENDMDL
MODEL 2
REMARK VINA RESULT:      -7.9      1.336      1.768
REMARK  Name = 
REMARK  11 active torsions:
REMARK  status: ('A' for Active; 'I' for Inactive)
REMARK    1  A    between atoms: C_1  and  C_2
REMARK    2  A    between atoms: C_2  and  C_3
REMARK    3  A    between atoms: C_2  and  C_4
REMARK    4  A    between atoms: C_2  and  O_5
REMARK    5  A    between atoms: O_5  and  C_6
REMARK    6  A    between atoms: N_8  and  C_9
REMARK    7  A    between atoms: C_12  and  N_13
REMARK    8  A    between atoms: N_13  and  S_14
REMARK    9  A    between atoms: S_14  and  C_17
REMARK   10  A    between atoms: C_18  and  C_19
REMARK   11  A    between atoms: C_23  and  C_24
REMARK                            x       y       z     vdW  Elec       q    Type
REMARK                         _______ _______ _______ _____ _____    ______ ____
ROOT
ATOM      1  N   UNL     1       3.162   5.543  19.982  0.00  0.00    +0.000 N 
ATOM      2  H   UNL     1       3.200   5.131  20.917  0.00  0.00    +0.000 HD
ENDROOT
BRANCH   1   6
ATOM      3  C   UNL     1       0.900   9.131  19.934  0.00  0.00    +0.000 A 
ATOM      4  C   UNL     1       0.835   8.232  21.006  0.00  0.00    +0.000 A 
ATOM      5  C   UNL     1       1.576   7.053  21.016  0.00  0.00    +0.000 A 
ATOM      6  C   UNL     1       2.392   6.744  19.936  0.00  0.00    +0.000 A 
ATOM      7  C   UNL     1       2.428   7.588  18.827  0.00  0.00    +0.000 A 
ATOM      8  C   UNL     1       1.683   8.783  18.826  0.00  0.00    +0.000 A 
BRANCH   3  11
ATOM      9  C   UNL     1       0.583  11.449  20.715  0.00  0.00    +0.000 C 
ATOM     10  O   UNL     1       1.581  11.493  21.424  0.00  0.00    +0.000 OA
ATOM     11  N   UNL     1       0.210  10.370  19.949  0.00  0.00    +0.000 N 
ATOM     12  H   UNL     1      -0.527  10.537  19.277  0.00  0.00    +0.000 HD
BRANCH   9  13
ATOM     13  O   UNL     1      -0.265  12.508  20.560  0.00  0.00    +0.000 OA
BRANCH  13  15
ATOM     14  C   UNL     1      -1.244  11.569  22.617  0.00  0.00    +0.000 C 
ATOM     15  C   UNL     1      -1.194  12.771  21.658  0.00  0.00    +0.000 C 
ATOM     16  C   UNL     1      -2.591  13.170  21.146  0.00  0.00    +0.000 C 
ATOM     17  C   UNL     1      -0.643  13.966  22.456  0.00  0.00    +0.000 C 
ENDBRANCH  13  15
ENDBRANCH   9  13
ENDBRANCH   3  11
ENDBRANCH   1   6
BRANCH   1  18
ATOM     18  S   UNL     1       2.700   4.287  18.923  0.00  0.00    +0.000 S 
ATOM     19  O   UNL     1       3.232   3.088  19.538  0.00  0.00    +0.000 OA
ATOM     20  O   UNL     1       1.285   4.394  18.644  0.00  0.00    +0.000 OA
BRANCH  18  21
ATOM     21  C   UNL     1       3.581   4.601  17.466  0.00  0.00    +0.000 C 
ATOM     22  C   UNL     1       4.728   3.939  17.247  0.00  0.00    +0.000 C 
BRANCH  22  23
ATOM     23  C   UNL     1       5.604   4.167  16.095  0.00  0.00    +0.000 A 
ATOM     24  C   UNL     1       6.749   4.959  16.251  0.00  0.00    +0.000 A 
ATOM     25  C   UNL     1       7.566   5.253  15.156  0.00  0.00    +0.000 A 
ATOM     26  C   UNL     1       7.237   4.770  13.890  0.00  0.00    +0.000 A 
ATOM     27  C   UNL     1       6.090   3.987  13.706  0.00  0.00    +0.000 A 
ATOM     28  C   UNL     1       5.280   3.694  14.816  0.00  0.00    +0.000 A 
BRANCH  27  29
ATOM     29  C   UNL     1       5.699   3.466  12.347  0.00  0.00    +0.000 C 
ATOM     30  F   UNL     1       6.427   3.997  11.326  0.00  0.00    +0.000 F 
ATOM     31  F   UNL     1       5.840   2.116  12.248  0.00  0.00    +0.000 F 
ATOM     32  F   UNL     1       4.395   3.726  12.050  0.00  0.00    +0.000 F 
ENDBRANCH  27  29
ENDBRANCH  22  23
ENDBRANCH  18  21
ENDBRANCH   1  18
TORSDOF 8
ENDMDL
MODEL 3
REMARK VINA RESULT:      -7.9      1.824      2.305
REMARK  Name = 
REMARK  11 active torsions:
REMARK  status: ('A' for Active; 'I' for Inactive)
REMARK    1  A    between atoms: C_1  and  C_2
REMARK    2  A    between atoms: C_2  and  C_3
REMARK    3  A    between atoms: C_2  and  C_4
REMARK    4  A    between atoms: C_2  and  O_5
REMARK    5  A    between atoms: O_5  and  C_6
REMARK    6  A    between atoms: N_8  and  C_9
REMARK    7  A    between atoms: C_12  and  N_13
REMARK    8  A    between atoms: N_13  and  S_14
REMARK    9  A    between atoms: S_14  and  C_17
REMARK   10  A    between atoms: C_18  and  C_19
REMARK   11  A    between atoms: C_23  and  C_24
REMARK                            x       y       z     vdW  Elec       q    Type
REMARK                         _______ _______ _______ _____ _____    ______ ____
ROOT
ATOM      1  N   UNL     1       3.136   4.928  18.535  0.00  0.00    +0.000 N 
ATOM      2  H   UNL     1       2.839   4.637  17.601  0.00  0.00    +0.000 HD
ENDROOT
BRANCH   1   6
ATOM      3  C   UNL     1       1.577   8.677  19.761  0.00  0.00    +0.000 A 
ATOM      4  C   UNL     1       1.583   7.565  20.614  0.00  0.00    +0.000 A 
ATOM      5  C   UNL     1       2.092   6.335  20.206  0.00  0.00    +0.000 A 
ATOM      6  C   UNL     1       2.596   6.191  18.921  0.00  0.00    +0.000 A 
ATOM      7  C   UNL     1       2.544   7.262  18.028  0.00  0.00    +0.000 A 
ATOM      8  C   UNL     1       2.036   8.505  18.449  0.00  0.00    +0.000 A 
BRANCH   3  11
ATOM      9  C   UNL     1       1.121  10.360  21.506  0.00  0.00    +0.000 C 
ATOM     10  O   UNL     1       1.546   9.701  22.447  0.00  0.00    +0.000 OA
ATOM     11  N   UNL     1       1.132   9.953  20.192  0.00  0.00    +0.000 N 
ATOM     12  H   UNL     1       0.923  10.665  19.506  0.00  0.00    +0.000 HD
BRANCH   9  13
ATOM     13  O   UNL     1       0.623  11.624  21.648  0.00  0.00    +0.000 OA
BRANCH  13  15
ATOM     14  C   UNL     1      -1.131  10.613  23.053  0.00  0.00    +0.000 C 
ATOM     15  C   UNL     1      -0.775  11.735  22.063  0.00  0.00    +0.000 C 
ATOM     16  C   UNL     1      -1.730  11.777  20.855  0.00  0.00    +0.000 C 
ATOM     17  C   UNL     1      -0.931  13.070  22.813  0.00  0.00    +0.000 C 
ENDBRANCH  13  15
ENDBRANCH   9  13
ENDBRANCH   3  11
ENDBRANCH   1   6
BRANCH   1  18
ATOM     18  S   UNL     1       4.836   4.771  18.567  0.00  0.00    +0.000 S 
ATOM     19  O   UNL     1       5.316   6.130  18.716  0.00  0.00    +0.000 OA
ATOM     20  O   UNL     1       5.203   3.760  19.534  0.00  0.00    +0.000 OA
BRANCH  18  21
ATOM     21  C   UNL     1       5.250   4.206  16.984  0.00  0.00    +0.000 C 
ATOM     22  C   UNL     1       5.872   5.044  16.140  0.00  0.00    +0.000 C 
BRANCH  22  23
ATOM     23  C   UNL     1       6.209   4.716  14.752  0.00  0.00    +0.000 A 
ATOM     24  C   UNL     1       7.442   5.126  14.231  0.00  0.00    +0.000 A 
ATOM     25  C   UNL     1       7.764   4.890  12.892  0.00  0.00    +0.000 A 
ATOM     26  C   UNL     1       6.846   4.254  12.055  0.00  0.00    +0.000 A 
ATOM     27  C   UNL     1       5.601   3.846  12.550  0.00  0.00    +0.000 A 
ATOM     28  C   UNL     1       5.293   4.085  13.900  0.00  0.00    +0.000 A 
BRANCH  27  29
ATOM     29  C   UNL     1       4.582   3.174  11.666  0.00  0.00    +0.000 C 
ATOM     30  F   UNL     1       4.254   3.896  10.559  0.00  0.00    +0.000 F 
ATOM     31  F   UNL     1       5.006   1.963  11.213  0.00  0.00    +0.000 F 
ATOM     32  F   UNL     1       3.409   2.937  12.318  0.00  0.00    +0.000 F 
ENDBRANCH  27  29
ENDBRANCH  22  23
ENDBRANCH  18  21
ENDBRANCH   1  18
TORSDOF 8
ENDMDL
MODEL 4
REMARK VINA RESULT:      -7.9      0.917      1.573
REMARK  Name = 
REMARK  11 active torsions:
REMARK  status: ('A' for Active; 'I' for Inactive)
REMARK    1  A    between atoms: C_1  and  C_2
REMARK    2  A    between atoms: C_2  and  C_3
REMARK    3  A    between atoms: C_2  and  C_4
REMARK    4  A    between atoms: C_2  and  O_5
REMARK    5  A    between atoms: O_5  and  C_6
REMARK    6  A    between atoms: N_8  and  C_9
REMARK    7  A    between atoms: C_12  and  N_13
REMARK    8  A    between atoms: N_13  and  S_14
REMARK    9  A    between atoms: S_14  and  C_17
REMARK   10  A    between atoms: C_18  and  C_19
REMARK   11  A    between atoms: C_23  and  C_24
REMARK                            x       y       z     vdW  Elec       q    Type
REMARK                         _______ _______ _______ _____ _____    ______ ____
ROOT
ATOM      1  N   UNL     1       2.586   4.053  19.774  0.00  0.00    +0.000 N 
ATOM      2  H   UNL     1       2.176   3.538  20.557  0.00  0.00    +0.000 HD
ENDROOT
BRANCH   1   6
ATOM      3  C   UNL     1       1.691   8.199  19.799  0.00  0.00    +0.000 A 
ATOM      4  C   UNL     1       2.543   7.634  18.842  0.00  0.00    +0.000 A 
ATOM      5  C   UNL     1       2.837   6.273  18.840  0.00  0.00    +0.000 A 
ATOM      6  C   UNL     1       2.290   5.449  19.813  0.00  0.00    +0.000 A 
ATOM      7  C   UNL     1       1.490   5.994  20.817  0.00  0.00    +0.000 A 
ATOM      8  C   UNL     1       1.190   7.369  20.810  0.00  0.00    +0.000 A 
BRANCH   3  11
ATOM      9  C   UNL     1       0.596  10.144  18.750  0.00  0.00    +0.000 C 
ATOM     10  O   UNL     1       0.129   9.539  17.792  0.00  0.00    +0.000 OA
ATOM     11  N   UNL     1       1.324   9.569  19.765  0.00  0.00    +0.000 N 
ATOM     12  H   UNL     1       1.487  10.148  20.576  0.00  0.00    +0.000 HD
BRANCH   9  13
ATOM     13  O   UNL     1       0.401  11.481  18.950  0.00  0.00    +0.000 OA
BRANCH  13  15
ATOM     14  C   UNL     1      -0.944  11.512  21.015  0.00  0.00    +0.000 C 
ATOM     15  C   UNL     1      -0.886  11.877  19.522  0.00  0.00    +0.000 C 
ATOM     16  C   UNL     1      -2.071  11.291  18.729  0.00  0.00    +0.000 C 
ATOM     17  C   UNL     1      -0.986  13.409  19.423  0.00  0.00    +0.000 C 
ENDBRANCH  13  15
ENDBRANCH   9  13
ENDBRANCH   3  11
ENDBRANCH   1   6
BRANCH   1  18
ATOM     18  S   UNL     1       2.141   3.208  18.359  0.00  0.00    +0.000 S 
ATOM     19  O   UNL     1       1.830   1.872  18.825  0.00  0.00    +0.000 OA
ATOM     20  O   UNL     1       1.150   3.974  17.636  0.00  0.00    +0.000 OA
BRANCH  18  21
ATOM     21  C   UNL     1       3.592   3.144  17.418  0.00  0.00    +0.000 C 
ATOM     22  C   UNL     1       3.993   4.249  16.769  0.00  0.00    +0.000 C 
BRANCH  22  23
ATOM     23  C   UNL     1       5.158   4.306  15.881  0.00  0.00    +0.000 A 
ATOM     24  C   UNL     1       6.343   4.893  16.343  0.00  0.00    +0.000 A 
ATOM     25  C   UNL     1       7.448   5.026  15.498  0.00  0.00    +0.000 A 
ATOM     26  C   UNL     1       7.374   4.586  14.177  0.00  0.00    +0.000 A 
ATOM     27  C   UNL     1       6.195   4.008  13.688  0.00  0.00    +0.000 A 
ATOM     28  C   UNL     1       5.093   3.875  14.549  0.00  0.00    +0.000 A 
BRANCH  27  29
ATOM     29  C   UNL     1       6.078   3.540  12.260  0.00  0.00    +0.000 C 
ATOM     30  F   UNL     1       6.932   4.169  11.405  0.00  0.00    +0.000 F 
ATOM     31  F   UNL     1       6.325   2.209  12.128  0.00  0.00    +0.000 F 
ATOM     32  F   UNL     1       4.829   3.739  11.753  0.00  0.00    +0.000 F 
ENDBRANCH  27  29
ENDBRANCH  22  23
ENDBRANCH  18  21
ENDBRANCH   1  18
TORSDOF 8
ENDMDL
MODEL 5
REMARK VINA RESULT:      -7.8      3.941      6.353
REMARK  Name = 
REMARK  11 active torsions:
REMARK  status: ('A' for Active; 'I' for Inactive)
REMARK    1  A    between atoms: C_1  and  C_2
REMARK    2  A    between atoms: C_2  and  C_3
REMARK    3  A    between atoms: C_2  and  C_4
REMARK    4  A    between atoms: C_2  and  O_5
REMARK    5  A    between atoms: O_5  and  C_6
REMARK    6  A    between atoms: N_8  and  C_9
REMARK    7  A    between atoms: C_12  and  N_13
REMARK    8  A    between atoms: N_13  and  S_14
REMARK    9  A    between atoms: S_14  and  C_17
REMARK   10  A    between atoms: C_18  and  C_19
REMARK   11  A    between atoms: C_23  and  C_24
REMARK                            x       y       z     vdW  Elec       q    Type
REMARK                         _______ _______ _______ _____ _____    ______ ____
ROOT
ATOM      1  N   UNL     1       0.851  10.029  20.309  0.00  0.00    +0.000 N 
ATOM      2  H   UNL     1       1.747  10.514  20.392  0.00  0.00    +0.000 HD
ENDROOT
BRANCH   1   6
ATOM      3  C   UNL     1      -2.503  12.616  20.082  0.00  0.00    +0.000 A 
ATOM      4  C   UNL     1      -2.277  11.616  19.128  0.00  0.00    +0.000 A 
ATOM      5  C   UNL     1      -1.172  10.771  19.205  0.00  0.00    +0.000 A 
ATOM      6  C   UNL     1      -0.259  10.924  20.238  0.00  0.00    +0.000 A 
ATOM      7  C   UNL     1      -0.423  11.952  21.166  0.00  0.00    +0.000 A 
ATOM      8  C   UNL     1      -1.546  12.798  21.089  0.00  0.00    +0.000 A 
BRANCH   3  11
ATOM      9  C   UNL     1      -4.808  13.161  20.772  0.00  0.00    +0.000 C 
ATOM     10  O   UNL     1      -4.941  12.228  21.556  0.00  0.00    +0.000 OA
ATOM     11  N   UNL     1      -3.664  13.430  20.058  0.00  0.00    +0.000 N 
ATOM     12  H   UNL     1      -3.633  14.328  19.596  0.00  0.00    +0.000 HD
BRANCH   9  13
ATOM     13  O   UNL     1      -5.784  14.090  20.552  0.00  0.00    +0.000 OA
BRANCH  13  15
ATOM     14  C   UNL     1      -4.790  15.371  22.407  0.00  0.00    +0.000 C 
ATOM     15  C   UNL     1      -6.080  15.004  21.654  0.00  0.00    +0.000 C 
ATOM     16  C   UNL     1      -7.166  14.441  22.591  0.00  0.00    +0.000 C 
ATOM     17  C   UNL     1      -6.635  16.303  21.044  0.00  0.00    +0.000 C 
ENDBRANCH  13  15
ENDBRANCH   9  13
ENDBRANCH   3  11
ENDBRANCH   1   6
BRANCH   1  18
ATOM     18  S   UNL     1       0.822   8.859  21.551  0.00  0.00    +0.000 S 
ATOM     19  O   UNL     1       1.725   9.383  22.556  0.00  0.00    +0.000 OA
ATOM     20  O   UNL     1      -0.551   8.559  21.893  0.00  0.00    +0.000 OA
BRANCH  18  21
ATOM     21  C   UNL     1       1.540   7.454  20.840  0.00  0.00    +0.000 C 
ATOM     22  C   UNL     1       2.080   7.552  19.615  0.00  0.00    +0.000 C 
BRANCH  22  23
ATOM     23  C   UNL     1       2.650   6.424  18.873  0.00  0.00    +0.000 A 
ATOM     24  C   UNL     1       3.688   6.657  17.962  0.00  0.00    +0.000 A 
ATOM     25  C   UNL     1       4.205   5.615  17.188  0.00  0.00    +0.000 A 
ATOM     26  C   UNL     1       3.677   4.329  17.306  0.00  0.00    +0.000 A 
ATOM     27  C   UNL     1       2.629   4.073  18.200  0.00  0.00    +0.000 A 
ATOM     28  C   UNL     1       2.122   5.130  18.976  0.00  0.00    +0.000 A 
BRANCH  27  29
ATOM     29  C   UNL     1       2.025   2.700  18.337  0.00  0.00    +0.000 C 
ATOM     30  F   UNL     1       2.376   1.844  17.338  0.00  0.00    +0.000 F 
ATOM     31  F   UNL     1       2.384   2.088  19.499  0.00  0.00    +0.000 F 
ATOM     32  F   UNL     1       0.663   2.732  18.340  0.00  0.00    +0.000 F 
ENDBRANCH  27  29
ENDBRANCH  22  23
ENDBRANCH  18  21
ENDBRANCH   1  18
TORSDOF 8
ENDMDL
MODEL 6
REMARK VINA RESULT:      -7.8      3.673      5.519
REMARK  Name = 
REMARK  11 active torsions:
REMARK  status: ('A' for Active; 'I' for Inactive)
REMARK    1  A    between atoms: C_1  and  C_2
REMARK    2  A    between atoms: C_2  and  C_3
REMARK    3  A    between atoms: C_2  and  C_4
REMARK    4  A    between atoms: C_2  and  O_5
REMARK    5  A    between atoms: O_5  and  C_6
REMARK    6  A    between atoms: N_8  and  C_9
REMARK    7  A    between atoms: C_12  and  N_13
REMARK    8  A    between atoms: N_13  and  S_14
REMARK    9  A    between atoms: S_14  and  C_17
REMARK   10  A    between atoms: C_18  and  C_19
REMARK   11  A    between atoms: C_23  and  C_24
REMARK                            x       y       z     vdW  Elec       q    Type
REMARK                         _______ _______ _______ _____ _____    ______ ____
ROOT
ATOM      1  N   UNL     1       1.297   9.300  20.019  0.00  0.00    +0.000 N 
ATOM      2  H   UNL     1       1.018   8.316  20.045  0.00  0.00    +0.000 HD
ENDROOT
BRANCH   1   6
ATOM      3  C   UNL     1      -1.037  11.712  22.612  0.00  0.00    +0.000 A 
ATOM      4  C   UNL     1      -0.893  10.334  22.817  0.00  0.00    +0.000 A 
ATOM      5  C   UNL     1      -0.129   9.545  21.961  0.00  0.00    +0.000 A 
ATOM      6  C   UNL     1       0.498  10.125  20.867  0.00  0.00    +0.000 A 
ATOM      7  C   UNL     1       0.321  11.483  20.601  0.00  0.00    +0.000 A 
ATOM      8  C   UNL     1      -0.446  12.277  21.474  0.00  0.00    +0.000 A 
BRANCH   3  11
ATOM      9  C   UNL     1      -3.102  12.768  23.451  0.00  0.00    +0.000 C 
ATOM     10  O   UNL     1      -3.861  12.247  22.643  0.00  0.00    +0.000 OA
ATOM     11  N   UNL     1      -1.748  12.538  23.520  0.00  0.00    +0.000 N 
ATOM     12  H   UNL     1      -1.281  12.888  24.345  0.00  0.00    +0.000 HD
BRANCH   9  13
ATOM     13  O   UNL     1      -3.531  13.618  24.431  0.00  0.00    +0.000 OA
BRANCH  13  15
ATOM     14  C   UNL     1      -2.940  15.277  22.707  0.00  0.00    +0.000 C 
ATOM     15  C   UNL     1      -3.537  15.044  24.106  0.00  0.00    +0.000 C 
ATOM     16  C   UNL     1      -2.835  15.883  25.191  0.00  0.00    +0.000 C 
ATOM     17  C   UNL     1      -5.005  15.501  24.055  0.00  0.00    +0.000 C 
ENDBRANCH  13  15
ENDBRANCH   9  13
ENDBRANCH   3  11
ENDBRANCH   1   6
BRANCH   1  18
ATOM     18  S   UNL     1       1.377   9.733  18.371  0.00  0.00    +0.000 S 
ATOM     19  O   UNL     1       0.002   9.666  17.918  0.00  0.00    +0.000 OA
ATOM     20  O   UNL     1       2.129  10.961  18.235  0.00  0.00    +0.000 OA
BRANCH  18  21
ATOM     21  C   UNL     1       2.269   8.449  17.627  0.00  0.00    +0.000 C 
ATOM     22  C   UNL     1       2.414   7.291  18.293  0.00  0.00    +0.000 C 
BRANCH  22  23
ATOM     23  C   UNL     1       3.206   6.157  17.809  0.00  0.00    +0.000 A 
ATOM     24  C   UNL     1       2.658   4.869  17.855  0.00  0.00    +0.000 A 
ATOM     25  C   UNL     1       3.412   3.759  17.468  0.00  0.00    +0.000 A 
ATOM     26  C   UNL     1       4.731   3.925  17.043  0.00  0.00    +0.000 A 
ATOM     27  C   UNL     1       5.306   5.201  17.001  0.00  0.00    +0.000 A 
ATOM     28  C   UNL     1       4.534   6.310  17.388  0.00  0.00    +0.000 A 
BRANCH  27  29
ATOM     29  C   UNL     1       6.734   5.411  16.565  0.00  0.00    +0.000 C 
ATOM     30  F   UNL     1       6.898   5.422  15.213  0.00  0.00    +0.000 F 
ATOM     31  F   UNL     1       7.247   6.588  17.016  0.00  0.00    +0.000 F 
ATOM     32  F   UNL     1       7.565   4.439  17.034  0.00  0.00    +0.000 F 
ENDBRANCH  27  29
ENDBRANCH  22  23
ENDBRANCH  18  21
ENDBRANCH   1  18
TORSDOF 8
ENDMDL
MODEL 7
REMARK VINA RESULT:      -7.8      1.814      2.247
REMARK  Name = 
REMARK  11 active torsions:
REMARK  status: ('A' for Active; 'I' for Inactive)
REMARK    1  A    between atoms: C_1  and  C_2
REMARK    2  A    between atoms: C_2  and  C_3
REMARK    3  A    between atoms: C_2  and  C_4
REMARK    4  A    between atoms: C_2  and  O_5
REMARK    5  A    between atoms: O_5  and  C_6
REMARK    6  A    between atoms: N_8  and  C_9
REMARK    7  A    between atoms: C_12  and  N_13
REMARK    8  A    between atoms: N_13  and  S_14
REMARK    9  A    between atoms: S_14  and  C_17
REMARK   10  A    between atoms: C_18  and  C_19
REMARK   11  A    between atoms: C_23  and  C_24
REMARK                            x       y       z     vdW  Elec       q    Type
REMARK                         _______ _______ _______ _____ _____    ______ ____
ROOT
ATOM      1  N   UNL     1       3.333   4.779  18.634  0.00  0.00    +0.000 N 
ATOM      2  H   UNL     1       3.197   4.560  17.644  0.00  0.00    +0.000 HD
ENDROOT
BRANCH   1   6
ATOM      3  C   UNL     1       1.637   8.474  19.840  0.00  0.00    +0.000 A 
ATOM      4  C   UNL     1       1.530   7.321  20.629  0.00  0.00    +0.000 A 
ATOM      5  C   UNL     1       2.085   6.109  20.226  0.00  0.00    +0.000 A 
ATOM      6  C   UNL     1       2.750   6.026  19.011  0.00  0.00    +0.000 A 
ATOM      7  C   UNL     1       2.816   7.141  18.176  0.00  0.00    +0.000 A 
ATOM      8  C   UNL     1       2.261   8.366  18.591  0.00  0.00    +0.000 A 
BRANCH   3  11
ATOM      9  C   UNL     1       1.257  10.198  21.564  0.00  0.00    +0.000 C 
ATOM     10  O   UNL     1       1.845   9.619  22.469  0.00  0.00    +0.000 OA
ATOM     11  N   UNL     1       1.143   9.731  20.275  0.00  0.00    +0.000 N 
ATOM     12  H   UNL     1       0.794  10.392  19.595  0.00  0.00    +0.000 HD
BRANCH   9  13
ATOM     13  O   UNL     1       0.677  11.424  21.720  0.00  0.00    +0.000 OA
BRANCH  13  15
ATOM     14  C   UNL     1      -1.638  11.293  20.886  0.00  0.00    +0.000 C 
ATOM     15  C   UNL     1      -0.730  11.439  22.119  0.00  0.00    +0.000 C 
ATOM     16  C   UNL     1      -1.076  12.683  22.959  0.00  0.00    +0.000 C 
ATOM     17  C   UNL     1      -0.972  10.207  23.009  0.00  0.00    +0.000 C 
ENDBRANCH  13  15
ENDBRANCH   9  13
ENDBRANCH   3  11
ENDBRANCH   1   6
BRANCH   1  18
ATOM     18  S   UNL     1       4.998   4.578  18.945  0.00  0.00    +0.000 S 
ATOM     19  O   UNL     1       5.367   5.764  19.692  0.00  0.00    +0.000 OA
ATOM     20  O   UNL     1       5.224   3.265  19.509  0.00  0.00    +0.000 OA
BRANCH  18  21
ATOM     21  C   UNL     1       5.744   4.651  17.385  0.00  0.00    +0.000 C 
ATOM     22  C   UNL     1       5.059   4.208  16.318  0.00  0.00    +0.000 C 
BRANCH  22  23
ATOM     23  C   UNL     1       5.602   4.145  14.959  0.00  0.00    +0.000 A 
ATOM     24  C   UNL     1       6.878   4.664  14.706  0.00  0.00    +0.000 A 
ATOM     25  C   UNL     1       7.396   4.683  13.409  0.00  0.00    +0.000 A 
ATOM     26  C   UNL     1       6.635   4.195  12.346  0.00  0.00    +0.000 A 
ATOM     27  C   UNL     1       5.351   3.682  12.571  0.00  0.00    +0.000 A 
ATOM     28  C   UNL     1       4.845   3.664  13.882  0.00  0.00    +0.000 A 
BRANCH  27  29
ATOM     29  C   UNL     1       4.498   3.165  11.442  0.00  0.00    +0.000 C 
ATOM     30  F   UNL     1       3.232   2.833  11.819  0.00  0.00    +0.000 F 
ATOM     31  F   UNL     1       4.365   4.071  10.435  0.00  0.00    +0.000 F 
ATOM     32  F   UNL     1       5.022   2.046  10.869  0.00  0.00    +0.000 F 
ENDBRANCH  27  29
ENDBRANCH  22  23
ENDBRANCH  18  21
ENDBRANCH   1  18
TORSDOF 8
ENDMDL
MODEL 8
REMARK VINA RESULT:      -7.7      1.384      2.126
REMARK  Name = 
REMARK  11 active torsions:
REMARK  status: ('A' for Active; 'I' for Inactive)
REMARK    1  A    between atoms: C_1  and  C_2
REMARK    2  A    between atoms: C_2  and  C_3
REMARK    3  A    between atoms: C_2  and  C_4
REMARK    4  A    between atoms: C_2  and  O_5
REMARK    5  A    between atoms: O_5  and  C_6
REMARK    6  A    between atoms: N_8  and  C_9
REMARK    7  A    between atoms: C_12  and  N_13
REMARK    8  A    between atoms: N_13  and  S_14
REMARK    9  A    between atoms: S_14  and  C_17
REMARK   10  A    between atoms: C_18  and  C_19
REMARK   11  A    between atoms: C_23  and  C_24
REMARK                            x       y       z     vdW  Elec       q    Type
REMARK                         _______ _______ _______ _____ _____    ______ ____
ROOT
ATOM      1  N   UNL     1       3.010   5.835  20.016  0.00  0.00    +0.000 N 
ATOM      2  H   UNL     1       3.001   5.305  20.891  0.00  0.00    +0.000 HD
ENDROOT
BRANCH   1   6
ATOM      3  C   UNL     1       0.602   9.326  20.102  0.00  0.00    +0.000 A 
ATOM      4  C   UNL     1       1.474   9.057  19.039  0.00  0.00    +0.000 A 
ATOM      5  C   UNL     1       2.266   7.911  19.017  0.00  0.00    +0.000 A 
ATOM      6  C   UNL     1       2.208   7.015  20.075  0.00  0.00    +0.000 A 
ATOM      7  C   UNL     1       1.397   7.288  21.177  0.00  0.00    +0.000 A 
ATOM      8  C   UNL     1       0.593   8.443  21.190  0.00  0.00    +0.000 A 
BRANCH   3  11
ATOM      9  C   UNL     1       0.010  11.634  20.740  0.00  0.00    +0.000 C 
ATOM     10  O   UNL     1       1.051  11.884  21.336  0.00  0.00    +0.000 OA
ATOM     11  N   UNL     1      -0.264  10.449  20.098  0.00  0.00    +0.000 N 
ATOM     12  H   UNL     1      -1.077  10.449  19.497  0.00  0.00    +0.000 HD
BRANCH   9  13
ATOM     13  O   UNL     1      -1.000  12.542  20.598  0.00  0.00    +0.000 OA
BRANCH  13  15
ATOM     14  C   UNL     1      -1.608  11.664  22.819  0.00  0.00    +0.000 C 
ATOM     15  C   UNL     1      -1.864  12.749  21.759  0.00  0.00    +0.000 C 
ATOM     16  C   UNL     1      -3.350  12.840  21.361  0.00  0.00    +0.000 C 
ATOM     17  C   UNL     1      -1.479  14.099  22.389  0.00  0.00    +0.000 C 
ENDBRANCH  13  15
ENDBRANCH   9  13
ENDBRANCH   3  11
ENDBRANCH   1   6
BRANCH   1  18
ATOM     18  S   UNL     1       2.654   4.719  18.776  0.00  0.00    +0.000 S 
ATOM     19  O   UNL     1       2.979   3.430  19.352  0.00  0.00    +0.000 OA
ATOM     20  O   UNL     1       1.323   4.974  18.271  0.00  0.00    +0.000 OA
BRANCH  18  21
ATOM     21  C   UNL     1       3.801   5.075  17.529  0.00  0.00    +0.000 C 
ATOM     22  C   UNL     1       4.324   4.061  16.822  0.00  0.00    +0.000 C 
BRANCH  22  23
ATOM     23  C   UNL     1       5.358   4.220  15.795  0.00  0.00    +0.000 A 
ATOM     24  C   UNL     1       6.492   4.991  16.079  0.00  0.00    +0.000 A 
ATOM     25  C   UNL     1       7.462   5.220  15.098  0.00  0.00    +0.000 A 
ATOM     26  C   UNL     1       7.298   4.692  13.818  0.00  0.00    +0.000 A 
ATOM     27  C   UNL     1       6.165   3.929  13.506  0.00  0.00    +0.000 A 
ATOM     28  C   UNL     1       5.201   3.702  14.502  0.00  0.00    +0.000 A 
BRANCH  27  29
ATOM     29  C   UNL     1       5.950   3.361  12.126  0.00  0.00    +0.000 C 
ATOM     30  F   UNL     1       5.946   2.000  12.089  0.00  0.00    +0.000 F 
ATOM     31  F   UNL     1       4.768   3.756  11.580  0.00  0.00    +0.000 F 
ATOM     32  F   UNL     1       6.915   3.756  11.250  0.00  0.00    +0.000 F 
ENDBRANCH  27  29
ENDBRANCH  22  23
ENDBRANCH  18  21
ENDBRANCH   1  18
TORSDOF 8
ENDMDL
MODEL 9
REMARK VINA RESULT:      -7.7      1.605      2.139
REMARK  Name = 
REMARK  11 active torsions:
REMARK  status: ('A' for Active; 'I' for Inactive)
REMARK    1  A    between atoms: C_1  and  C_2
REMARK    2  A    between atoms: C_2  and  C_3
REMARK    3  A    between atoms: C_2  and  C_4
REMARK    4  A    between atoms: C_2  and  O_5
REMARK    5  A    between atoms: O_5  and  C_6
REMARK    6  A    between atoms: N_8  and  C_9
REMARK    7  A    between atoms: C_12  and  N_13
REMARK    8  A    between atoms: N_13  and  S_14
REMARK    9  A    between atoms: S_14  and  C_17
REMARK   10  A    between atoms: C_18  and  C_19
REMARK   11  A    between atoms: C_23  and  C_24
REMARK                            x       y       z     vdW  Elec       q    Type
REMARK                         _______ _______ _______ _____ _____    ______ ____
ROOT
ATOM      1  N   UNL     1       2.925   5.215  18.082  0.00  0.00    +0.000 N 
ATOM      2  H   UNL     1       3.039   5.426  17.088  0.00  0.00    +0.000 HD
ENDROOT
BRANCH   1   6
ATOM      3  C   UNL     1       1.409   8.542  20.233  0.00  0.00    +0.000 A 
ATOM      4  C   UNL     1       1.887   8.667  18.922  0.00  0.00    +0.000 A 
ATOM      5  C   UNL     1       2.388   7.572  18.221  0.00  0.00    +0.000 A 
ATOM      6  C   UNL     1       2.432   6.326  18.831  0.00  0.00    +0.000 A 
ATOM      7  C   UNL     1       2.024   6.185  20.157  0.00  0.00    +0.000 A 
ATOM      8  C   UNL     1       1.511   7.293  20.858  0.00  0.00    +0.000 A 
BRANCH   3  11
ATOM      9  C   UNL     1      -0.275  10.327  20.485  0.00  0.00    +0.000 C 
ATOM     10  O   UNL     1      -0.918  10.053  19.478  0.00  0.00    +0.000 OA
ATOM     11  N   UNL     1       0.827   9.633  20.928  0.00  0.00    +0.000 N 
ATOM     12  H   UNL     1       1.142   9.854  21.862  0.00  0.00    +0.000 HD
BRANCH   9  13
ATOM     13  O   UNL     1      -0.617  11.344  21.329  0.00  0.00    +0.000 OA
BRANCH  13  15
ATOM     14  C   UNL     1       1.104  12.678  20.176  0.00  0.00    +0.000 C 
ATOM     15  C   UNL     1      -0.247  12.696  20.911  0.00  0.00    +0.000 C 
ATOM     16  C   UNL     1      -0.259  13.686  22.092  0.00  0.00    +0.000 C 
ATOM     17  C   UNL     1      -1.306  13.176  19.904  0.00  0.00    +0.000 C 
ENDBRANCH  13  15
ENDBRANCH   9  13
ENDBRANCH   3  11
ENDBRANCH   1   6
BRANCH   1  18
ATOM     18  S   UNL     1       4.399   4.527  18.599  0.00  0.00    +0.000 S 
ATOM     19  O   UNL     1       5.130   5.640  19.171  0.00  0.00    +0.000 OA
ATOM     20  O   UNL     1       4.124   3.352  19.396  0.00  0.00    +0.000 OA
BRANCH  18  21
ATOM     21  C   UNL     1       5.186   4.039  17.137  0.00  0.00    +0.000 C 
ATOM     22  C   UNL     1       5.156   4.864  16.078  0.00  0.00    +0.000 C 
BRANCH  22  23
ATOM     23  C   UNL     1       5.716   4.538  14.764  0.00  0.00    +0.000 A 
ATOM     24  C   UNL     1       7.038   4.900  14.474  0.00  0.00    +0.000 A 
ATOM     25  C   UNL     1       7.579   4.667  13.207  0.00  0.00    +0.000 A 
ATOM     26  C   UNL     1       6.797   4.081  12.211  0.00  0.00    +0.000 A 
ATOM     27  C   UNL     1       5.469   3.722  12.473  0.00  0.00    +0.000 A 
ATOM     28  C   UNL     1       4.939   3.957  13.753  0.00  0.00    +0.000 A 
BRANCH  27  29
ATOM     29  C   UNL     1       4.594   3.105  11.412  0.00  0.00    +0.000 C 
ATOM     30  F   UNL     1       3.354   2.760  11.858  0.00  0.00    +0.000 F 
ATOM     31  F   UNL     1       4.395   3.938  10.354  0.00  0.00    +0.000 F 
ATOM     32  F   UNL     1       5.135   1.967  10.894  0.00  0.00    +0.000 F 
ENDBRANCH  27  29
ENDBRANCH  22  23
ENDBRANCH  18  21
ENDBRANCH   1  18
TORSDOF 8
ENDMDL
