MODEL 1
REMARK VINA RESULT:      -6.5      0.000      0.000
REMARK  Name = 
REMARK  8 active torsions:
REMARK  status: ('A' for Active; 'I' for Inactive)
REMARK    1  A    between atoms: C_1  and  C_2
REMARK    2  A    between atoms: C_2  and  C_3
REMARK    3  A    between atoms: C_3  and  C_4
REMARK    4  A    between atoms: C_11  and  C_13
REMARK    5  A    between atoms: N_15  and  C_16
REMARK    6  A    between atoms: C_16  and  C_17
REMARK    7  A    between atoms: C_17  and  O_18
REMARK    8  A    between atoms: O_18  and  C_19
REMARK                            x       y       z     vdW  Elec       q    Type
REMARK                         _______ _______ _______ _____ _____    ______ ____
ROOT
ATOM      1  C   UNL     1       5.513   5.073  17.441  0.00  0.00    +0.000 C 
ATOM      2  C   UNL     1       7.016   5.135  17.812  0.00  0.00    +0.000 C 
ATOM      3  O   UNL     1       7.635   4.168  18.258  0.00  0.00    +0.000 OA
ATOM      4  N   UNL     1       7.716   6.270  17.479  0.00  0.00    +0.000 N 
ATOM      5  C   UNL     1       7.057   7.555  17.410  0.00  0.00    +0.000 C 
ATOM      6  C   UNL     1       5.681   7.469  16.758  0.00  0.00    +0.000 C 
ATOM      7  N   UNL     1       4.880   6.421  17.397  0.00  0.00    +0.000 N 
ATOM      8  C   UNL     1       3.576   6.734  17.801  0.00  0.00    +0.000 C 
ATOM      9  O   UNL     1       3.139   7.880  17.670  0.00  0.00    +0.000 OA
ATOM     10  H   UNL     1       8.682   6.234  17.784  0.00  0.00    +0.000 HD
ENDROOT
BRANCH   8  11
ATOM     11  C   UNL     1       2.741   5.721  18.445  0.00  0.00    +0.000 A 
ATOM     12  C   UNL     1       2.607   5.538  19.811  0.00  0.00    +0.000 A 
ATOM     13  N   UNL     1       1.809   4.446  19.929  0.00  0.00    +0.000 N 
ATOM     14  N   UNL     1       1.401   4.007  18.728  0.00  0.00    +0.000 NA
ATOM     15  N   UNL     1       1.947   4.797  17.815  0.00  0.00    +0.000 NA
BRANCH  13  16
ATOM     16  C   UNL     1       1.451   3.731  21.131  0.00  0.00    +0.000 C 
BRANCH  16  17
ATOM     17  C   UNL     1       2.071   2.340  21.161  0.00  0.00    +0.000 C 
BRANCH  17  18
ATOM     18  O   UNL     1       3.469   2.463  21.431  0.00  0.00    +0.000 OA
ATOM     19  C   UNL     1       4.252   2.182  20.275  0.00  0.00    +0.000 C 
ENDBRANCH  17  18
ENDBRANCH  16  17
ENDBRANCH  13  16
ENDBRANCH   8  11
BRANCH   1  20
ATOM     20  C   UNL     1       5.307   4.385  16.078  0.00  0.00    +0.000 C 
BRANCH  20  22
ATOM     21  C   UNL     1       6.201   3.907  13.777  0.00  0.00    +0.000 C 
ATOM     22  C   UNL     1       6.546   4.378  15.182  0.00  0.00    +0.000 C 
ENDBRANCH  20  22
ENDBRANCH   1  20
TORSDOF 6
ENDMDL
MODEL 2
REMARK VINA RESULT:      -6.5      2.387      6.426
REMARK  Name = 
REMARK  8 active torsions:
REMARK  status: ('A' for Active; 'I' for Inactive)
REMARK    1  A    between atoms: C_1  and  C_2
REMARK    2  A    between atoms: C_2  and  C_3
REMARK    3  A    between atoms: C_3  and  C_4
REMARK    4  A    between atoms: C_11  and  C_13
REMARK    5  A    between atoms: N_15  and  C_16
REMARK    6  A    between atoms: C_16  and  C_17
REMARK    7  A    between atoms: C_17  and  O_18
REMARK    8  A    between atoms: O_18  and  C_19
REMARK                            x       y       z     vdW  Elec       q    Type
REMARK                         _______ _______ _______ _____ _____    ______ ____
ROOT
ATOM      1  C   UNL     1       3.375   5.032  18.860  0.00  0.00    +0.000 C 
ATOM      2  C   UNL     1       2.573   4.262  19.941  0.00  0.00    +0.000 C 
ATOM      3  O   UNL     1       2.338   4.728  21.056  0.00  0.00    +0.000 OA
ATOM      4  N   UNL     1       1.969   3.083  19.577  0.00  0.00    +0.000 N 
ATOM      5  C   UNL     1       2.530   2.253  18.534  0.00  0.00    +0.000 C 
ATOM      6  C   UNL     1       3.045   3.070  17.353  0.00  0.00    +0.000 C 
ATOM      7  N   UNL     1       3.942   4.129  17.820  0.00  0.00    +0.000 N 
ATOM      8  C   UNL     1       5.183   4.276  17.187  0.00  0.00    +0.000 C 
ATOM      9  O   UNL     1       5.529   3.494  16.299  0.00  0.00    +0.000 OA
ATOM     10  H   UNL     1       1.492   2.635  20.351  0.00  0.00    +0.000 HD
ENDROOT
BRANCH   8  11
ATOM     11  C   UNL     1       6.112   5.319  17.622  0.00  0.00    +0.000 A 
ATOM     12  C   UNL     1       6.154   6.613  17.133  0.00  0.00    +0.000 A 
ATOM     13  N   UNL     1       7.215   7.178  17.764  0.00  0.00    +0.000 N 
ATOM     14  N   UNL     1       7.766   6.332  18.648  0.00  0.00    +0.000 NA
ATOM     15  N   UNL     1       7.081   5.199  18.585  0.00  0.00    +0.000 NA
BRANCH  13  16
ATOM     16  C   UNL     1       7.801   8.478  17.533  0.00  0.00    +0.000 C 
BRANCH  16  17
ATOM     17  C   UNL     1       8.718   8.891  18.677  0.00  0.00    +0.000 C 
BRANCH  17  18
ATOM     18  O   UNL     1       8.670  10.312  18.817  0.00  0.00    +0.000 OA
ATOM     19  C   UNL     1       9.779  10.939  18.182  0.00  0.00    +0.000 C 
ENDBRANCH  17  18
ENDBRANCH  16  17
ENDBRANCH  13  16
ENDBRANCH   8  11
BRANCH   1  20
ATOM     20  C   UNL     1       2.497   6.093  18.170  0.00  0.00    +0.000 C 
BRANCH  20  22
ATOM     21  C   UNL     1       1.967   8.533  17.869  0.00  0.00    +0.000 C 
ATOM     22  C   UNL     1       2.609   7.493  18.776  0.00  0.00    +0.000 C 
ENDBRANCH  20  22
ENDBRANCH   1  20
TORSDOF 6
ENDMDL
MODEL 3
REMARK VINA RESULT:      -6.4      2.363      6.287
REMARK  Name = 
REMARK  8 active torsions:
REMARK  status: ('A' for Active; 'I' for Inactive)
REMARK    1  A    between atoms: C_1  and  C_2
REMARK    2  A    between atoms: C_2  and  C_3
REMARK    3  A    between atoms: C_3  and  C_4
REMARK    4  A    between atoms: C_11  and  C_13
REMARK    5  A    between atoms: N_15  and  C_16
REMARK    6  A    between atoms: C_16  and  C_17
REMARK    7  A    between atoms: C_17  and  O_18
REMARK    8  A    between atoms: O_18  and  C_19
REMARK                            x       y       z     vdW  Elec       q    Type
REMARK                         _______ _______ _______ _____ _____    ______ ____
ROOT
ATOM      1  C   UNL     1       2.638   5.092  19.089  0.00  0.00    +0.000 C 
ATOM      2  C   UNL     1       1.496   4.691  20.057  0.00  0.00    +0.000 C 
ATOM      3  O   UNL     1       1.175   5.373  21.031  0.00  0.00    +0.000 OA
ATOM      4  N   UNL     1       0.714   3.613  19.719  0.00  0.00    +0.000 N 
ATOM      5  C   UNL     1       1.249   2.526  18.931  0.00  0.00    +0.000 C 
ATOM      6  C   UNL     1       2.145   3.014  17.797  0.00  0.00    +0.000 C 
ATOM      7  N   UNL     1       3.162   3.933  18.314  0.00  0.00    +0.000 N 
ATOM      8  C   UNL     1       4.498   3.719  17.950  0.00  0.00    +0.000 C 
ATOM      9  O   UNL     1       4.810   2.746  17.259  0.00  0.00    +0.000 OA
ATOM     10  H   UNL     1       0.012   3.406  20.421  0.00  0.00    +0.000 HD
ENDROOT
BRANCH   8  11
ATOM     11  C   UNL     1       5.547   4.610  18.443  0.00  0.00    +0.000 A 
ATOM     12  C   UNL     1       6.096   5.672  17.745  0.00  0.00    +0.000 A 
ATOM     13  N   UNL     1       7.074   6.143  18.559  0.00  0.00    +0.000 N 
ATOM     14  N   UNL     1       7.101   5.480  19.726  0.00  0.00    +0.000 NA
ATOM     15  N   UNL     1       6.152   4.555  19.673  0.00  0.00    +0.000 NA
BRANCH  13  16
ATOM     16  C   UNL     1       8.056   7.162  18.275  0.00  0.00    +0.000 C 
BRANCH  16  17
ATOM     17  C   UNL     1       7.459   8.306  17.464  0.00  0.00    +0.000 C 
BRANCH  17  18
ATOM     18  O   UNL     1       8.225   9.489  17.701  0.00  0.00    +0.000 OA
ATOM     19  C   UNL     1       8.893   9.438  18.957  0.00  0.00    +0.000 C 
ENDBRANCH  17  18
ENDBRANCH  16  17
ENDBRANCH  13  16
ENDBRANCH   8  11
BRANCH   1  20
ATOM     20  C   UNL     1       2.172   6.179  18.103  0.00  0.00    +0.000 C 
BRANCH  20  22
ATOM     21  C   UNL     1       1.975   8.686  18.109  0.00  0.00    +0.000 C 
ATOM     22  C   UNL     1       2.927   7.503  18.222  0.00  0.00    +0.000 C 
ENDBRANCH  20  22
ENDBRANCH   1  20
TORSDOF 6
ENDMDL
MODEL 4
REMARK VINA RESULT:      -6.3      2.201      6.323
REMARK  Name = 
REMARK  8 active torsions:
REMARK  status: ('A' for Active; 'I' for Inactive)
REMARK    1  A    between atoms: C_1  and  C_2
REMARK    2  A    between atoms: C_2  and  C_3
REMARK    3  A    between atoms: C_3  and  C_4
REMARK    4  A    between atoms: C_11  and  C_13
REMARK    5  A    between atoms: N_15  and  C_16
REMARK    6  A    between atoms: C_16  and  C_17
REMARK    7  A    between atoms: C_17  and  O_18
REMARK    8  A    between atoms: O_18  and  C_19
REMARK                            x       y       z     vdW  Elec       q    Type
REMARK                         _______ _______ _______ _____ _____    ______ ____
ROOT
ATOM      1  C   UNL     1       2.671   4.407  20.223  0.00  0.00    +0.000 C 
ATOM      2  C   UNL     1       2.047   3.458  21.278  0.00  0.00    +0.000 C 
ATOM      3  O   UNL     1       2.379   3.468  22.464  0.00  0.00    +0.000 OA
ATOM      4  N   UNL     1       0.973   2.690  20.899  0.00  0.00    +0.000 N 
ATOM      5  C   UNL     1       0.817   2.256  19.529  0.00  0.00    +0.000 C 
ATOM      6  C   UNL     1       1.174   3.350  18.527  0.00  0.00    +0.000 C 
ATOM      7  N   UNL     1       2.495   3.906  18.831  0.00  0.00    +0.000 N 
ATOM      8  C   UNL     1       3.422   4.024  17.788  0.00  0.00    +0.000 C 
ATOM      9  O   UNL     1       3.147   3.616  16.657  0.00  0.00    +0.000 OA
ATOM     10  H   UNL     1       0.648   2.082  21.642  0.00  0.00    +0.000 HD
ENDROOT
BRANCH   8  11
ATOM     11  C   UNL     1       4.754   4.572  18.044  0.00  0.00    +0.000 A 
ATOM     12  C   UNL     1       5.365   5.576  17.314  0.00  0.00    +0.000 A 
ATOM     13  N   UNL     1       6.602   5.687  17.862  0.00  0.00    +0.000 N 
ATOM     14  N   UNL     1       6.746   4.866  18.914  0.00  0.00    +0.000 NA
ATOM     15  N   UNL     1       5.610   4.198  19.048  0.00  0.00    +0.000 NA
BRANCH  13  16
ATOM     16  C   UNL     1       7.711   6.490  17.404  0.00  0.00    +0.000 C 
BRANCH  16  17
ATOM     17  C   UNL     1       7.468   7.974  17.651  0.00  0.00    +0.000 C 
BRANCH  17  18
ATOM     18  O   UNL     1       8.474   8.465  18.539  0.00  0.00    +0.000 OA
ATOM     19  C   UNL     1       8.679   9.864  18.376  0.00  0.00    +0.000 C 
ENDBRANCH  17  18
ENDBRANCH  16  17
ENDBRANCH  13  16
ENDBRANCH   8  11
BRANCH   1  20
ATOM     20  C   UNL     1       2.065   5.819  20.321  0.00  0.00    +0.000 C 
BRANCH  20  22
ATOM     21  C   UNL     1       1.925   8.164  19.421  0.00  0.00    +0.000 C 
ATOM     22  C   UNL     1       2.617   6.814  19.299  0.00  0.00    +0.000 C 
ENDBRANCH  20  22
ENDBRANCH   1  20
TORSDOF 6
ENDMDL
MODEL 5
REMARK VINA RESULT:      -6.2      2.878      6.803
REMARK  Name = 
REMARK  8 active torsions:
REMARK  status: ('A' for Active; 'I' for Inactive)
REMARK    1  A    between atoms: C_1  and  C_2
REMARK    2  A    between atoms: C_2  and  C_3
REMARK    3  A    between atoms: C_3  and  C_4
REMARK    4  A    between atoms: C_11  and  C_13
REMARK    5  A    between atoms: N_15  and  C_16
REMARK    6  A    between atoms: C_16  and  C_17
REMARK    7  A    between atoms: C_17  and  O_18
REMARK    8  A    between atoms: O_18  and  C_19
REMARK                            x       y       z     vdW  Elec       q    Type
REMARK                         _______ _______ _______ _____ _____    ______ ____
ROOT
ATOM      1  C   UNL     1       4.493   5.937  18.239  0.00  0.00    +0.000 C 
ATOM      2  C   UNL     1       3.587   4.995  19.072  0.00  0.00    +0.000 C 
ATOM      3  O   UNL     1       3.074   5.333  20.139  0.00  0.00    +0.000 OA
ATOM      4  N   UNL     1       3.218   3.795  18.512  0.00  0.00    +0.000 N 
ATOM      5  C   UNL     1       4.077   3.125  17.562  0.00  0.00    +0.000 C 
ATOM      6  C   UNL     1       4.719   4.092  16.573  0.00  0.00    +0.000 C 
ATOM      7  N   UNL     1       5.366   5.195  17.288  0.00  0.00    +0.000 N 
ATOM      8  C   UNL     1       6.683   5.526  16.945  0.00  0.00    +0.000 C 
ATOM      9  O   UNL     1       7.295   4.866  16.102  0.00  0.00    +0.000 OA
ATOM     10  H   UNL     1       2.650   3.234  19.137  0.00  0.00    +0.000 HD
ENDROOT
BRANCH   8  11
ATOM     11  C   UNL     1       7.371   6.618  17.633  0.00  0.00    +0.000 A 
ATOM     12  C   UNL     1       7.382   7.942  17.231  0.00  0.00    +0.000 A 
ATOM     13  N   UNL     1       8.204   8.559  18.118  0.00  0.00    +0.000 N 
ATOM     14  N   UNL     1       8.629   7.707  19.064  0.00  0.00    +0.000 NA
ATOM     15  N   UNL     1       8.103   6.521  18.789  0.00  0.00    +0.000 NA
BRANCH  13  16
ATOM     16  C   UNL     1       8.681   9.921  18.093  0.00  0.00    +0.000 C 
BRANCH  16  17
ATOM     17  C   UNL     1       9.348  10.306  19.407  0.00  0.00    +0.000 C 
BRANCH  17  18
ATOM     18  O   UNL     1       9.885  11.625  19.284  0.00  0.00    +0.000 OA
ATOM     19  C   UNL     1      10.908  11.683  18.296  0.00  0.00    +0.000 C 
ENDBRANCH  17  18
ENDBRANCH  16  17
ENDBRANCH  13  16
ENDBRANCH   8  11
BRANCH   1  20
ATOM     20  C   UNL     1       3.653   6.957  17.448  0.00  0.00    +0.000 C 
BRANCH  20  22
ATOM     21  C   UNL     1       2.126   8.920  17.822  0.00  0.00    +0.000 C 
ATOM     22  C   UNL     1       2.423   7.475  18.195  0.00  0.00    +0.000 C 
ENDBRANCH  20  22
ENDBRANCH   1  20
TORSDOF 6
ENDMDL
MODEL 6
REMARK VINA RESULT:      -6.2      2.395      6.293
REMARK  Name = 
REMARK  8 active torsions:
REMARK  status: ('A' for Active; 'I' for Inactive)
REMARK    1  A    between atoms: C_1  and  C_2
REMARK    2  A    between atoms: C_2  and  C_3
REMARK    3  A    between atoms: C_3  and  C_4
REMARK    4  A    between atoms: C_11  and  C_13
REMARK    5  A    between atoms: N_15  and  C_16
REMARK    6  A    between atoms: C_16  and  C_17
REMARK    7  A    between atoms: C_17  and  O_18
REMARK    8  A    between atoms: O_18  and  C_19
REMARK                            x       y       z     vdW  Elec       q    Type
REMARK                         _______ _______ _______ _____ _____    ______ ____
ROOT
ATOM      1  C   UNL     1       3.620   4.985  18.649  0.00  0.00    +0.000 C 
ATOM      2  C   UNL     1       3.107   4.189  19.875  0.00  0.00    +0.000 C 
ATOM      3  O   UNL     1       2.943   4.700  20.983  0.00  0.00    +0.000 OA
ATOM      4  N   UNL     1       2.670   2.902  19.671  0.00  0.00    +0.000 N 
ATOM      5  C   UNL     1       3.223   2.090  18.611  0.00  0.00    +0.000 C 
ATOM      6  C   UNL     1       3.434   2.879  17.322  0.00  0.00    +0.000 C 
ATOM      7  N   UNL     1       4.193   4.102  17.594  0.00  0.00    +0.000 N 
ATOM      8  C   UNL     1       5.298   4.393  16.785  0.00  0.00    +0.000 C 
ATOM      9  O   UNL     1       5.653   3.606  15.905  0.00  0.00    +0.000 OA
ATOM     10  H   UNL     1       2.379   2.449  20.530  0.00  0.00    +0.000 HD
ENDROOT
BRANCH   8  11
ATOM     11  C   UNL     1       6.086   5.602  17.021  0.00  0.00    +0.000 A 
ATOM     12  C   UNL     1       7.104   5.731  17.950  0.00  0.00    +0.000 A 
ATOM     13  N   UNL     1       7.476   7.034  17.865  0.00  0.00    +0.000 N 
ATOM     14  N   UNL     1       6.798   7.674  16.900  0.00  0.00    +0.000 NA
ATOM     15  N   UNL     1       5.962   6.798  16.361  0.00  0.00    +0.000 NA
BRANCH  13  16
ATOM     16  C   UNL     1       8.408   7.751  18.704  0.00  0.00    +0.000 C 
BRANCH  16  17
ATOM     17  C   UNL     1       8.521   9.213  18.294  0.00  0.00    +0.000 C 
BRANCH  17  18
ATOM     18  O   UNL     1       9.536   9.837  19.083  0.00  0.00    +0.000 OA
ATOM     19  C   UNL     1       9.194  11.180  19.408  0.00  0.00    +0.000 C 
ENDBRANCH  17  18
ENDBRANCH  16  17
ENDBRANCH  13  16
ENDBRANCH   8  11
BRANCH   1  20
ATOM     20  C   UNL     1       2.494   5.833  18.028  0.00  0.00    +0.000 C 
BRANCH  20  22
ATOM     21  C   UNL     1       2.472   8.324  17.681  0.00  0.00    +0.000 C 
ATOM     22  C   UNL     1       2.296   7.198  18.690  0.00  0.00    +0.000 C 
ENDBRANCH  20  22
ENDBRANCH   1  20
TORSDOF 6
ENDMDL
MODEL 7
REMARK VINA RESULT:      -6.2      1.559      1.844
REMARK  Name = 
REMARK  8 active torsions:
REMARK  status: ('A' for Active; 'I' for Inactive)
REMARK    1  A    between atoms: C_1  and  C_2
REMARK    2  A    between atoms: C_2  and  C_3
REMARK    3  A    between atoms: C_3  and  C_4
REMARK    4  A    between atoms: C_11  and  C_13
REMARK    5  A    between atoms: N_15  and  C_16
REMARK    6  A    between atoms: C_16  and  C_17
REMARK    7  A    between atoms: C_17  and  O_18
REMARK    8  A    between atoms: O_18  and  C_19
REMARK                            x       y       z     vdW  Elec       q    Type
REMARK                         _______ _______ _______ _____ _____    ______ ____
ROOT
ATOM      1  C   UNL     1       5.775   4.558  16.990  0.00  0.00    +0.000 C 
ATOM      2  C   UNL     1       7.257   5.010  16.975  0.00  0.00    +0.000 C 
ATOM      3  O   UNL     1       8.196   4.228  17.130  0.00  0.00    +0.000 OA
ATOM      4  N   UNL     1       7.532   6.308  16.617  0.00  0.00    +0.000 N 
ATOM      5  C   UNL     1       6.579   7.366  16.873  0.00  0.00    +0.000 C 
ATOM      6  C   UNL     1       5.143   6.939  16.584  0.00  0.00    +0.000 C 
ATOM      7  N   UNL     1       4.839   5.682  17.272  0.00  0.00    +0.000 N 
ATOM      8  C   UNL     1       3.661   5.606  18.026  0.00  0.00    +0.000 C 
ATOM      9  O   UNL     1       2.933   6.593  18.151  0.00  0.00    +0.000 OA
ATOM     10  H   UNL     1       8.521   6.523  16.661  0.00  0.00    +0.000 HD
ENDROOT
BRANCH   8  11
ATOM     11  C   UNL     1       3.317   4.372  18.732  0.00  0.00    +0.000 A 
ATOM     12  C   UNL     1       3.989   3.857  19.827  0.00  0.00    +0.000 A 
ATOM     13  N   UNL     1       3.369   2.676  20.080  0.00  0.00    +0.000 N 
ATOM     14  N   UNL     1       2.328   2.484  19.254  0.00  0.00    +0.000 NA
ATOM     15  N   UNL     1       2.274   3.530  18.442  0.00  0.00    +0.000 NA
BRANCH  13  16
ATOM     16  C   UNL     1       3.745   1.658  21.032  0.00  0.00    +0.000 C 
BRANCH  16  17
ATOM     17  C   UNL     1       5.179   1.191  20.816  0.00  0.00    +0.000 C 
BRANCH  17  18
ATOM     18  O   UNL     1       5.802   1.010  22.090  0.00  0.00    +0.000 OA
ATOM     19  C   UNL     1       6.415  -0.271  22.195  0.00  0.00    +0.000 C 
ENDBRANCH  17  18
ENDBRANCH  16  17
ENDBRANCH  13  16
ENDBRANCH   8  11
BRANCH   1  20
ATOM     20  C   UNL     1       5.380   3.909  15.650  0.00  0.00    +0.000 C 
BRANCH  20  22
ATOM     21  C   UNL     1       5.758   3.695  13.173  0.00  0.00    +0.000 C 
ATOM     22  C   UNL     1       6.255   4.325  14.467  0.00  0.00    +0.000 C 
ENDBRANCH  20  22
ENDBRANCH   1  20
TORSDOF 6
ENDMDL
MODEL 8
REMARK VINA RESULT:      -6.2      1.209      1.365
REMARK  Name = 
REMARK  8 active torsions:
REMARK  status: ('A' for Active; 'I' for Inactive)
REMARK    1  A    between atoms: C_1  and  C_2
REMARK    2  A    between atoms: C_2  and  C_3
REMARK    3  A    between atoms: C_3  and  C_4
REMARK    4  A    between atoms: C_11  and  C_13
REMARK    5  A    between atoms: N_15  and  C_16
REMARK    6  A    between atoms: C_16  and  C_17
REMARK    7  A    between atoms: C_17  and  O_18
REMARK    8  A    between atoms: O_18  and  C_19
REMARK                            x       y       z     vdW  Elec       q    Type
REMARK                         _______ _______ _______ _____ _____    ______ ____
ROOT
ATOM      1  C   UNL     1       6.417   5.358  18.523  0.00  0.00    +0.000 C 
ATOM      2  C   UNL     1       7.616   5.830  19.384  0.00  0.00    +0.000 C 
ATOM      3  O   UNL     1       8.000   5.224  20.385  0.00  0.00    +0.000 OA
ATOM      4  N   UNL     1       8.373   6.876  18.914  0.00  0.00    +0.000 N 
ATOM      5  C   UNL     1       7.787   7.901  18.080  0.00  0.00    +0.000 C 
ATOM      6  C   UNL     1       6.822   7.329  17.046  0.00  0.00    +0.000 C 
ATOM      7  N   UNL     1       5.842   6.454  17.695  0.00  0.00    +0.000 N 
ATOM      8  C   UNL     1       4.486   6.643  17.401  0.00  0.00    +0.000 C 
ATOM      9  O   UNL     1       4.128   7.560  16.659  0.00  0.00    +0.000 OA
ATOM     10  H   UNL     1       9.117   7.135  19.552  0.00  0.00    +0.000 HD
ENDROOT
BRANCH   8  11
ATOM     11  C   UNL     1       3.471   5.795  18.027  0.00  0.00    +0.000 A 
ATOM     12  C   UNL     1       2.784   6.089  19.192  0.00  0.00    +0.000 A 
ATOM     13  N   UNL     1       2.023   4.988  19.423  0.00  0.00    +0.000 N 
ATOM     14  N   UNL     1       2.157   4.086  18.438  0.00  0.00    +0.000 NA
ATOM     15  N   UNL     1       3.023   4.583  17.566  0.00  0.00    +0.000 NA
BRANCH  13  16
ATOM     16  C   UNL     1       1.207   4.695  20.577  0.00  0.00    +0.000 C 
BRANCH  16  17
ATOM     17  C   UNL     1       1.233   3.211  20.920  0.00  0.00    +0.000 C 
BRANCH  17  18
ATOM     18  O   UNL     1       2.272   2.975  21.872  0.00  0.00    +0.000 OA
ATOM     19  C   UNL     1       3.370   2.283  21.288  0.00  0.00    +0.000 C 
ENDBRANCH  17  18
ENDBRANCH  16  17
ENDBRANCH  13  16
ENDBRANCH   8  11
BRANCH   1  20
ATOM     20  C   UNL     1       6.823   4.197  17.596  0.00  0.00    +0.000 C 
BRANCH  20  22
ATOM     21  C   UNL     1       5.983   3.871  15.248  0.00  0.00    +0.000 C 
ATOM     22  C   UNL     1       6.992   4.593  16.129  0.00  0.00    +0.000 C 
ENDBRANCH  20  22
ENDBRANCH   1  20
TORSDOF 6
ENDMDL
MODEL 9
REMARK VINA RESULT:      -6.1      2.362      6.117
REMARK  Name = 
REMARK  8 active torsions:
REMARK  status: ('A' for Active; 'I' for Inactive)
REMARK    1  A    between atoms: C_1  and  C_2
REMARK    2  A    between atoms: C_2  and  C_3
REMARK    3  A    between atoms: C_3  and  C_4
REMARK    4  A    between atoms: C_11  and  C_13
REMARK    5  A    between atoms: N_15  and  C_16
REMARK    6  A    between atoms: C_16  and  C_17
REMARK    7  A    between atoms: C_17  and  O_18
REMARK    8  A    between atoms: O_18  and  C_19
REMARK                            x       y       z     vdW  Elec       q    Type
REMARK                         _______ _______ _______ _____ _____    ______ ____
ROOT
ATOM      1  C   UNL     1       2.744   5.336  19.031  0.00  0.00    +0.000 C 
ATOM      2  C   UNL     1       1.968   5.471  20.366  0.00  0.00    +0.000 C 
ATOM      3  O   UNL     1       2.126   6.416  21.139  0.00  0.00    +0.000 OA
ATOM      4  N   UNL     1       0.952   4.580  20.613  0.00  0.00    +0.000 N 
ATOM      5  C   UNL     1       0.990   3.241  20.068  0.00  0.00    +0.000 C 
ATOM      6  C   UNL     1       1.496   3.212  18.629  0.00  0.00    +0.000 C 
ATOM      7  N   UNL     1       2.765   3.937  18.522  0.00  0.00    +0.000 N 
ATOM      8  C   UNL     1       3.832   3.313  17.864  0.00  0.00    +0.000 C 
ATOM      9  O   UNL     1       3.718   2.162  17.438  0.00  0.00    +0.000 OA
ATOM     10  H   UNL     1       0.519   4.724  21.518  0.00  0.00    +0.000 HD
ENDROOT
BRANCH   8  11
ATOM     11  C   UNL     1       5.119   3.997  17.735  0.00  0.00    +0.000 A 
ATOM     12  C   UNL     1       5.750   4.718  18.733  0.00  0.00    +0.000 A 
ATOM     13  N   UNL     1       6.855   5.230  18.134  0.00  0.00    +0.000 N 
ATOM     14  N   UNL     1       6.963   4.806  16.865  0.00  0.00    +0.000 NA
ATOM     15  N   UNL     1       5.917   4.030  16.620  0.00  0.00    +0.000 NA
BRANCH  13  16
ATOM     16  C   UNL     1       7.807   6.172  18.674  0.00  0.00    +0.000 C 
BRANCH  16  17
ATOM     17  C   UNL     1       7.751   7.507  17.943  0.00  0.00    +0.000 C 
BRANCH  17  18
ATOM     18  O   UNL     1       8.555   8.454  18.649  0.00  0.00    +0.000 OA
ATOM     19  C   UNL     1       8.496   9.743  18.048  0.00  0.00    +0.000 C 
ENDBRANCH  17  18
ENDBRANCH  16  17
ENDBRANCH  13  16
ENDBRANCH   8  11
BRANCH   1  20
ATOM     20  C   UNL     1       2.144   6.250  17.947  0.00  0.00    +0.000 C 
BRANCH  20  22
ATOM     21  C   UNL     1       1.786   8.739  17.940  0.00  0.00    +0.000 C 
ATOM     22  C   UNL     1       2.813   7.621  17.837  0.00  0.00    +0.000 C 
ENDBRANCH  20  22
ENDBRANCH   1  20
TORSDOF 6
ENDMDL
