MODEL 1
REMARK VINA RESULT:      -8.8      0.000      0.000
REMARK  Name = 
REMARK  4 active torsions:
REMARK  status: ('A' for Active; 'I' for Inactive)
REMARK    1  A    between atoms: C_1  and  C_2
REMARK    2  A    between atoms: C_2  and  N_3
REMARK    3  A    between atoms: C_8  and  C_9
REMARK    4  A    between atoms: C_12  and  C_13
REMARK                            x       y       z     vdW  Elec       q    Type
REMARK                         _______ _______ _______ _____ _____    ______ ____
ROOT
ATOM      1  C   UNL     1       2.395   7.148  18.645  0.00  0.00    +0.000 A 
ATOM      2  C   UNL     1       2.135   8.247  17.835  0.00  0.00    +0.000 A 
ATOM      3  C   UNL     1       1.528   9.383  18.373  0.00  0.00    +0.000 A 
ATOM      4  C   UNL     1       1.112   9.440  19.719  0.00  0.00    +0.000 A 
ATOM      5  C   UNL     1       1.481   8.373  20.548  0.00  0.00    +0.000 A 
ATOM      6  C   UNL     1       2.113   7.233  20.012  0.00  0.00    +0.000 A 
ENDROOT
BRANCH   4   7
ATOM      7  C   UNL     1       0.276  10.579  20.186  0.00  0.00    +0.000 A 
ATOM      8  C   UNL     1      -0.217  11.441  19.281  0.00  0.00    +0.000 A 
ATOM      9  C   UNL     1      -0.886  12.651  19.747  0.00  0.00    +0.000 A 
ATOM     10  O   UNL     1      -0.979  13.642  19.041  0.00  0.00    +0.000 OA
ATOM     11  C   UNL     1      -1.471  12.552  21.076  0.00  0.00    +0.000 A 
ATOM     12  C   UNL     1      -2.542  13.386  21.411  0.00  0.00    +0.000 A 
ATOM     13  C   UNL     1      -3.229  13.153  22.595  0.00  0.00    +0.000 A 
ATOM     14  C   UNL     1      -2.816  12.121  23.444  0.00  0.00    +0.000 A 
ATOM     15  C   UNL     1      -1.704  11.324  23.123  0.00  0.00    +0.000 A 
ATOM     16  C   UNL     1      -1.036  11.527  21.916  0.00  0.00    +0.000 A 
ATOM     17  O   UNL     1      -0.006  10.673  21.554  0.00  0.00    +0.000 OA
ENDBRANCH   4   7
BRANCH   1  23
ATOM     18  N   UNL     1       5.752   4.689  16.165  0.00  0.00    +0.000 N 
ATOM     19  C   UNL     1       6.403   5.864  16.422  0.00  0.00    +0.000 C 
ATOM     20  O   UNL     1       7.518   6.176  16.055  0.00  0.00    +0.000 OA
ATOM     21  S   UNL     1       5.381   6.932  17.373  0.00  0.00    +0.000 S 
ATOM     22  C   UNL     1       4.114   5.776  17.458  0.00  0.00    +0.000 C 
ATOM     23  C   UNL     1       2.909   5.925  18.023  0.00  0.00    +0.000 C 
ATOM     24  C   UNL     1       4.507   4.526  16.728  0.00  0.00    +0.000 C 
ATOM     25  O   UNL     1       3.795   3.534  16.659  0.00  0.00    +0.000 OA
BRANCH  18  27
ATOM     26  C   UNL     1       6.069   3.888  13.846  0.00  0.00    +0.000 C 
ATOM     27  C   UNL     1       6.345   3.672  15.329  0.00  0.00    +0.000 C 
ENDBRANCH  18  27
ENDBRANCH   1  23
TORSDOF 3
ENDMDL
MODEL 2
REMARK VINA RESULT:      -8.4      0.982      1.957
REMARK  Name = 
REMARK  4 active torsions:
REMARK  status: ('A' for Active; 'I' for Inactive)
REMARK    1  A    between atoms: C_1  and  C_2
REMARK    2  A    between atoms: C_2  and  N_3
REMARK    3  A    between atoms: C_8  and  C_9
REMARK    4  A    between atoms: C_12  and  C_13
REMARK                            x       y       z     vdW  Elec       q    Type
REMARK                         _______ _______ _______ _____ _____    ______ ____
ROOT
ATOM      1  C   UNL     1       2.368   7.062  18.737  0.00  0.00    +0.000 A 
ATOM      2  C   UNL     1       2.067   8.175  17.960  0.00  0.00    +0.000 A 
ATOM      3  C   UNL     1       1.459   9.289  18.541  0.00  0.00    +0.000 A 
ATOM      4  C   UNL     1       1.083   9.309  19.900  0.00  0.00    +0.000 A 
ATOM      5  C   UNL     1       1.493   8.231  20.693  0.00  0.00    +0.000 A 
ATOM      6  C   UNL     1       2.125   7.113  20.113  0.00  0.00    +0.000 A 
ENDROOT
BRANCH   4   7
ATOM      7  C   UNL     1       0.244  10.425  20.417  0.00  0.00    +0.000 A 
ATOM      8  C   UNL     1      -0.073  10.453  21.722  0.00  0.00    +0.000 A 
ATOM      9  C   UNL     1      -1.035  11.442  22.196  0.00  0.00    +0.000 A 
ATOM     10  O   UNL     1      -1.670  11.274  23.225  0.00  0.00    +0.000 OA
ATOM     11  C   UNL     1      -1.124  12.646  21.383  0.00  0.00    +0.000 A 
ATOM     12  C   UNL     1      -1.569  13.833  21.972  0.00  0.00    +0.000 A 
ATOM     13  C   UNL     1      -1.459  15.019  21.258  0.00  0.00    +0.000 A 
ATOM     14  C   UNL     1      -0.947  14.999  19.956  0.00  0.00    +0.000 A 
ATOM     15  C   UNL     1      -0.554  13.791  19.355  0.00  0.00    +0.000 A 
ATOM     16  C   UNL     1      -0.623  12.604  20.082  0.00  0.00    +0.000 A 
ATOM     17  O   UNL     1      -0.137  11.432  19.523  0.00  0.00    +0.000 OA
ENDBRANCH   4   7
BRANCH   1  23
ATOM     18  N   UNL     1       5.724   4.692  16.171  0.00  0.00    +0.000 N 
ATOM     19  C   UNL     1       6.376   5.857  16.468  0.00  0.00    +0.000 C 
ATOM     20  O   UNL     1       7.490   6.182  16.113  0.00  0.00    +0.000 OA
ATOM     21  S   UNL     1       5.353   6.892  17.457  0.00  0.00    +0.000 S 
ATOM     22  C   UNL     1       4.087   5.733  17.501  0.00  0.00    +0.000 C 
ATOM     23  C   UNL     1       2.882   5.862  18.072  0.00  0.00    +0.000 C 
ATOM     24  C   UNL     1       4.479   4.510  16.729  0.00  0.00    +0.000 C 
ATOM     25  O   UNL     1       3.767   3.521  16.625  0.00  0.00    +0.000 OA
BRANCH  18  27
ATOM     26  C   UNL     1       6.028   3.965  13.826  0.00  0.00    +0.000 C 
ATOM     27  C   UNL     1       6.316   3.705  15.299  0.00  0.00    +0.000 C 
ENDBRANCH  18  27
ENDBRANCH   1  23
TORSDOF 3
ENDMDL
MODEL 3
REMARK VINA RESULT:      -8.4      6.323      8.155
REMARK  Name = 
REMARK  4 active torsions:
REMARK  status: ('A' for Active; 'I' for Inactive)
REMARK    1  A    between atoms: C_1  and  C_2
REMARK    2  A    between atoms: C_2  and  N_3
REMARK    3  A    between atoms: C_8  and  C_9
REMARK    4  A    between atoms: C_12  and  C_13
REMARK                            x       y       z     vdW  Elec       q    Type
REMARK                         _______ _______ _______ _____ _____    ______ ____
ROOT
ATOM      1  C   UNL     1       6.676   5.992  17.859  0.00  0.00    +0.000 A 
ATOM      2  C   UNL     1       6.459   7.140  17.105  0.00  0.00    +0.000 A 
ATOM      3  C   UNL     1       7.230   8.281  17.331  0.00  0.00    +0.000 A 
ATOM      4  C   UNL     1       8.203   8.333  18.350  0.00  0.00    +0.000 A 
ATOM      5  C   UNL     1       8.489   7.139  19.023  0.00  0.00    +0.000 A 
ATOM      6  C   UNL     1       7.726   5.979  18.783  0.00  0.00    +0.000 A 
ENDROOT
BRANCH   4   7
ATOM      7  C   UNL     1       8.840   9.632  18.697  0.00  0.00    +0.000 A 
ATOM      8  C   UNL     1       9.089  10.519  17.719  0.00  0.00    +0.000 A 
ATOM      9  C   UNL     1       9.869  11.714  18.027  0.00  0.00    +0.000 A 
ATOM     10  O   UNL     1      10.474  12.323  17.160  0.00  0.00    +0.000 OA
ATOM     11  C   UNL     1       9.813  12.137  19.418  0.00  0.00    +0.000 A 
ATOM     12  C   UNL     1      10.046  13.479  19.731  0.00  0.00    +0.000 A 
ATOM     13  C   UNL     1       9.793  13.922  21.022  0.00  0.00    +0.000 A 
ATOM     14  C   UNL     1       9.350  13.016  21.990  0.00  0.00    +0.000 A 
ATOM     15  C   UNL     1       9.171  11.657  21.679  0.00  0.00    +0.000 A 
ATOM     16  C   UNL     1       9.384  11.215  20.374  0.00  0.00    +0.000 A 
ATOM     17  O   UNL     1       9.106   9.898  20.045  0.00  0.00    +0.000 OA
ENDBRANCH   4   7
BRANCH   1  23
ATOM     18  N   UNL     1       2.851   3.335  19.189  0.00  0.00    +0.000 N 
ATOM     19  C   UNL     1       2.722   4.429  19.998  0.00  0.00    +0.000 C 
ATOM     20  O   UNL     1       1.875   4.613  20.848  0.00  0.00    +0.000 OA
ATOM     21  S   UNL     1       4.001   5.589  19.664  0.00  0.00    +0.000 S 
ATOM     22  C   UNL     1       4.663   4.618  18.412  0.00  0.00    +0.000 C 
ATOM     23  C   UNL     1       5.764   4.859  17.688  0.00  0.00    +0.000 C 
ATOM     24  C   UNL     1       3.859   3.362  18.253  0.00  0.00    +0.000 C 
ATOM     25  O   UNL     1       4.101   2.509  17.411  0.00  0.00    +0.000 OA
BRANCH  18  27
ATOM     26  C   UNL     1       0.613   2.417  18.671  0.00  0.00    +0.000 C 
ATOM     27  C   UNL     1       1.972   2.197  19.323  0.00  0.00    +0.000 C 
ENDBRANCH  18  27
ENDBRANCH   1  23
TORSDOF 3
ENDMDL
MODEL 4
REMARK VINA RESULT:      -8.3      3.398     10.128
REMARK  Name = 
REMARK  4 active torsions:
REMARK  status: ('A' for Active; 'I' for Inactive)
REMARK    1  A    between atoms: C_1  and  C_2
REMARK    2  A    between atoms: C_2  and  N_3
REMARK    3  A    between atoms: C_8  and  C_9
REMARK    4  A    between atoms: C_12  and  C_13
REMARK                            x       y       z     vdW  Elec       q    Type
REMARK                         _______ _______ _______ _____ _____    ______ ____
ROOT
ATOM      1  C   UNL     1       0.298   9.981  19.538  0.00  0.00    +0.000 A 
ATOM      2  C   UNL     1       0.776   9.034  20.437  0.00  0.00    +0.000 A 
ATOM      3  C   UNL     1       1.730   8.101  20.027  0.00  0.00    +0.000 A 
ATOM      4  C   UNL     1       2.195   8.046  18.696  0.00  0.00    +0.000 A 
ATOM      5  C   UNL     1       1.790   9.072  17.835  0.00  0.00    +0.000 A 
ATOM      6  C   UNL     1       0.843  10.029  18.252  0.00  0.00    +0.000 A 
ENDROOT
BRANCH   4   7
ATOM      7  C   UNL     1       3.038   6.901  18.256  0.00  0.00    +0.000 A 
ATOM      8  C   UNL     1       2.703   5.658  18.638  0.00  0.00    +0.000 A 
ATOM      9  C   UNL     1       3.621   4.559  18.357  0.00  0.00    +0.000 A 
ATOM     10  O   UNL     1       3.600   3.527  19.009  0.00  0.00    +0.000 OA
ATOM     11  C   UNL     1       4.502   4.775  17.220  0.00  0.00    +0.000 A 
ATOM     12  C   UNL     1       5.019   3.668  16.540  0.00  0.00    +0.000 A 
ATOM     13  C   UNL     1       5.687   3.869  15.340  0.00  0.00    +0.000 A 
ATOM     14  C   UNL     1       5.865   5.169  14.856  0.00  0.00    +0.000 A 
ATOM     15  C   UNL     1       5.389   6.278  15.575  0.00  0.00    +0.000 A 
ATOM     16  C   UNL     1       4.681   6.080  16.760  0.00  0.00    +0.000 A 
ATOM     17  O   UNL     1       4.123   7.168  17.413  0.00  0.00    +0.000 OA
ENDBRANCH   4   7
BRANCH   1  23
ATOM     18  N   UNL     1      -1.432  13.820  21.932  0.00  0.00    +0.000 N 
ATOM     19  C   UNL     1      -0.083  14.019  22.029  0.00  0.00    +0.000 C 
ATOM     20  O   UNL     1       0.482  14.918  22.618  0.00  0.00    +0.000 OA
ATOM     21  S   UNL     1       0.783  12.748  21.178  0.00  0.00    +0.000 S 
ATOM     22  C   UNL     1      -0.671  11.993  20.661  0.00  0.00    +0.000 C 
ATOM     23  C   UNL     1      -0.797  10.858  19.962  0.00  0.00    +0.000 C 
ATOM     24  C   UNL     1      -1.856  12.760  21.164  0.00  0.00    +0.000 C 
ATOM     25  O   UNL     1      -3.013  12.452  20.915  0.00  0.00    +0.000 OA
BRANCH  18  27
ATOM     26  C   UNL     1      -2.667  14.220  24.038  0.00  0.00    +0.000 C 
ATOM     27  C   UNL     1      -2.367  14.681  22.618  0.00  0.00    +0.000 C 
ENDBRANCH  18  27
ENDBRANCH   1  23
TORSDOF 3
ENDMDL
MODEL 5
REMARK VINA RESULT:      -8.3      6.391      8.841
REMARK  Name = 
REMARK  4 active torsions:
REMARK  status: ('A' for Active; 'I' for Inactive)
REMARK    1  A    between atoms: C_1  and  C_2
REMARK    2  A    between atoms: C_2  and  N_3
REMARK    3  A    between atoms: C_8  and  C_9
REMARK    4  A    between atoms: C_12  and  C_13
REMARK                            x       y       z     vdW  Elec       q    Type
REMARK                         _______ _______ _______ _____ _____    ______ ____
ROOT
ATOM      1  C   UNL     1       6.796   6.123  17.839  0.00  0.00    +0.000 A 
ATOM      2  C   UNL     1       6.623   7.276  17.082  0.00  0.00    +0.000 A 
ATOM      3  C   UNL     1       7.388   8.412  17.354  0.00  0.00    +0.000 A 
ATOM      4  C   UNL     1       8.307   8.453  18.423  0.00  0.00    +0.000 A 
ATOM      5  C   UNL     1       8.551   7.254  19.103  0.00  0.00    +0.000 A 
ATOM      6  C   UNL     1       7.796   6.099  18.816  0.00  0.00    +0.000 A 
ENDROOT
BRANCH   4   7
ATOM      7  C   UNL     1       8.932   9.747  18.809  0.00  0.00    +0.000 A 
ATOM      8  C   UNL     1       9.051  10.051  20.112  0.00  0.00    +0.000 A 
ATOM      9  C   UNL     1       9.500  11.388  20.489  0.00  0.00    +0.000 A 
ATOM     10  O   UNL     1       9.241  11.863  21.583  0.00  0.00    +0.000 OA
ATOM     11  C   UNL     1      10.315  12.063  19.490  0.00  0.00    +0.000 A 
ATOM     12  C   UNL     1      11.210  13.055  19.900  0.00  0.00    +0.000 A 
ATOM     13  C   UNL     1      12.127  13.551  18.984  0.00  0.00    +0.000 A 
ATOM     14  C   UNL     1      12.113  13.083  17.666  0.00  0.00    +0.000 A 
ATOM     15  C   UNL     1      11.172  12.125  17.251  0.00  0.00    +0.000 A 
ATOM     16  C   UNL     1      10.276  11.593  18.177  0.00  0.00    +0.000 A 
ATOM     17  O   UNL     1       9.419  10.574  17.790  0.00  0.00    +0.000 OA
ENDBRANCH   4   7
BRANCH   1  23
ATOM     18  N   UNL     1       3.019   3.354  19.074  0.00  0.00    +0.000 N 
ATOM     19  C   UNL     1       2.899   4.392  19.955  0.00  0.00    +0.000 C 
ATOM     20  O   UNL     1       2.069   4.514  20.832  0.00  0.00    +0.000 OA
ATOM     21  S   UNL     1       4.162   5.582  19.669  0.00  0.00    +0.000 S 
ATOM     22  C   UNL     1       4.805   4.699  18.344  0.00  0.00    +0.000 C 
ATOM     23  C   UNL     1       5.888   4.995  17.615  0.00  0.00    +0.000 C 
ATOM     24  C   UNL     1       4.007   3.450  18.121  0.00  0.00    +0.000 C 
ATOM     25  O   UNL     1       4.237   2.655  17.221  0.00  0.00    +0.000 OA
BRANCH  18  27
ATOM     26  C   UNL     1       0.743   2.484  18.643  0.00  0.00    +0.000 C 
ATOM     27  C   UNL     1       2.151   2.202  19.153  0.00  0.00    +0.000 C 
ENDBRANCH  18  27
ENDBRANCH   1  23
TORSDOF 3
ENDMDL
MODEL 6
REMARK VINA RESULT:      -8.2      1.054      1.410
REMARK  Name = 
REMARK  4 active torsions:
REMARK  status: ('A' for Active; 'I' for Inactive)
REMARK    1  A    between atoms: C_1  and  C_2
REMARK    2  A    between atoms: C_2  and  N_3
REMARK    3  A    between atoms: C_8  and  C_9
REMARK    4  A    between atoms: C_12  and  C_13
REMARK                            x       y       z     vdW  Elec       q    Type
REMARK                         _______ _______ _______ _____ _____    ______ ____
ROOT
ATOM      1  C   UNL     1       2.223   7.007  18.609  0.00  0.00    +0.000 A 
ATOM      2  C   UNL     1       1.963   7.021  19.975  0.00  0.00    +0.000 A 
ATOM      3  C   UNL     1       1.431   8.164  20.573  0.00  0.00    +0.000 A 
ATOM      4  C   UNL     1       1.192   9.346  19.842  0.00  0.00    +0.000 A 
ATOM      5  C   UNL     1       1.351   9.281  18.452  0.00  0.00    +0.000 A 
ATOM      6  C   UNL     1       1.869   8.121  17.842  0.00  0.00    +0.000 A 
ENDROOT
BRANCH   4   7
ATOM      7  C   UNL     1       0.836  10.599  20.561  0.00  0.00    +0.000 A 
ATOM      8  C   UNL     1       1.211  11.780  20.041  0.00  0.00    +0.000 A 
ATOM      9  C   UNL     1       1.018  12.994  20.827  0.00  0.00    +0.000 A 
ATOM     10  O   UNL     1       1.682  13.997  20.626  0.00  0.00    +0.000 OA
ATOM     11  C   UNL     1      -0.053  12.921  21.810  0.00  0.00    +0.000 A 
ATOM     12  C   UNL     1      -0.674  14.101  22.229  0.00  0.00    +0.000 A 
ATOM     13  C   UNL     1      -1.822  14.017  23.004  0.00  0.00    +0.000 A 
ATOM     14  C   UNL     1      -2.312  12.763  23.383  0.00  0.00    +0.000 A 
ATOM     15  C   UNL     1      -1.648  11.584  23.002  0.00  0.00    +0.000 A 
ATOM     16  C   UNL     1      -0.518  11.661  22.189  0.00  0.00    +0.000 A 
ATOM     17  O   UNL     1       0.073  10.495  21.730  0.00  0.00    +0.000 OA
ENDBRANCH   4   7
BRANCH   1  23
ATOM     18  N   UNL     1       5.959   4.910  16.349  0.00  0.00    +0.000 N 
ATOM     19  C   UNL     1       6.460   6.155  16.614  0.00  0.00    +0.000 C 
ATOM     20  O   UNL     1       7.549   6.586  16.297  0.00  0.00    +0.000 OA
ATOM     21  S   UNL     1       5.276   7.114  17.491  0.00  0.00    +0.000 S 
ATOM     22  C   UNL     1       4.145   5.822  17.536  0.00  0.00    +0.000 C 
ATOM     23  C   UNL     1       2.903   5.842  18.038  0.00  0.00    +0.000 C 
ATOM     24  C   UNL     1       4.713   4.615  16.852  0.00  0.00    +0.000 C 
ATOM     25  O   UNL     1       4.122   3.548  16.768  0.00  0.00    +0.000 OA
BRANCH  18  27
ATOM     26  C   UNL     1       6.309   3.959  14.092  0.00  0.00    +0.000 C 
ATOM     27  C   UNL     1       6.705   3.955  15.563  0.00  0.00    +0.000 C 
ENDBRANCH  18  27
ENDBRANCH   1  23
TORSDOF 3
ENDMDL
MODEL 7
REMARK VINA RESULT:      -8.2      3.569     10.031
REMARK  Name = 
REMARK  4 active torsions:
REMARK  status: ('A' for Active; 'I' for Inactive)
REMARK    1  A    between atoms: C_1  and  C_2
REMARK    2  A    between atoms: C_2  and  N_3
REMARK    3  A    between atoms: C_8  and  C_9
REMARK    4  A    between atoms: C_12  and  C_13
REMARK                            x       y       z     vdW  Elec       q    Type
REMARK                         _______ _______ _______ _____ _____    ______ ____
ROOT
ATOM      1  C   UNL     1       0.424   9.987  19.495  0.00  0.00    +0.000 A 
ATOM      2  C   UNL     1       0.865   9.009  20.379  0.00  0.00    +0.000 A 
ATOM      3  C   UNL     1       1.807   8.066  19.963  0.00  0.00    +0.000 A 
ATOM      4  C   UNL     1       2.297   8.035  18.642  0.00  0.00    +0.000 A 
ATOM      5  C   UNL     1       1.931   9.090  17.798  0.00  0.00    +0.000 A 
ATOM      6  C   UNL     1       0.996  10.056  18.221  0.00  0.00    +0.000 A 
ENDROOT
BRANCH   4   7
ATOM      7  C   UNL     1       3.125   6.884  18.189  0.00  0.00    +0.000 A 
ATOM      8  C   UNL     1       2.779   5.642  18.565  0.00  0.00    +0.000 A 
ATOM      9  C   UNL     1       3.683   4.534  18.272  0.00  0.00    +0.000 A 
ATOM     10  O   UNL     1       3.655   3.499  18.917  0.00  0.00    +0.000 OA
ATOM     11  C   UNL     1       4.559   4.748  17.130  0.00  0.00    +0.000 A 
ATOM     12  C   UNL     1       5.060   3.640  16.440  0.00  0.00    +0.000 A 
ATOM     13  C   UNL     1       5.723   3.842  15.237  0.00  0.00    +0.000 A 
ATOM     14  C   UNL     1       5.913   5.143  14.760  0.00  0.00    +0.000 A 
ATOM     15  C   UNL     1       5.453   6.252  15.490  0.00  0.00    +0.000 A 
ATOM     16  C   UNL     1       4.750   6.054  16.677  0.00  0.00    +0.000 A 
ATOM     17  O   UNL     1       4.208   7.144  17.340  0.00  0.00    +0.000 OA
ENDBRANCH   4   7
BRANCH   1  23
ATOM     18  N   UNL     1      -3.941  12.005  18.908  0.00  0.00    +0.000 N 
ATOM     19  C   UNL     1      -3.948  11.045  17.935  0.00  0.00    +0.000 C 
ATOM     20  O   UNL     1      -4.828  10.829  17.127  0.00  0.00    +0.000 OA
ATOM     21  S   UNL     1      -2.449  10.124  17.976  0.00  0.00    +0.000 S 
ATOM     22  C   UNL     1      -1.854  11.003  19.327  0.00  0.00    +0.000 C 
ATOM     23  C   UNL     1      -0.660  10.877  19.920  0.00  0.00    +0.000 C 
ATOM     24  C   UNL     1      -2.855  12.034  19.753  0.00  0.00    +0.000 C 
ATOM     25  O   UNL     1      -2.691  12.778  20.710  0.00  0.00    +0.000 OA
BRANCH  18  27
ATOM     26  C   UNL     1      -6.124  12.476  19.972  0.00  0.00    +0.000 C 
ATOM     27  C   UNL     1      -5.024  12.952  19.032  0.00  0.00    +0.000 C 
ENDBRANCH  18  27
ENDBRANCH   1  23
TORSDOF 3
ENDMDL
MODEL 8
REMARK VINA RESULT:      -8.1      3.771      9.554
REMARK  Name = 
REMARK  4 active torsions:
REMARK  status: ('A' for Active; 'I' for Inactive)
REMARK    1  A    between atoms: C_1  and  C_2
REMARK    2  A    between atoms: C_2  and  N_3
REMARK    3  A    between atoms: C_8  and  C_9
REMARK    4  A    between atoms: C_12  and  C_13
REMARK                            x       y       z     vdW  Elec       q    Type
REMARK                         _______ _______ _______ _____ _____    ______ ____
ROOT
ATOM      1  C   UNL     1       0.657  10.278  19.865  0.00  0.00    +0.000 A 
ATOM      2  C   UNL     1       0.712   9.550  21.048  0.00  0.00    +0.000 A 
ATOM      3  C   UNL     1       1.314   8.291  21.066  0.00  0.00    +0.000 A 
ATOM      4  C   UNL     1       1.831   7.695  19.897  0.00  0.00    +0.000 A 
ATOM      5  C   UNL     1       1.870   8.483  18.740  0.00  0.00    +0.000 A 
ATOM      6  C   UNL     1       1.281   9.764  18.724  0.00  0.00    +0.000 A 
ENDROOT
BRANCH   4   7
ATOM      7  C   UNL     1       2.259   6.270  19.923  0.00  0.00    +0.000 A 
ATOM      8  C   UNL     1       1.736   5.447  20.845  0.00  0.00    +0.000 A 
ATOM      9  C   UNL     1       2.281   4.100  20.986  0.00  0.00    +0.000 A 
ATOM     10  O   UNL     1       2.165   3.469  22.024  0.00  0.00    +0.000 OA
ATOM     11  C   UNL     1       2.909   3.568  19.786  0.00  0.00    +0.000 A 
ATOM     12  C   UNL     1       2.984   2.183  19.614  0.00  0.00    +0.000 A 
ATOM     13  C   UNL     1       3.394   1.680  18.387  0.00  0.00    +0.000 A 
ATOM     14  C   UNL     1       3.760   2.560  17.364  0.00  0.00    +0.000 A 
ATOM     15  C   UNL     1       3.732   3.951  17.566  0.00  0.00    +0.000 A 
ATOM     16  C   UNL     1       3.283   4.463  18.782  0.00  0.00    +0.000 A 
ATOM     17  O   UNL     1       3.158   5.834  18.942  0.00  0.00    +0.000 OA
ENDBRANCH   4   7
BRANCH   1  23
ATOM     18  N   UNL     1       0.371  15.099  19.486  0.00  0.00    +0.000 N 
ATOM     19  C   UNL     1       1.667  14.870  19.116  0.00  0.00    +0.000 C 
ATOM     20  O   UNL     1       2.502  15.701  18.826  0.00  0.00    +0.000 OA
ATOM     21  S   UNL     1       2.009  13.144  19.132  0.00  0.00    +0.000 S 
ATOM     22  C   UNL     1       0.400  12.749  19.585  0.00  0.00    +0.000 C 
ATOM     23  C   UNL     1      -0.097  11.534  19.850  0.00  0.00    +0.000 C 
ATOM     24  C   UNL     1      -0.419  13.997  19.721  0.00  0.00    +0.000 C 
ATOM     25  O   UNL     1      -1.608  13.994  20.008  0.00  0.00    +0.000 OA
BRANCH  18  27
ATOM     26  C   UNL     1      -0.654  17.029  18.326  0.00  0.00    +0.000 C 
ATOM     27  C   UNL     1      -0.139  16.442  19.635  0.00  0.00    +0.000 C 
ENDBRANCH  18  27
ENDBRANCH   1  23
TORSDOF 3
ENDMDL
MODEL 9
REMARK VINA RESULT:      -8.0      3.423      9.748
REMARK  Name = 
REMARK  4 active torsions:
REMARK  status: ('A' for Active; 'I' for Inactive)
REMARK    1  A    between atoms: C_1  and  C_2
REMARK    2  A    between atoms: C_2  and  N_3
REMARK    3  A    between atoms: C_8  and  C_9
REMARK    4  A    between atoms: C_12  and  C_13
REMARK                            x       y       z     vdW  Elec       q    Type
REMARK                         _______ _______ _______ _____ _____    ______ ____
ROOT
ATOM      1  C   UNL     1       0.540  10.110  19.378  0.00  0.00    +0.000 A 
ATOM      2  C   UNL     1       0.763   9.790  18.043  0.00  0.00    +0.000 A 
ATOM      3  C   UNL     1       1.507   8.657  17.711  0.00  0.00    +0.000 A 
ATOM      4  C   UNL     1       2.098   7.838  18.695  0.00  0.00    +0.000 A 
ATOM      5  C   UNL     1       1.772   8.107  20.030  0.00  0.00    +0.000 A 
ATOM      6  C   UNL     1       1.004   9.238  20.368  0.00  0.00    +0.000 A 
ENDROOT
BRANCH   4   7
ATOM      7  C   UNL     1       3.059   6.776  18.291  0.00  0.00    +0.000 A 
ATOM      8  C   UNL     1       2.908   5.536  18.783  0.00  0.00    +0.000 A 
ATOM      9  C   UNL     1       3.945   4.541  18.530  0.00  0.00    +0.000 A 
ATOM     10  O   UNL     1       4.090   3.571  19.256  0.00  0.00    +0.000 OA
ATOM     11  C   UNL     1       4.733   4.773  17.329  0.00  0.00    +0.000 A 
ATOM     12  C   UNL     1       5.354   3.689  16.703  0.00  0.00    +0.000 A 
ATOM     13  C   UNL     1       5.931   3.875  15.454  0.00  0.00    +0.000 A 
ATOM     14  C   UNL     1       5.915   5.143  14.866  0.00  0.00    +0.000 A 
ATOM     15  C   UNL     1       5.336   6.238  15.529  0.00  0.00    +0.000 A 
ATOM     16  C   UNL     1       4.719   6.049  16.764  0.00  0.00    +0.000 A 
ATOM     17  O   UNL     1       4.058   7.108  17.367  0.00  0.00    +0.000 OA
ENDBRANCH   4   7
BRANCH   1  23
ATOM     18  N   UNL     1       0.406  14.947  19.597  0.00  0.00    +0.000 N 
ATOM     19  C   UNL     1       1.551  14.735  18.880  0.00  0.00    +0.000 C 
ATOM     20  O   UNL     1       2.324  15.577  18.471  0.00  0.00    +0.000 OA
ATOM     21  S   UNL     1       1.800  13.013  18.624  0.00  0.00    +0.000 S 
ATOM     22  C   UNL     1       0.343  12.601  19.436  0.00  0.00    +0.000 C 
ATOM     23  C   UNL     1      -0.129  11.374  19.692  0.00  0.00    +0.000 C 
ATOM     24  C   UNL     1      -0.351  13.842  19.912  0.00  0.00    +0.000 C 
ATOM     25  O   UNL     1      -1.424  13.831  20.497  0.00  0.00    +0.000 OA
BRANCH  18  27
ATOM     26  C   UNL     1      -0.869  16.980  18.997  0.00  0.00    +0.000 C 
ATOM     27  C   UNL     1       0.020  16.274  20.013  0.00  0.00    +0.000 C 
ENDBRANCH  18  27
ENDBRANCH   1  23
TORSDOF 3
ENDMDL
