MODEL 1
REMARK VINA RESULT:      -6.8      0.000      0.000
REMARK  Name = 
REMARK  23 active torsions:
REMARK  status: ('A' for Active; 'I' for Inactive)
REMARK    1  A    between atoms: C_1  and  C_2
REMARK    2  A    between atoms: C_2  and  C_3
REMARK    3  A    between atoms: C_3  and  C_4
REMARK    4  A    between atoms: C_4  and  C_5
REMARK    5  A    between atoms: C_5  and  C_6
REMARK    6  A    between atoms: C_6  and  C_7
REMARK    7  A    between atoms: C_7  and  C_8
REMARK    8  A    between atoms: C_8  and  C_9
REMARK    9  A    between atoms: C_9  and  C_10
REMARK   10  A    between atoms: C_10  and  C_11
REMARK   11  A    between atoms: C_11  and  C_12
REMARK   12  A    between atoms: C_12  and  C_13
REMARK   13  A    between atoms: C_12  and  O_25
REMARK   14  A    between atoms: C_13  and  C_14
REMARK   15  A    between atoms: C_18  and  C_19
REMARK   16  A    between atoms: C_19  and  C_20
REMARK   17  A    between atoms: C_20  and  C_21
REMARK   18  A    between atoms: C_21  and  C_22
REMARK   19  A    between atoms: C_22  and  C_23
REMARK   20  A    between atoms: C_23  and  C_24
REMARK   21  A    between atoms: O_25  and  C_26
REMARK   22  A    between atoms: C_26  and  C_28
REMARK   23  A    between atoms: C_28  and  N_29
REMARK                            x       y       z     vdW  Elec       q    Type
REMARK                         _______ _______ _______ _____ _____    ______ ____
ROOT
ATOM      1  C   UNL     1       3.274   5.832  17.767  0.00  0.00    +0.000 C 
ENDROOT
BRANCH   1   2
ATOM      2  C   UNL     1       4.165   5.191  18.845  0.00  0.00    +0.000 C 
BRANCH   2   3
ATOM      3  C   UNL     1       5.561   4.801  18.334  0.00  0.00    +0.000 C 
ATOM      4  N   UNL     1       6.640   4.975  19.319  0.00  0.00    +0.000 N 
ATOM      5  C   UNL     1       7.286   5.949  18.628  0.00  0.00    +0.000 C 
ATOM      6  O   UNL     1       8.219   6.638  18.960  0.00  0.00    +0.000 OA
ATOM      7  C   UNL     1       6.290   5.883  17.468  0.00  0.00    +0.000 C 
ATOM      8  H   UNL     1       6.559   5.142  20.312  0.00  0.00    +0.000 HD
BRANCH   7   9
ATOM      9  C   UNL     1       6.900   5.565  16.109  0.00  0.00    +0.000 C 
BRANCH   9  10
ATOM     10  C   UNL     1       5.797   5.399  15.064  0.00  0.00    +0.000 C 
BRANCH  10  11
ATOM     11  C   UNL     1       5.776   3.988  14.473  0.00  0.00    +0.000 C 
BRANCH  11  12
ATOM     12  C   UNL     1       6.490   3.944  13.120  0.00  0.00    +0.000 C 
BRANCH  12  13
ATOM     13  C   UNL     1       5.809   2.964  12.164  0.00  0.00    +0.000 C 
ATOM     14  C   UNL     1       4.439   3.460  11.731  0.00  0.00    +0.000 C 
ENDBRANCH  12  13
ENDBRANCH  11  12
ENDBRANCH  10  11
ENDBRANCH   9  10
ENDBRANCH   7   9
ENDBRANCH   2   3
ENDBRANCH   1   2
BRANCH   1  15
ATOM     15  O   UNL     1       1.972   5.199  17.903  0.00  0.00    +0.000 OA
BRANCH  15  16
ATOM     16  C   UNL     1       1.875   4.036  18.600  0.00  0.00    +0.000 C 
ATOM     17  O   UNL     1       2.261   2.940  18.214  0.00  0.00    +0.000 OA
BRANCH  16  18
ATOM     18  C   UNL     1       1.155   4.277  19.922  0.00  0.00    +0.000 C 
BRANCH  18  19
ATOM     19  N   UNL     1       0.862   3.022  20.579  0.00  0.00    +0.000 N 
ATOM     20  C   UNL     1       1.558   2.640  21.692  0.00  0.00    +0.000 C 
ATOM     21  O   UNL     1       2.497   3.240  22.183  0.00  0.00    +0.000 OA
ATOM     22  H   UNL     1      -0.003   2.545  20.351  0.00  0.00    +0.000 HD
ENDBRANCH  18  19
ENDBRANCH  16  18
ENDBRANCH  15  16
ENDBRANCH   1  15
BRANCH   1  23
ATOM     23  C   UNL     1       3.023   7.340  17.989  0.00  0.00    +0.000 C 
BRANCH  23  24
ATOM     24  C   UNL     1       1.928   7.769  18.970  0.00  0.00    +0.000 C 
BRANCH  24  25
ATOM     25  C   UNL     1       1.510   9.243  18.948  0.00  0.00    +0.000 C 
BRANCH  25  26
ATOM     26  C   UNL     1       0.551   9.493  20.125  0.00  0.00    +0.000 C 
BRANCH  26  27
ATOM     27  C   UNL     1      -0.606  10.426  19.786  0.00  0.00    +0.000 C 
BRANCH  27  28
ATOM     28  C   UNL     1      -0.351  11.157  18.461  0.00  0.00    +0.000 C 
BRANCH  28  29
ATOM     29  C   UNL     1      -1.620  11.870  18.004  0.00  0.00    +0.000 C 
BRANCH  29  30
ATOM     30  C   UNL     1      -2.893  11.074  18.288  0.00  0.00    +0.000 C 
BRANCH  30  31
ATOM     31  C   UNL     1      -3.790  11.096  17.047  0.00  0.00    +0.000 C 
BRANCH  31  33
ATOM     32  C   UNL     1      -2.794   9.763  15.178  0.00  0.00    +0.000 C 
ATOM     33  C   UNL     1      -2.993  11.158  15.750  0.00  0.00    +0.000 C 
ENDBRANCH  31  33
ENDBRANCH  30  31
ENDBRANCH  29  30
ENDBRANCH  28  29
ENDBRANCH  27  28
ENDBRANCH  26  27
ENDBRANCH  25  26
ENDBRANCH  24  25
ENDBRANCH  23  24
ENDBRANCH   1  23
TORSDOF 21
ENDMDL
MODEL 2
REMARK VINA RESULT:      -6.8      3.726      8.522
REMARK  Name = 
REMARK  23 active torsions:
REMARK  status: ('A' for Active; 'I' for Inactive)
REMARK    1  A    between atoms: C_1  and  C_2
REMARK    2  A    between atoms: C_2  and  C_3
REMARK    3  A    between atoms: C_3  and  C_4
REMARK    4  A    between atoms: C_4  and  C_5
REMARK    5  A    between atoms: C_5  and  C_6
REMARK    6  A    between atoms: C_6  and  C_7
REMARK    7  A    between atoms: C_7  and  C_8
REMARK    8  A    between atoms: C_8  and  C_9
REMARK    9  A    between atoms: C_9  and  C_10
REMARK   10  A    between atoms: C_10  and  C_11
REMARK   11  A    between atoms: C_11  and  C_12
REMARK   12  A    between atoms: C_12  and  C_13
REMARK   13  A    between atoms: C_12  and  O_25
REMARK   14  A    between atoms: C_13  and  C_14
REMARK   15  A    between atoms: C_18  and  C_19
REMARK   16  A    between atoms: C_19  and  C_20
REMARK   17  A    between atoms: C_20  and  C_21
REMARK   18  A    between atoms: C_21  and  C_22
REMARK   19  A    between atoms: C_22  and  C_23
REMARK   20  A    between atoms: C_23  and  C_24
REMARK   21  A    between atoms: O_25  and  C_26
REMARK   22  A    between atoms: C_26  and  C_28
REMARK   23  A    between atoms: C_28  and  N_29
REMARK                            x       y       z     vdW  Elec       q    Type
REMARK                         _______ _______ _______ _____ _____    ______ ____
ROOT
ATOM      1  C   UNL     1       5.625   4.052  18.008  0.00  0.00    +0.000 C 
ENDROOT
BRANCH   1   2
ATOM      2  C   UNL     1       4.264   3.433  18.370  0.00  0.00    +0.000 C 
BRANCH   2   3
ATOM      3  C   UNL     1       3.835   3.701  19.821  0.00  0.00    +0.000 C 
ATOM      4  N   UNL     1       3.258   2.535  20.510  0.00  0.00    +0.000 N 
ATOM      5  C   UNL     1       2.018   3.071  20.649  0.00  0.00    +0.000 C 
ATOM      6  O   UNL     1       0.997   2.559  21.037  0.00  0.00    +0.000 OA
ATOM      7  C   UNL     1       2.441   4.391  19.998  0.00  0.00    +0.000 C 
ATOM      8  H   UNL     1       3.271   1.567  20.220  0.00  0.00    +0.000 HD
BRANCH   7   9
ATOM      9  C   UNL     1       2.247   5.629  20.863  0.00  0.00    +0.000 C 
BRANCH   9  10
ATOM     10  C   UNL     1       2.061   6.864  19.979  0.00  0.00    +0.000 C 
BRANCH  10  11
ATOM     11  C   UNL     1       2.492   6.602  18.534  0.00  0.00    +0.000 C 
BRANCH  11  12
ATOM     12  C   UNL     1       2.829   7.910  17.813  0.00  0.00    +0.000 C 
BRANCH  12  13
ATOM     13  C   UNL     1       1.599   8.809  17.689  0.00  0.00    +0.000 C 
ATOM     14  C   UNL     1       1.873  10.212  18.210  0.00  0.00    +0.000 C 
ENDBRANCH  12  13
ENDBRANCH  11  12
ENDBRANCH  10  11
ENDBRANCH   9  10
ENDBRANCH   7   9
ENDBRANCH   2   3
ENDBRANCH   1   2
BRANCH   1  15
ATOM     15  O   UNL     1       5.526   4.433  16.608  0.00  0.00    +0.000 OA
BRANCH  15  16
ATOM     16  C   UNL     1       6.667   4.587  15.887  0.00  0.00    +0.000 C 
ATOM     17  O   UNL     1       7.787   4.246  16.244  0.00  0.00    +0.000 OA
BRANCH  16  18
ATOM     18  C   UNL     1       6.364   5.310  14.579  0.00  0.00    +0.000 C 
BRANCH  18  19
ATOM     19  N   UNL     1       7.191   4.795  13.509  0.00  0.00    +0.000 N 
ATOM     20  C   UNL     1       6.708   3.845  12.652  0.00  0.00    +0.000 C 
ATOM     21  O   UNL     1       5.621   3.303  12.732  0.00  0.00    +0.000 OA
ATOM     22  H   UNL     1       8.033   5.302  13.259  0.00  0.00    +0.000 HD
ENDBRANCH  18  19
ENDBRANCH  16  18
ENDBRANCH  15  16
ENDBRANCH   1  15
BRANCH   1  23
ATOM     23  C   UNL     1       5.928   5.362  18.770  0.00  0.00    +0.000 C 
BRANCH  23  24
ATOM     24  C   UNL     1       7.292   5.524  19.446  0.00  0.00    +0.000 C 
BRANCH  24  25
ATOM     25  C   UNL     1       8.187   6.663  18.950  0.00  0.00    +0.000 C 
BRANCH  25  26
ATOM     26  C   UNL     1       7.467   7.378  17.794  0.00  0.00    +0.000 C 
BRANCH  26  27
ATOM     27  C   UNL     1       8.027   8.763  17.486  0.00  0.00    +0.000 C 
BRANCH  27  28
ATOM     28  C   UNL     1       8.806   9.319  18.685  0.00  0.00    +0.000 C 
BRANCH  28  29
ATOM     29  C   UNL     1       8.964  10.831  18.551  0.00  0.00    +0.000 C 
BRANCH  29  30
ATOM     30  C   UNL     1      10.261  11.357  19.164  0.00  0.00    +0.000 C 
BRANCH  30  31
ATOM     31  C   UNL     1      11.270  11.633  18.047  0.00  0.00    +0.000 C 
BRANCH  31  33
ATOM     32  C   UNL     1      12.333  13.384  16.608  0.00  0.00    +0.000 C 
ATOM     33  C   UNL     1      11.117  13.027  17.450  0.00  0.00    +0.000 C 
ENDBRANCH  31  33
ENDBRANCH  30  31
ENDBRANCH  29  30
ENDBRANCH  28  29
ENDBRANCH  27  28
ENDBRANCH  26  27
ENDBRANCH  25  26
ENDBRANCH  24  25
ENDBRANCH  23  24
ENDBRANCH   1  23
TORSDOF 21
ENDMDL
MODEL 3
REMARK VINA RESULT:      -6.7      1.504      2.587
REMARK  Name = 
REMARK  23 active torsions:
REMARK  status: ('A' for Active; 'I' for Inactive)
REMARK    1  A    between atoms: C_1  and  C_2
REMARK    2  A    between atoms: C_2  and  C_3
REMARK    3  A    between atoms: C_3  and  C_4
REMARK    4  A    between atoms: C_4  and  C_5
REMARK    5  A    between atoms: C_5  and  C_6
REMARK    6  A    between atoms: C_6  and  C_7
REMARK    7  A    between atoms: C_7  and  C_8
REMARK    8  A    between atoms: C_8  and  C_9
REMARK    9  A    between atoms: C_9  and  C_10
REMARK   10  A    between atoms: C_10  and  C_11
REMARK   11  A    between atoms: C_11  and  C_12
REMARK   12  A    between atoms: C_12  and  C_13
REMARK   13  A    between atoms: C_12  and  O_25
REMARK   14  A    between atoms: C_13  and  C_14
REMARK   15  A    between atoms: C_18  and  C_19
REMARK   16  A    between atoms: C_19  and  C_20
REMARK   17  A    between atoms: C_20  and  C_21
REMARK   18  A    between atoms: C_21  and  C_22
REMARK   19  A    between atoms: C_22  and  C_23
REMARK   20  A    between atoms: C_23  and  C_24
REMARK   21  A    between atoms: O_25  and  C_26
REMARK   22  A    between atoms: C_26  and  C_28
REMARK   23  A    between atoms: C_28  and  N_29
REMARK                            x       y       z     vdW  Elec       q    Type
REMARK                         _______ _______ _______ _____ _____    ______ ____
ROOT
ATOM      1  C   UNL     1       4.844   3.906  18.662  0.00  0.00    +0.000 C 
ENDROOT
BRANCH   1   2
ATOM      2  C   UNL     1       5.861   4.925  19.203  0.00  0.00    +0.000 C 
BRANCH   2   3
ATOM      3  C   UNL     1       7.067   5.138  18.274  0.00  0.00    +0.000 C 
ATOM      4  N   UNL     1       7.830   6.368  18.539  0.00  0.00    +0.000 N 
ATOM      5  C   UNL     1       7.538   6.957  17.351  0.00  0.00    +0.000 C 
ATOM      6  O   UNL     1       7.764   8.080  16.972  0.00  0.00    +0.000 OA
ATOM      7  C   UNL     1       6.739   5.744  16.868  0.00  0.00    +0.000 C 
ATOM      8  H   UNL     1       7.771   6.980  19.341  0.00  0.00    +0.000 HD
BRANCH   7   9
ATOM      9  C   UNL     1       7.236   5.117  15.572  0.00  0.00    +0.000 C 
BRANCH   9  10
ATOM     10  C   UNL     1       6.361   3.920  15.197  0.00  0.00    +0.000 C 
BRANCH  10  11
ATOM     11  C   UNL     1       5.680   4.113  13.840  0.00  0.00    +0.000 C 
BRANCH  11  12
ATOM     12  C   UNL     1       6.593   3.664  12.696  0.00  0.00    +0.000 C 
BRANCH  12  13
ATOM     13  C   UNL     1       5.791   3.024  11.563  0.00  0.00    +0.000 C 
ATOM     14  C   UNL     1       4.298   3.267  11.724  0.00  0.00    +0.000 C 
ENDBRANCH  12  13
ENDBRANCH  11  12
ENDBRANCH  10  11
ENDBRANCH   9  10
ENDBRANCH   7   9
ENDBRANCH   2   3
ENDBRANCH   1   2
BRANCH   1  15
ATOM     15  O   UNL     1       3.901   3.677  19.746  0.00  0.00    +0.000 OA
BRANCH  15  16
ATOM     16  C   UNL     1       4.050   2.573  20.524  0.00  0.00    +0.000 C 
ATOM     17  O   UNL     1       4.988   1.788  20.475  0.00  0.00    +0.000 OA
BRANCH  16  18
ATOM     18  C   UNL     1       2.840   2.410  21.437  0.00  0.00    +0.000 C 
BRANCH  18  19
ATOM     19  N   UNL     1       1.647   2.148  20.661  0.00  0.00    +0.000 N 
ATOM     20  C   UNL     1       0.763   3.152  20.383  0.00  0.00    +0.000 C 
ATOM     21  O   UNL     1       0.834   4.295  20.795  0.00  0.00    +0.000 OA
ATOM     22  H   UNL     1       1.591   1.282  20.136  0.00  0.00    +0.000 HD
ENDBRANCH  18  19
ENDBRANCH  16  18
ENDBRANCH  15  16
ENDBRANCH   1  15
BRANCH   1  23
ATOM     23  C   UNL     1       3.996   4.444  17.487  0.00  0.00    +0.000 C 
BRANCH  23  24
ATOM     24  C   UNL     1       2.502   4.696  17.710  0.00  0.00    +0.000 C 
BRANCH  24  25
ATOM     25  C   UNL     1       2.084   6.119  18.095  0.00  0.00    +0.000 C 
BRANCH  25  26
ATOM     26  C   UNL     1       3.240   7.075  17.753  0.00  0.00    +0.000 C 
BRANCH  26  27
ATOM     27  C   UNL     1       2.830   8.542  17.710  0.00  0.00    +0.000 C 
BRANCH  27  28
ATOM     28  C   UNL     1       1.631   8.805  18.631  0.00  0.00    +0.000 C 
BRANCH  28  29
ATOM     29  C   UNL     1       0.929  10.097  18.222  0.00  0.00    +0.000 C 
BRANCH  29  30
ATOM     30  C   UNL     1      -0.502  10.196  18.748  0.00  0.00    +0.000 C 
BRANCH  30  31
ATOM     31  C   UNL     1      -1.479  10.100  17.573  0.00  0.00    +0.000 C 
BRANCH  31  33
ATOM     32  C   UNL     1      -2.487  11.960  18.910  0.00  0.00    +0.000 C 
ATOM     33  C   UNL     1      -2.525  11.209  17.589  0.00  0.00    +0.000 C 
ENDBRANCH  31  33
ENDBRANCH  30  31
ENDBRANCH  29  30
ENDBRANCH  28  29
ENDBRANCH  27  28
ENDBRANCH  26  27
ENDBRANCH  25  26
ENDBRANCH  24  25
ENDBRANCH  23  24
ENDBRANCH   1  23
TORSDOF 21
ENDMDL
MODEL 4
REMARK VINA RESULT:      -6.7      4.991      8.771
REMARK  Name = 
REMARK  23 active torsions:
REMARK  status: ('A' for Active; 'I' for Inactive)
REMARK    1  A    between atoms: C_1  and  C_2
REMARK    2  A    between atoms: C_2  and  C_3
REMARK    3  A    between atoms: C_3  and  C_4
REMARK    4  A    between atoms: C_4  and  C_5
REMARK    5  A    between atoms: C_5  and  C_6
REMARK    6  A    between atoms: C_6  and  C_7
REMARK    7  A    between atoms: C_7  and  C_8
REMARK    8  A    between atoms: C_8  and  C_9
REMARK    9  A    between atoms: C_9  and  C_10
REMARK   10  A    between atoms: C_10  and  C_11
REMARK   11  A    between atoms: C_11  and  C_12
REMARK   12  A    between atoms: C_12  and  C_13
REMARK   13  A    between atoms: C_12  and  O_25
REMARK   14  A    between atoms: C_13  and  C_14
REMARK   15  A    between atoms: C_18  and  C_19
REMARK   16  A    between atoms: C_19  and  C_20
REMARK   17  A    between atoms: C_20  and  C_21
REMARK   18  A    between atoms: C_21  and  C_22
REMARK   19  A    between atoms: C_22  and  C_23
REMARK   20  A    between atoms: C_23  and  C_24
REMARK   21  A    between atoms: O_25  and  C_26
REMARK   22  A    between atoms: C_26  and  C_28
REMARK   23  A    between atoms: C_28  and  N_29
REMARK                            x       y       z     vdW  Elec       q    Type
REMARK                         _______ _______ _______ _____ _____    ______ ____
ROOT
ATOM      1  C   UNL     1       7.316   6.145  16.941  0.00  0.00    +0.000 C 
ENDROOT
BRANCH   1   2
ATOM      2  C   UNL     1       7.066   5.069  18.012  0.00  0.00    +0.000 C 
BRANCH   2   3
ATOM      3  C   UNL     1       5.638   4.502  17.987  0.00  0.00    +0.000 C 
ATOM      4  N   UNL     1       4.579   5.523  17.948  0.00  0.00    +0.000 N 
ATOM      5  C   UNL     1       4.065   5.220  19.168  0.00  0.00    +0.000 C 
ATOM      6  O   UNL     1       3.222   5.794  19.812  0.00  0.00    +0.000 OA
ATOM      7  C   UNL     1       5.057   4.073  19.377  0.00  0.00    +0.000 C 
ATOM      8  H   UNL     1       4.669   6.512  17.761  0.00  0.00    +0.000 HD
BRANCH   7   9
ATOM      9  C   UNL     1       4.426   2.707  19.611  0.00  0.00    +0.000 C 
BRANCH   9  10
ATOM     10  C   UNL     1       3.473   2.366  18.464  0.00  0.00    +0.000 C 
BRANCH  10  11
ATOM     11  C   UNL     1       2.102   1.916  18.975  0.00  0.00    +0.000 C 
BRANCH  11  12
ATOM     12  C   UNL     1       1.078   3.049  18.880  0.00  0.00    +0.000 C 
BRANCH  12  13
ATOM     13  C   UNL     1       0.757   3.625  20.259  0.00  0.00    +0.000 C 
ATOM     14  C   UNL     1       1.303   2.749  21.376  0.00  0.00    +0.000 C 
ENDBRANCH  12  13
ENDBRANCH  11  12
ENDBRANCH  10  11
ENDBRANCH   9  10
ENDBRANCH   7   9
ENDBRANCH   2   3
ENDBRANCH   1   2
BRANCH   1  15
ATOM     15  O   UNL     1       6.407   5.835  15.849  0.00  0.00    +0.000 OA
BRANCH  15  16
ATOM     16  C   UNL     1       6.887   5.182  14.759  0.00  0.00    +0.000 C 
ATOM     17  O   UNL     1       7.882   5.499  14.120  0.00  0.00    +0.000 OA
BRANCH  16  18
ATOM     18  C   UNL     1       5.967   4.022  14.397  0.00  0.00    +0.000 C 
BRANCH  18  19
ATOM     19  N   UNL     1       6.469   3.315  13.238  0.00  0.00    +0.000 N 
ATOM     20  C   UNL     1       5.692   3.166  12.123  0.00  0.00    +0.000 C 
ATOM     21  O   UNL     1       4.534   3.522  12.012  0.00  0.00    +0.000 OA
ATOM     22  H   UNL     1       7.465   3.138  13.172  0.00  0.00    +0.000 HD
ENDBRANCH  18  19
ENDBRANCH  16  18
ENDBRANCH  15  16
ENDBRANCH   1  15
BRANCH   1  23
ATOM     23  C   UNL     1       6.937   7.572  17.399  0.00  0.00    +0.000 C 
BRANCH  23  24
ATOM     24  C   UNL     1       8.051   8.603  17.596  0.00  0.00    +0.000 C 
BRANCH  24  25
ATOM     25  C   UNL     1       8.735   8.639  18.967  0.00  0.00    +0.000 C 
BRANCH  25  26
ATOM     26  C   UNL     1       9.227  10.072  19.228  0.00  0.00    +0.000 C 
BRANCH  26  27
ATOM     27  C   UNL     1       9.225  10.957  17.986  0.00  0.00    +0.000 C 
BRANCH  27  28
ATOM     28  C   UNL     1      10.602  11.595  17.764  0.00  0.00    +0.000 C 
BRANCH  28  29
ATOM     29  C   UNL     1      10.444  13.063  17.377  0.00  0.00    +0.000 C 
BRANCH  29  30
ATOM     30  C   UNL     1      11.691  13.650  16.719  0.00  0.00    +0.000 C 
BRANCH  30  31
ATOM     31  C   UNL     1      11.914  15.072  17.240  0.00  0.00    +0.000 C 
BRANCH  31  33
ATOM     32  C   UNL     1      10.224  16.811  17.859  0.00  0.00    +0.000 C 
ATOM     33  C   UNL     1      10.880  16.059  16.711  0.00  0.00    +0.000 C 
ENDBRANCH  31  33
ENDBRANCH  30  31
ENDBRANCH  29  30
ENDBRANCH  28  29
ENDBRANCH  27  28
ENDBRANCH  26  27
ENDBRANCH  25  26
ENDBRANCH  24  25
ENDBRANCH  23  24
ENDBRANCH   1  23
TORSDOF 21
ENDMDL
MODEL 5
REMARK VINA RESULT:      -6.6      2.102      3.148
REMARK  Name = 
REMARK  23 active torsions:
REMARK  status: ('A' for Active; 'I' for Inactive)
REMARK    1  A    between atoms: C_1  and  C_2
REMARK    2  A    between atoms: C_2  and  C_3
REMARK    3  A    between atoms: C_3  and  C_4
REMARK    4  A    between atoms: C_4  and  C_5
REMARK    5  A    between atoms: C_5  and  C_6
REMARK    6  A    between atoms: C_6  and  C_7
REMARK    7  A    between atoms: C_7  and  C_8
REMARK    8  A    between atoms: C_8  and  C_9
REMARK    9  A    between atoms: C_9  and  C_10
REMARK   10  A    between atoms: C_10  and  C_11
REMARK   11  A    between atoms: C_11  and  C_12
REMARK   12  A    between atoms: C_12  and  C_13
REMARK   13  A    between atoms: C_12  and  O_25
REMARK   14  A    between atoms: C_13  and  C_14
REMARK   15  A    between atoms: C_18  and  C_19
REMARK   16  A    between atoms: C_19  and  C_20
REMARK   17  A    between atoms: C_20  and  C_21
REMARK   18  A    between atoms: C_21  and  C_22
REMARK   19  A    between atoms: C_22  and  C_23
REMARK   20  A    between atoms: C_23  and  C_24
REMARK   21  A    between atoms: O_25  and  C_26
REMARK   22  A    between atoms: C_26  and  C_28
REMARK   23  A    between atoms: C_28  and  N_29
REMARK                            x       y       z     vdW  Elec       q    Type
REMARK                         _______ _______ _______ _____ _____    ______ ____
ROOT
ATOM      1  C   UNL     1       4.646   4.124  18.781  0.00  0.00    +0.000 C 
ENDROOT
BRANCH   1   2
ATOM      2  C   UNL     1       5.675   5.158  19.269  0.00  0.00    +0.000 C 
BRANCH   2   3
ATOM      3  C   UNL     1       6.908   5.271  18.358  0.00  0.00    +0.000 C 
ATOM      4  N   UNL     1       7.778   6.421  18.652  0.00  0.00    +0.000 N 
ATOM      5  C   UNL     1       7.558   7.052  17.470  0.00  0.00    +0.000 C 
ATOM      6  O   UNL     1       7.893   8.155  17.112  0.00  0.00    +0.000 OA
ATOM      7  C   UNL     1       6.657   5.926  16.958  0.00  0.00    +0.000 C 
ATOM      8  H   UNL     1       7.766   7.024  19.463  0.00  0.00    +0.000 HD
BRANCH   7   9
ATOM      9  C   UNL     1       7.112   5.275  15.659  0.00  0.00    +0.000 C 
BRANCH   9  10
ATOM     10  C   UNL     1       5.925   5.115  14.707  0.00  0.00    +0.000 C 
BRANCH  10  11
ATOM     11  C   UNL     1       6.037   3.845  13.861  0.00  0.00    +0.000 C 
BRANCH  11  12
ATOM     12  C   UNL     1       6.940   4.069  12.646  0.00  0.00    +0.000 C 
BRANCH  12  13
ATOM     13  C   UNL     1       6.463   3.257  11.442  0.00  0.00    +0.000 C 
ATOM     14  C   UNL     1       5.093   2.643  11.684  0.00  0.00    +0.000 C 
ENDBRANCH  12  13
ENDBRANCH  11  12
ENDBRANCH  10  11
ENDBRANCH   9  10
ENDBRANCH   7   9
ENDBRANCH   2   3
ENDBRANCH   1   2
BRANCH   1  15
ATOM     15  O   UNL     1       3.867   3.760  19.954  0.00  0.00    +0.000 OA
BRANCH  15  16
ATOM     16  C   UNL     1       3.847   2.462  20.354  0.00  0.00    +0.000 C 
ATOM     17  O   UNL     1       4.828   1.740  20.477  0.00  0.00    +0.000 OA
BRANCH  16  18
ATOM     18  C   UNL     1       2.410   2.003  20.571  0.00  0.00    +0.000 C 
BRANCH  18  19
ATOM     19  N   UNL     1       1.486   3.091  20.335  0.00  0.00    +0.000 N 
ATOM     20  C   UNL     1       0.626   3.057  19.273  0.00  0.00    +0.000 C 
ATOM     21  O   UNL     1       0.593   2.196  18.414  0.00  0.00    +0.000 OA
ATOM     22  H   UNL     1       1.322   3.757  21.082  0.00  0.00    +0.000 HD
ENDBRANCH  18  19
ENDBRANCH  16  18
ENDBRANCH  15  16
ENDBRANCH   1  15
BRANCH   1  23
ATOM     23  C   UNL     1       3.627   4.697  17.771  0.00  0.00    +0.000 C 
BRANCH  23  24
ATOM     24  C   UNL     1       3.414   6.212  17.717  0.00  0.00    +0.000 C 
BRANCH  24  25
ATOM     25  C   UNL     1       2.081   6.749  18.248  0.00  0.00    +0.000 C 
BRANCH  25  26
ATOM     26  C   UNL     1       2.304   8.181  18.762  0.00  0.00    +0.000 C 
BRANCH  26  27
ATOM     27  C   UNL     1       1.866   9.261  17.779  0.00  0.00    +0.000 C 
BRANCH  27  28
ATOM     28  C   UNL     1       0.554   9.916  18.230  0.00  0.00    +0.000 C 
BRANCH  28  29
ATOM     29  C   UNL     1       0.838  11.001  19.264  0.00  0.00    +0.000 C 
BRANCH  29  30
ATOM     30  C   UNL     1       0.226  10.703  20.632  0.00  0.00    +0.000 C 
BRANCH  30  31
ATOM     31  C   UNL     1      -0.359   9.289  20.626  0.00  0.00    +0.000 C 
BRANCH  31  33
ATOM     32  C   UNL     1       0.102   9.639  23.061  0.00  0.00    +0.000 C 
ATOM     33  C   UNL     1      -0.535   8.721  22.029  0.00  0.00    +0.000 C 
ENDBRANCH  31  33
ENDBRANCH  30  31
ENDBRANCH  29  30
ENDBRANCH  28  29
ENDBRANCH  27  28
ENDBRANCH  26  27
ENDBRANCH  25  26
ENDBRANCH  24  25
ENDBRANCH  23  24
ENDBRANCH   1  23
TORSDOF 21
ENDMDL
MODEL 6
REMARK VINA RESULT:      -6.6      1.600      2.468
REMARK  Name = 
REMARK  23 active torsions:
REMARK  status: ('A' for Active; 'I' for Inactive)
REMARK    1  A    between atoms: C_1  and  C_2
REMARK    2  A    between atoms: C_2  and  C_3
REMARK    3  A    between atoms: C_3  and  C_4
REMARK    4  A    between atoms: C_4  and  C_5
REMARK    5  A    between atoms: C_5  and  C_6
REMARK    6  A    between atoms: C_6  and  C_7
REMARK    7  A    between atoms: C_7  and  C_8
REMARK    8  A    between atoms: C_8  and  C_9
REMARK    9  A    between atoms: C_9  and  C_10
REMARK   10  A    between atoms: C_10  and  C_11
REMARK   11  A    between atoms: C_11  and  C_12
REMARK   12  A    between atoms: C_12  and  C_13
REMARK   13  A    between atoms: C_12  and  O_25
REMARK   14  A    between atoms: C_13  and  C_14
REMARK   15  A    between atoms: C_18  and  C_19
REMARK   16  A    between atoms: C_19  and  C_20
REMARK   17  A    between atoms: C_20  and  C_21
REMARK   18  A    between atoms: C_21  and  C_22
REMARK   19  A    between atoms: C_22  and  C_23
REMARK   20  A    between atoms: C_23  and  C_24
REMARK   21  A    between atoms: O_25  and  C_26
REMARK   22  A    between atoms: C_26  and  C_28
REMARK   23  A    between atoms: C_28  and  N_29
REMARK                            x       y       z     vdW  Elec       q    Type
REMARK                         _______ _______ _______ _____ _____    ______ ____
ROOT
ATOM      1  C   UNL     1       2.990   6.244  17.916  0.00  0.00    +0.000 C 
ENDROOT
BRANCH   1   2
ATOM      2  C   UNL     1       4.476   6.556  18.162  0.00  0.00    +0.000 C 
BRANCH   2   3
ATOM      3  C   UNL     1       5.367   5.304  18.203  0.00  0.00    +0.000 C 
ATOM      4  N   UNL     1       6.052   5.087  19.488  0.00  0.00    +0.000 N 
ATOM      5  C   UNL     1       7.304   5.262  18.994  0.00  0.00    +0.000 C 
ATOM      6  O   UNL     1       8.357   5.340  19.578  0.00  0.00    +0.000 OA
ATOM      7  C   UNL     1       6.788   5.464  17.567  0.00  0.00    +0.000 C 
ATOM      8  H   UNL     1       5.878   5.541  20.374  0.00  0.00    +0.000 HD
BRANCH   7   9
ATOM      9  C   UNL     1       7.337   4.486  16.537  0.00  0.00    +0.000 C 
BRANCH   9  10
ATOM     10  C   UNL     1       6.906   4.907  15.131  0.00  0.00    +0.000 C 
BRANCH  10  11
ATOM     11  C   UNL     1       6.151   3.790  14.406  0.00  0.00    +0.000 C 
BRANCH  11  12
ATOM     12  C   UNL     1       6.523   3.745  12.922  0.00  0.00    +0.000 C 
BRANCH  12  13
ATOM     13  C   UNL     1       5.350   3.261  12.069  0.00  0.00    +0.000 C 
ATOM     14  C   UNL     1       5.689   1.982  11.320  0.00  0.00    +0.000 C 
ENDBRANCH  12  13
ENDBRANCH  11  12
ENDBRANCH  10  11
ENDBRANCH   9  10
ENDBRANCH   7   9
ENDBRANCH   2   3
ENDBRANCH   1   2
BRANCH   1  15
ATOM     15  O   UNL     1       2.653   5.177  18.845  0.00  0.00    +0.000 OA
BRANCH  15  16
ATOM     16  C   UNL     1       1.980   4.090  18.382  0.00  0.00    +0.000 C 
ATOM     17  O   UNL     1       1.109   4.105  17.522  0.00  0.00    +0.000 OA
BRANCH  16  18
ATOM     18  C   UNL     1       2.424   2.841  19.135  0.00  0.00    +0.000 C 
BRANCH  18  19
ATOM     19  N   UNL     1       1.401   2.416  20.065  0.00  0.00    +0.000 N 
ATOM     20  C   UNL     1       1.355   2.930  21.331  0.00  0.00    +0.000 C 
ATOM     21  O   UNL     1       2.164   3.699  21.816  0.00  0.00    +0.000 OA
ATOM     22  H   UNL     1       0.593   1.921  19.705  0.00  0.00    +0.000 HD
ENDBRANCH  18  19
ENDBRANCH  16  18
ENDBRANCH  15  16
ENDBRANCH   1  15
BRANCH   1  23
ATOM     23  C   UNL     1       2.046   7.414  18.275  0.00  0.00    +0.000 C 
BRANCH  23  24
ATOM     24  C   UNL     1       2.291   8.782  17.633  0.00  0.00    +0.000 C 
BRANCH  24  25
ATOM     25  C   UNL     1       1.720  10.005  18.358  0.00  0.00    +0.000 C 
BRANCH  25  26
ATOM     26  C   UNL     1       0.185   9.909  18.340  0.00  0.00    +0.000 C 
BRANCH  26  27
ATOM     27  C   UNL     1      -0.487  10.609  19.516  0.00  0.00    +0.000 C 
BRANCH  27  28
ATOM     28  C   UNL     1      -1.541  11.612  19.028  0.00  0.00    +0.000 C 
BRANCH  28  29
ATOM     29  C   UNL     1      -0.860  12.823  18.397  0.00  0.00    +0.000 C 
BRANCH  29  30
ATOM     30  C   UNL     1      -0.489  13.902  19.414  0.00  0.00    +0.000 C 
BRANCH  30  31
ATOM     31  C   UNL     1       0.832  14.553  18.998  0.00  0.00    +0.000 C 
BRANCH  31  33
ATOM     32  C   UNL     1       3.216  14.015  18.459  0.00  0.00    +0.000 C 
ATOM     33  C   UNL     1       1.769  13.580  18.291  0.00  0.00    +0.000 C 
ENDBRANCH  31  33
ENDBRANCH  30  31
ENDBRANCH  29  30
ENDBRANCH  28  29
ENDBRANCH  27  28
ENDBRANCH  26  27
ENDBRANCH  25  26
ENDBRANCH  24  25
ENDBRANCH  23  24
ENDBRANCH   1  23
TORSDOF 21
ENDMDL
MODEL 7
REMARK VINA RESULT:      -6.6      2.021      8.142
REMARK  Name = 
REMARK  23 active torsions:
REMARK  status: ('A' for Active; 'I' for Inactive)
REMARK    1  A    between atoms: C_1  and  C_2
REMARK    2  A    between atoms: C_2  and  C_3
REMARK    3  A    between atoms: C_3  and  C_4
REMARK    4  A    between atoms: C_4  and  C_5
REMARK    5  A    between atoms: C_5  and  C_6
REMARK    6  A    between atoms: C_6  and  C_7
REMARK    7  A    between atoms: C_7  and  C_8
REMARK    8  A    between atoms: C_8  and  C_9
REMARK    9  A    between atoms: C_9  and  C_10
REMARK   10  A    between atoms: C_10  and  C_11
REMARK   11  A    between atoms: C_11  and  C_12
REMARK   12  A    between atoms: C_12  and  C_13
REMARK   13  A    between atoms: C_12  and  O_25
REMARK   14  A    between atoms: C_13  and  C_14
REMARK   15  A    between atoms: C_18  and  C_19
REMARK   16  A    between atoms: C_19  and  C_20
REMARK   17  A    between atoms: C_20  and  C_21
REMARK   18  A    between atoms: C_21  and  C_22
REMARK   19  A    between atoms: C_22  and  C_23
REMARK   20  A    between atoms: C_23  and  C_24
REMARK   21  A    between atoms: O_25  and  C_26
REMARK   22  A    between atoms: C_26  and  C_28
REMARK   23  A    between atoms: C_28  and  N_29
REMARK                            x       y       z     vdW  Elec       q    Type
REMARK                         _______ _______ _______ _____ _____    ______ ____
ROOT
ATOM      1  C   UNL     1       3.044   6.704  18.443  0.00  0.00    +0.000 C 
ENDROOT
BRANCH   1   2
ATOM      2  C   UNL     1       2.243   7.854  19.078  0.00  0.00    +0.000 C 
BRANCH   2   3
ATOM      3  C   UNL     1       1.738   8.885  18.056  0.00  0.00    +0.000 C 
ATOM      4  N   UNL     1       2.441  10.177  18.098  0.00  0.00    +0.000 N 
ATOM      5  C   UNL     1       1.362  10.896  18.500  0.00  0.00    +0.000 C 
ATOM      6  O   UNL     1       1.292  12.048  18.851  0.00  0.00    +0.000 OA
ATOM      7  C   UNL     1       0.446   9.669  18.470  0.00  0.00    +0.000 C 
ATOM      8  H   UNL     1       3.303  10.405  18.572  0.00  0.00    +0.000 HD
BRANCH   7   9
ATOM      9  C   UNL     1      -0.764   9.788  17.554  0.00  0.00    +0.000 C 
BRANCH   9  10
ATOM     10  C   UNL     1      -1.929  10.434  18.304  0.00  0.00    +0.000 C 
BRANCH  10  11
ATOM     11  C   UNL     1      -3.280  10.079  17.679  0.00  0.00    +0.000 C 
BRANCH  11  12
ATOM     12  C   UNL     1      -3.739  11.165  16.702  0.00  0.00    +0.000 C 
BRANCH  12  13
ATOM     13  C   UNL     1      -4.038  10.580  15.322  0.00  0.00    +0.000 C 
ATOM     14  C   UNL     1      -2.777  10.071  14.640  0.00  0.00    +0.000 C 
ENDBRANCH  12  13
ENDBRANCH  11  12
ENDBRANCH  10  11
ENDBRANCH   9  10
ENDBRANCH   7   9
ENDBRANCH   2   3
ENDBRANCH   1   2
BRANCH   1  15
ATOM     15  O   UNL     1       2.063   5.858  17.782  0.00  0.00    +0.000 OA
BRANCH  15  16
ATOM     16  C   UNL     1       2.039   4.530  18.071  0.00  0.00    +0.000 C 
ATOM     17  O   UNL     1       2.028   3.623  17.249  0.00  0.00    +0.000 OA
BRANCH  16  18
ATOM     18  C   UNL     1       1.964   4.324  19.580  0.00  0.00    +0.000 C 
BRANCH  18  19
ATOM     19  N   UNL     1       2.549   3.054  19.950  0.00  0.00    +0.000 N 
ATOM     20  C   UNL     1       2.575   2.655  21.257  0.00  0.00    +0.000 C 
ATOM     21  O   UNL     1       2.201   3.315  22.209  0.00  0.00    +0.000 OA
ATOM     22  H   UNL     1       2.725   2.370  19.222  0.00  0.00    +0.000 HD
ENDBRANCH  18  19
ENDBRANCH  16  18
ENDBRANCH  15  16
ENDBRANCH   1  15
BRANCH   1  23
ATOM     23  C   UNL     1       4.007   7.166  17.326  0.00  0.00    +0.000 C 
BRANCH  23  24
ATOM     24  C   UNL     1       5.455   6.670  17.349  0.00  0.00    +0.000 C 
BRANCH  24  25
ATOM     25  C   UNL     1       5.739   5.379  18.123  0.00  0.00    +0.000 C 
BRANCH  25  26
ATOM     26  C   UNL     1       7.089   4.814  17.648  0.00  0.00    +0.000 C 
BRANCH  26  27
ATOM     27  C   UNL     1       7.097   4.397  16.182  0.00  0.00    +0.000 C 
BRANCH  27  28
ATOM     28  C   UNL     1       5.724   3.860  15.756  0.00  0.00    +0.000 C 
BRANCH  28  29
ATOM     29  C   UNL     1       5.422   4.274  14.319  0.00  0.00    +0.000 C 
BRANCH  29  30
ATOM     30  C   UNL     1       6.578   3.998  13.358  0.00  0.00    +0.000 C 
BRANCH  30  31
ATOM     31  C   UNL     1       6.014   3.565  12.002  0.00  0.00    +0.000 C 
BRANCH  31  33
ATOM     32  C   UNL     1       3.861   3.438  10.732  0.00  0.00    +0.000 C 
ATOM     33  C   UNL     1       4.536   3.196  12.073  0.00  0.00    +0.000 C 
ENDBRANCH  31  33
ENDBRANCH  30  31
ENDBRANCH  29  30
ENDBRANCH  28  29
ENDBRANCH  27  28
ENDBRANCH  26  27
ENDBRANCH  25  26
ENDBRANCH  24  25
ENDBRANCH  23  24
ENDBRANCH   1  23
TORSDOF 21
ENDMDL
MODEL 8
REMARK VINA RESULT:      -6.5      3.115      4.999
REMARK  Name = 
REMARK  23 active torsions:
REMARK  status: ('A' for Active; 'I' for Inactive)
REMARK    1  A    between atoms: C_1  and  C_2
REMARK    2  A    between atoms: C_2  and  C_3
REMARK    3  A    between atoms: C_3  and  C_4
REMARK    4  A    between atoms: C_4  and  C_5
REMARK    5  A    between atoms: C_5  and  C_6
REMARK    6  A    between atoms: C_6  and  C_7
REMARK    7  A    between atoms: C_7  and  C_8
REMARK    8  A    between atoms: C_8  and  C_9
REMARK    9  A    between atoms: C_9  and  C_10
REMARK   10  A    between atoms: C_10  and  C_11
REMARK   11  A    between atoms: C_11  and  C_12
REMARK   12  A    between atoms: C_12  and  C_13
REMARK   13  A    between atoms: C_12  and  O_25
REMARK   14  A    between atoms: C_13  and  C_14
REMARK   15  A    between atoms: C_18  and  C_19
REMARK   16  A    between atoms: C_19  and  C_20
REMARK   17  A    between atoms: C_20  and  C_21
REMARK   18  A    between atoms: C_21  and  C_22
REMARK   19  A    between atoms: C_22  and  C_23
REMARK   20  A    between atoms: C_23  and  C_24
REMARK   21  A    between atoms: O_25  and  C_26
REMARK   22  A    between atoms: C_26  and  C_28
REMARK   23  A    between atoms: C_28  and  N_29
REMARK                            x       y       z     vdW  Elec       q    Type
REMARK                         _______ _______ _______ _____ _____    ______ ____
ROOT
ATOM      1  C   UNL     1       3.110   5.487  18.966  0.00  0.00    +0.000 C 
ENDROOT
BRANCH   1   2
ATOM      2  C   UNL     1       4.634   5.467  19.179  0.00  0.00    +0.000 C 
BRANCH   2   3
ATOM      3  C   UNL     1       5.434   5.759  17.899  0.00  0.00    +0.000 C 
ATOM      4  N   UNL     1       5.943   4.560  17.214  0.00  0.00    +0.000 N 
ATOM      5  C   UNL     1       7.255   4.846  17.415  0.00  0.00    +0.000 C 
ATOM      6  O   UNL     1       8.231   4.173  17.197  0.00  0.00    +0.000 OA
ATOM      7  C   UNL     1       6.930   6.168  18.116  0.00  0.00    +0.000 C 
ATOM      8  H   UNL     1       5.691   3.594  17.372  0.00  0.00    +0.000 HD
BRANCH   7   9
ATOM      9  C   UNL     1       7.538   7.407  17.473  0.00  0.00    +0.000 C 
BRANCH   9  10
ATOM     10  C   UNL     1       8.335   8.200  18.510  0.00  0.00    +0.000 C 
BRANCH  10  11
ATOM     11  C   UNL     1       8.409   9.687  18.160  0.00  0.00    +0.000 C 
BRANCH  11  12
ATOM     12  C   UNL     1       9.370  10.428  19.094  0.00  0.00    +0.000 C 
BRANCH  12  13
ATOM     13  C   UNL     1      10.261  11.398  18.319  0.00  0.00    +0.000 C 
ATOM     14  C   UNL     1      11.631  11.541  18.963  0.00  0.00    +0.000 C 
ENDBRANCH  12  13
ENDBRANCH  11  12
ENDBRANCH  10  11
ENDBRANCH   9  10
ENDBRANCH   7   9
ENDBRANCH   2   3
ENDBRANCH   1   2
BRANCH   1  15
ATOM     15  O   UNL     1       2.560   4.589  19.970  0.00  0.00    +0.000 OA
BRANCH  15  16
ATOM     16  C   UNL     1       1.415   3.912  19.690  0.00  0.00    +0.000 C 
ATOM     17  O   UNL     1       0.411   3.890  20.390  0.00  0.00    +0.000 OA
BRANCH  16  18
ATOM     18  C   UNL     1       1.578   3.123  18.395  0.00  0.00    +0.000 C 
BRANCH  18  19
ATOM     19  N   UNL     1       2.167   1.828  18.658  0.00  0.00    +0.000 N 
ATOM     20  C   UNL     1       3.461   1.568  18.304  0.00  0.00    +0.000 C 
ATOM     21  O   UNL     1       4.198   2.323  17.697  0.00  0.00    +0.000 OA
ATOM     22  H   UNL     1       1.698   1.204  19.306  0.00  0.00    +0.000 HD
ENDBRANCH  18  19
ENDBRANCH  16  18
ENDBRANCH  15  16
ENDBRANCH   1  15
BRANCH   1  23
ATOM     23  C   UNL     1       2.465   6.863  19.249  0.00  0.00    +0.000 C 
BRANCH  23  24
ATOM     24  C   UNL     1       2.152   7.247  20.697  0.00  0.00    +0.000 C 
BRANCH  24  25
ATOM     25  C   UNL     1       0.802   7.922  20.964  0.00  0.00    +0.000 C 
BRANCH  25  26
ATOM     26  C   UNL     1       1.026   9.087  21.943  0.00  0.00    +0.000 C 
BRANCH  26  27
ATOM     27  C   UNL     1       0.933  10.462  21.291  0.00  0.00    +0.000 C 
BRANCH  27  28
ATOM     28  C   UNL     1      -0.485  10.728  20.771  0.00  0.00    +0.000 C 
BRANCH  28  29
ATOM     29  C   UNL     1      -1.133  11.855  21.570  0.00  0.00    +0.000 C 
BRANCH  29  30
ATOM     30  C   UNL     1      -1.659  11.403  22.931  0.00  0.00    +0.000 C 
BRANCH  30  31
ATOM     31  C   UNL     1      -2.802  12.325  23.362  0.00  0.00    +0.000 C 
BRANCH  31  33
ATOM     32  C   UNL     1      -5.088  12.937  22.546  0.00  0.00    +0.000 C 
ATOM     33  C   UNL     1      -3.615  12.843  22.181  0.00  0.00    +0.000 C 
ENDBRANCH  31  33
ENDBRANCH  30  31
ENDBRANCH  29  30
ENDBRANCH  28  29
ENDBRANCH  27  28
ENDBRANCH  26  27
ENDBRANCH  25  26
ENDBRANCH  24  25
ENDBRANCH  23  24
ENDBRANCH   1  23
TORSDOF 21
ENDMDL
MODEL 9
REMARK VINA RESULT:      -6.5      4.402      8.573
REMARK  Name = 
REMARK  23 active torsions:
REMARK  status: ('A' for Active; 'I' for Inactive)
REMARK    1  A    between atoms: C_1  and  C_2
REMARK    2  A    between atoms: C_2  and  C_3
REMARK    3  A    between atoms: C_3  and  C_4
REMARK    4  A    between atoms: C_4  and  C_5
REMARK    5  A    between atoms: C_5  and  C_6
REMARK    6  A    between atoms: C_6  and  C_7
REMARK    7  A    between atoms: C_7  and  C_8
REMARK    8  A    between atoms: C_8  and  C_9
REMARK    9  A    between atoms: C_9  and  C_10
REMARK   10  A    between atoms: C_10  and  C_11
REMARK   11  A    between atoms: C_11  and  C_12
REMARK   12  A    between atoms: C_12  and  C_13
REMARK   13  A    between atoms: C_12  and  O_25
REMARK   14  A    between atoms: C_13  and  C_14
REMARK   15  A    between atoms: C_18  and  C_19
REMARK   16  A    between atoms: C_19  and  C_20
REMARK   17  A    between atoms: C_20  and  C_21
REMARK   18  A    between atoms: C_21  and  C_22
REMARK   19  A    between atoms: C_22  and  C_23
REMARK   20  A    between atoms: C_23  and  C_24
REMARK   21  A    between atoms: O_25  and  C_26
REMARK   22  A    between atoms: C_26  and  C_28
REMARK   23  A    between atoms: C_28  and  N_29
REMARK                            x       y       z     vdW  Elec       q    Type
REMARK                         _______ _______ _______ _____ _____    ______ ____
ROOT
ATOM      1  C   UNL     1       7.370   5.640  16.833  0.00  0.00    +0.000 C 
ENDROOT
BRANCH   1   2
ATOM      2  C   UNL     1       7.100   4.451  17.771  0.00  0.00    +0.000 C 
BRANCH   2   3
ATOM      3  C   UNL     1       5.709   4.490  18.424  0.00  0.00    +0.000 C 
ATOM      4  N   UNL     1       5.406   3.330  19.278  0.00  0.00    +0.000 N 
ATOM      5  C   UNL     1       4.397   2.861  18.499  0.00  0.00    +0.000 C 
ATOM      6  O   UNL     1       3.783   1.825  18.577  0.00  0.00    +0.000 OA
ATOM      7  C   UNL     1       4.522   4.026  17.514  0.00  0.00    +0.000 C 
ATOM      8  H   UNL     1       6.040   2.623  19.621  0.00  0.00    +0.000 HD
BRANCH   7   9
ATOM      9  C   UNL     1       3.259   4.858  17.334  0.00  0.00    +0.000 C 
BRANCH   9  10
ATOM     10  C   UNL     1       2.648   5.187  18.696  0.00  0.00    +0.000 C 
BRANCH  10  11
ATOM     11  C   UNL     1       1.339   4.429  18.934  0.00  0.00    +0.000 C 
BRANCH  11  12
ATOM     12  C   UNL     1       1.047   4.288  20.429  0.00  0.00    +0.000 C 
BRANCH  12  13
ATOM     13  C   UNL     1       1.246   2.847  20.900  0.00  0.00    +0.000 C 
ATOM     14  C   UNL     1       2.510   2.696  21.731  0.00  0.00    +0.000 C 
ENDBRANCH  12  13
ENDBRANCH  11  12
ENDBRANCH  10  11
ENDBRANCH   9  10
ENDBRANCH   7   9
ENDBRANCH   2   3
ENDBRANCH   1   2
BRANCH   1  15
ATOM     15  O   UNL     1       6.479   5.458  15.698  0.00  0.00    +0.000 OA
BRANCH  15  16
ATOM     16  C   UNL     1       6.986   4.970  14.536  0.00  0.00    +0.000 C 
ATOM     17  O   UNL     1       7.887   5.480  13.882  0.00  0.00    +0.000 OA
BRANCH  16  18
ATOM     18  C   UNL     1       6.226   3.716  14.120  0.00  0.00    +0.000 C 
BRANCH  18  19
ATOM     19  N   UNL     1       5.290   4.015  13.058  0.00  0.00    +0.000 N 
ATOM     20  C   UNL     1       5.180   3.190  11.974  0.00  0.00    +0.000 C 
ATOM     21  O   UNL     1       5.867   2.210  11.754  0.00  0.00    +0.000 OA
ATOM     22  H   UNL     1       4.564   4.701  13.232  0.00  0.00    +0.000 HD
ENDBRANCH  18  19
ENDBRANCH  16  18
ENDBRANCH  15  16
ENDBRANCH   1  15
BRANCH   1  23
ATOM     23  C   UNL     1       6.984   7.007  17.443  0.00  0.00    +0.000 C 
BRANCH  23  24
ATOM     24  C   UNL     1       8.052   7.809  18.190  0.00  0.00    +0.000 C 
BRANCH  24  25
ATOM     25  C   UNL     1       8.186   9.294  17.836  0.00  0.00    +0.000 C 
BRANCH  25  26
ATOM     26  C   UNL     1       9.012   9.983  18.935  0.00  0.00    +0.000 C 
BRANCH  26  27
ATOM     27  C   UNL     1       9.635  11.304  18.496  0.00  0.00    +0.000 C 
BRANCH  27  28
ATOM     28  C   UNL     1      11.038  11.474  19.093  0.00  0.00    +0.000 C 
BRANCH  28  29
ATOM     29  C   UNL     1      10.943  12.089  20.486  0.00  0.00    +0.000 C 
BRANCH  29  30
ATOM     30  C   UNL     1       9.990  13.281  20.554  0.00  0.00    +0.000 C 
BRANCH  30  31
ATOM     31  C   UNL     1       9.746  13.650  22.019  0.00  0.00    +0.000 C 
BRANCH  31  33
ATOM     32  C   UNL     1       7.522  12.535  22.296  0.00  0.00    +0.000 C 
ATOM     33  C   UNL     1       8.966  12.578  22.771  0.00  0.00    +0.000 C 
ENDBRANCH  31  33
ENDBRANCH  30  31
ENDBRANCH  29  30
ENDBRANCH  28  29
ENDBRANCH  27  28
ENDBRANCH  26  27
ENDBRANCH  25  26
ENDBRANCH  24  25
ENDBRANCH  23  24
ENDBRANCH   1  23
TORSDOF 21
ENDMDL
