MODEL 1
REMARK VINA RESULT:      -6.6      0.000      0.000
REMARK  Name = 
REMARK  8 active torsions:
REMARK  status: ('A' for Active; 'I' for Inactive)
REMARK    1  A    between atoms: C_1  and  C_2
REMARK    2  A    between atoms: C_2  and  O_3
REMARK    3  A    between atoms: O_3  and  C_4
REMARK    4  A    between atoms: C_4  and  C_6
REMARK    5  A    between atoms: C_9  and  O_10
REMARK    6  A    between atoms: O_10  and  C_11
REMARK    7  A    between atoms: C_14  and  O_15
REMARK    8  A    between atoms: O_15  and  C_16
REMARK                            x       y       z     vdW  Elec       q    Type
REMARK                         _______ _______ _______ _____ _____    ______ ____
ROOT
ATOM      1  C   UNL     1       6.607   4.828  14.908  0.00  0.00    +0.000 A 
ATOM      2  C   UNL     1       5.370   5.446  15.137  0.00  0.00    +0.000 A 
ATOM      3  C   UNL     1       4.992   5.799  16.433  0.00  0.00    +0.000 A 
ATOM      4  C   UNL     1       5.843   5.531  17.507  0.00  0.00    +0.000 A 
ATOM      5  C   UNL     1       7.086   4.936  17.277  0.00  0.00    +0.000 A 
ATOM      6  C   UNL     1       7.455   4.555  15.986  0.00  0.00    +0.000 A 
ENDROOT
BRANCH   1   7
ATOM      7  C   UNL     1       6.950   4.442  13.520  0.00  0.00    +0.000 C 
ATOM      8  O   UNL     1       7.701   5.094  12.804  0.00  0.00    +0.000 OA
BRANCH   7   9
ATOM      9  O   UNL     1       6.232   3.357  13.145  0.00  0.00    +0.000 OA
BRANCH   9  11
ATOM     10  C   UNL     1       4.489   3.216  11.535  0.00  0.00    +0.000 C 
ATOM     11  C   UNL     1       5.994   3.243  11.740  0.00  0.00    +0.000 C 
ENDBRANCH   9  11
ENDBRANCH   7   9
ENDBRANCH   1   7
BRANCH   4  12
ATOM     12  O   UNL     1       5.397   5.944  18.742  0.00  0.00    +0.000 OA
BRANCH  12  13
ATOM     13  C   UNL     1       4.252   5.401  19.279  0.00  0.00    +0.000 A 
ATOM     14  C   UNL     1       4.281   4.027  19.523  0.00  0.00    +0.000 A 
ATOM     15  C   UNL     1       3.165   3.395  20.077  0.00  0.00    +0.000 A 
ATOM     16  C   UNL     1       2.025   4.131  20.407  0.00  0.00    +0.000 A 
ATOM     17  C   UNL     1       1.999   5.502  20.164  0.00  0.00    +0.000 A 
ATOM     18  C   UNL     1       3.122   6.140  19.634  0.00  0.00    +0.000 A 
BRANCH  16  19
ATOM     19  O   UNL     1       0.984   3.415  20.930  0.00  0.00    +0.000 OA
ATOM     20  C   UNL     1       1.350   2.426  21.887  0.00  0.00    +0.000 C 
ENDBRANCH  16  19
ENDBRANCH  12  13
ENDBRANCH   4  12
TORSDOF 6
ENDMDL
MODEL 2
REMARK VINA RESULT:      -6.5      2.917      4.004
REMARK  Name = 
REMARK  8 active torsions:
REMARK  status: ('A' for Active; 'I' for Inactive)
REMARK    1  A    between atoms: C_1  and  C_2
REMARK    2  A    between atoms: C_2  and  O_3
REMARK    3  A    between atoms: O_3  and  C_4
REMARK    4  A    between atoms: C_4  and  C_6
REMARK    5  A    between atoms: C_9  and  O_10
REMARK    6  A    between atoms: O_10  and  C_11
REMARK    7  A    between atoms: C_14  and  O_15
REMARK    8  A    between atoms: O_15  and  C_16
REMARK                            x       y       z     vdW  Elec       q    Type
REMARK                         _______ _______ _______ _____ _____    ______ ____
ROOT
ATOM      1  C   UNL     1       5.647   4.958  16.008  0.00  0.00    +0.000 A 
ATOM      2  C   UNL     1       5.805   6.171  16.691  0.00  0.00    +0.000 A 
ATOM      3  C   UNL     1       4.934   6.511  17.727  0.00  0.00    +0.000 A 
ATOM      4  C   UNL     1       3.898   5.646  18.082  0.00  0.00    +0.000 A 
ATOM      5  C   UNL     1       3.755   4.425  17.418  0.00  0.00    +0.000 A 
ATOM      6  C   UNL     1       4.605   4.095  16.361  0.00  0.00    +0.000 A 
ENDROOT
BRANCH   1   7
ATOM      7  C   UNL     1       6.575   4.656  14.894  0.00  0.00    +0.000 C 
ATOM      8  O   UNL     1       7.630   5.252  14.713  0.00  0.00    +0.000 OA
BRANCH   7   9
ATOM      9  O   UNL     1       6.031   3.728  14.072  0.00  0.00    +0.000 OA
BRANCH   9  11
ATOM     10  C   UNL     1       5.455   3.002  11.882  0.00  0.00    +0.000 C 
ATOM     11  C   UNL     1       6.439   3.818  12.704  0.00  0.00    +0.000 C 
ENDBRANCH   9  11
ENDBRANCH   7   9
ENDBRANCH   1   7
BRANCH   4  12
ATOM     12  O   UNL     1       3.111   6.053  19.135  0.00  0.00    +0.000 OA
BRANCH  12  13
ATOM     13  C   UNL     1       2.424   7.243  19.064  0.00  0.00    +0.000 A 
ATOM     14  C   UNL     1       1.866   7.701  20.259  0.00  0.00    +0.000 A 
ATOM     15  C   UNL     1       1.159   8.907  20.280  0.00  0.00    +0.000 A 
ATOM     16  C   UNL     1       1.023   9.668  19.117  0.00  0.00    +0.000 A 
ATOM     17  C   UNL     1       1.581   9.210  17.926  0.00  0.00    +0.000 A 
ATOM     18  C   UNL     1       2.309   8.018  17.909  0.00  0.00    +0.000 A 
BRANCH  16  19
ATOM     19  O   UNL     1       0.301  10.823  19.242  0.00  0.00    +0.000 OA
ATOM     20  C   UNL     1       1.043  11.954  19.687  0.00  0.00    +0.000 C 
ENDBRANCH  16  19
ENDBRANCH  12  13
ENDBRANCH   4  12
TORSDOF 6
ENDMDL
MODEL 3
REMARK VINA RESULT:      -6.5      2.825      6.976
REMARK  Name = 
REMARK  8 active torsions:
REMARK  status: ('A' for Active; 'I' for Inactive)
REMARK    1  A    between atoms: C_1  and  C_2
REMARK    2  A    between atoms: C_2  and  O_3
REMARK    3  A    between atoms: O_3  and  C_4
REMARK    4  A    between atoms: C_4  and  C_6
REMARK    5  A    between atoms: C_9  and  O_10
REMARK    6  A    between atoms: O_10  and  C_11
REMARK    7  A    between atoms: C_14  and  O_15
REMARK    8  A    between atoms: O_15  and  C_16
REMARK                            x       y       z     vdW  Elec       q    Type
REMARK                         _______ _______ _______ _____ _____    ______ ____
ROOT
ATOM      1  C   UNL     1       2.236   3.607  18.281  0.00  0.00    +0.000 A 
ATOM      2  C   UNL     1       2.465   4.973  18.072  0.00  0.00    +0.000 A 
ATOM      3  C   UNL     1       3.652   5.402  17.477  0.00  0.00    +0.000 A 
ATOM      4  C   UNL     1       4.618   4.471  17.092  0.00  0.00    +0.000 A 
ATOM      5  C   UNL     1       4.380   3.106  17.277  0.00  0.00    +0.000 A 
ATOM      6  C   UNL     1       3.207   2.676  17.900  0.00  0.00    +0.000 A 
ENDROOT
BRANCH   1   7
ATOM      7  C   UNL     1       0.976   3.202  18.946  0.00  0.00    +0.000 C 
ATOM      8  O   UNL     1       0.244   2.315  18.524  0.00  0.00    +0.000 OA
BRANCH   7   9
ATOM      9  O   UNL     1       0.716   4.022  19.993  0.00  0.00    +0.000 OA
BRANCH   9  11
ATOM     10  C   UNL     1       1.454   2.566  21.721  0.00  0.00    +0.000 C 
ATOM     11  C   UNL     1       1.642   3.929  21.078  0.00  0.00    +0.000 C 
ENDBRANCH   9  11
ENDBRANCH   7   9
ENDBRANCH   1   7
BRANCH   4  12
ATOM     12  O   UNL     1       5.740   4.987  16.485  0.00  0.00    +0.000 OA
BRANCH  12  13
ATOM     13  C   UNL     1       6.565   5.845  17.175  0.00  0.00    +0.000 A 
ATOM     14  C   UNL     1       6.532   7.182  16.774  0.00  0.00    +0.000 A 
ATOM     15  C   UNL     1       7.330   8.125  17.426  0.00  0.00    +0.000 A 
ATOM     16  C   UNL     1       8.148   7.744  18.492  0.00  0.00    +0.000 A 
ATOM     17  C   UNL     1       8.179   6.410  18.892  0.00  0.00    +0.000 A 
ATOM     18  C   UNL     1       7.363   5.471  18.257  0.00  0.00    +0.000 A 
BRANCH  16  19
ATOM     19  O   UNL     1       8.900   8.740  19.052  0.00  0.00    +0.000 OA
ATOM     20  C   UNL     1       8.903   9.971  18.336  0.00  0.00    +0.000 C 
ENDBRANCH  16  19
ENDBRANCH  12  13
ENDBRANCH   4  12
TORSDOF 6
ENDMDL
MODEL 4
REMARK VINA RESULT:      -6.5      2.638      3.614
REMARK  Name = 
REMARK  8 active torsions:
REMARK  status: ('A' for Active; 'I' for Inactive)
REMARK    1  A    between atoms: C_1  and  C_2
REMARK    2  A    between atoms: C_2  and  O_3
REMARK    3  A    between atoms: O_3  and  C_4
REMARK    4  A    between atoms: C_4  and  C_6
REMARK    5  A    between atoms: C_9  and  O_10
REMARK    6  A    between atoms: O_10  and  C_11
REMARK    7  A    between atoms: C_14  and  O_15
REMARK    8  A    between atoms: O_15  and  C_16
REMARK                            x       y       z     vdW  Elec       q    Type
REMARK                         _______ _______ _______ _____ _____    ______ ____
ROOT
ATOM      1  C   UNL     1       6.052   5.091  15.677  0.00  0.00    +0.000 A 
ATOM      2  C   UNL     1       4.812   4.457  15.827  0.00  0.00    +0.000 A 
ATOM      3  C   UNL     1       4.019   4.724  16.944  0.00  0.00    +0.000 A 
ATOM      4  C   UNL     1       4.461   5.620  17.919  0.00  0.00    +0.000 A 
ATOM      5  C   UNL     1       5.687   6.271  17.757  0.00  0.00    +0.000 A 
ATOM      6  C   UNL     1       6.497   5.984  16.657  0.00  0.00    +0.000 A 
ENDROOT
BRANCH   1   7
ATOM      7  C   UNL     1       6.874   4.751  14.493  0.00  0.00    +0.000 C 
ATOM      8  O   UNL     1       7.784   5.457  14.077  0.00  0.00    +0.000 OA
BRANCH   7   9
ATOM      9  O   UNL     1       6.394   3.633  13.897  0.00  0.00    +0.000 OA
BRANCH   9  11
ATOM     10  C   UNL     1       5.009   3.410  11.978  0.00  0.00    +0.000 C 
ATOM     11  C   UNL     1       6.428   3.647  12.468  0.00  0.00    +0.000 C 
ENDBRANCH   9  11
ENDBRANCH   7   9
ENDBRANCH   1   7
BRANCH   4  12
ATOM     12  O   UNL     1       3.596   5.843  18.966  0.00  0.00    +0.000 OA
BRANCH  12  13
ATOM     13  C   UNL     1       2.834   6.989  19.000  0.00  0.00    +0.000 A 
ATOM     14  C   UNL     1       2.849   7.768  17.841  0.00  0.00    +0.000 A 
ATOM     15  C   UNL     1       2.096   8.944  17.784  0.00  0.00    +0.000 A 
ATOM     16  C   UNL     1       1.312   9.336  18.872  0.00  0.00    +0.000 A 
ATOM     17  C   UNL     1       1.298   8.556  20.026  0.00  0.00    +0.000 A 
ATOM     18  C   UNL     1       2.030   7.368  20.075  0.00  0.00    +0.000 A 
BRANCH  16  19
ATOM     19  O   UNL     1       0.626  10.509  18.719  0.00  0.00    +0.000 OA
ATOM     20  C   UNL     1       0.071  11.045  19.916  0.00  0.00    +0.000 C 
ENDBRANCH  16  19
ENDBRANCH  12  13
ENDBRANCH   4  12
TORSDOF 6
ENDMDL
MODEL 5
REMARK VINA RESULT:      -6.4      2.729      3.894
REMARK  Name = 
REMARK  8 active torsions:
REMARK  status: ('A' for Active; 'I' for Inactive)
REMARK    1  A    between atoms: C_1  and  C_2
REMARK    2  A    between atoms: C_2  and  O_3
REMARK    3  A    between atoms: O_3  and  C_4
REMARK    4  A    between atoms: C_4  and  C_6
REMARK    5  A    between atoms: C_9  and  O_10
REMARK    6  A    between atoms: O_10  and  C_11
REMARK    7  A    between atoms: C_14  and  O_15
REMARK    8  A    between atoms: O_15  and  C_16
REMARK                            x       y       z     vdW  Elec       q    Type
REMARK                         _______ _______ _______ _____ _____    ______ ____
ROOT
ATOM      1  C   UNL     1       5.755   4.886  16.046  0.00  0.00    +0.000 A 
ATOM      2  C   UNL     1       6.040   5.871  17.001  0.00  0.00    +0.000 A 
ATOM      3  C   UNL     1       5.141   6.121  18.040  0.00  0.00    +0.000 A 
ATOM      4  C   UNL     1       3.952   5.394  18.126  0.00  0.00    +0.000 A 
ATOM      5  C   UNL     1       3.679   4.396  17.187  0.00  0.00    +0.000 A 
ATOM      6  C   UNL     1       4.561   4.164  16.130  0.00  0.00    +0.000 A 
ENDROOT
BRANCH   1   7
ATOM      7  C   UNL     1       6.723   4.679  14.944  0.00  0.00    +0.000 C 
ATOM      8  O   UNL     1       7.650   5.445  14.707  0.00  0.00    +0.000 OA
BRANCH   7   9
ATOM      9  O   UNL     1       6.359   3.611  14.197  0.00  0.00    +0.000 OA
BRANCH   9  11
ATOM     10  C   UNL     1       5.238   3.280  12.126  0.00  0.00    +0.000 C 
ATOM     11  C   UNL     1       6.513   3.779  12.785  0.00  0.00    +0.000 C 
ENDBRANCH   9  11
ENDBRANCH   7   9
ENDBRANCH   1   7
BRANCH   4  12
ATOM     12  O   UNL     1       3.146   5.690  19.201  0.00  0.00    +0.000 OA
BRANCH  12  13
ATOM     13  C   UNL     1       2.508   6.908  19.271  0.00  0.00    +0.000 A 
ATOM     14  C   UNL     1       2.435   7.631  18.079  0.00  0.00    +0.000 A 
ATOM     15  C   UNL     1       1.796   8.873  18.057  0.00  0.00    +0.000 A 
ATOM     16  C   UNL     1       1.212   9.390  19.215  0.00  0.00    +0.000 A 
ATOM     17  C   UNL     1       1.286   8.667  20.403  0.00  0.00    +0.000 A 
ATOM     18  C   UNL     1       1.902   7.414  20.421  0.00  0.00    +0.000 A 
BRANCH  16  19
ATOM     19  O   UNL     1       0.625  10.619  19.089  0.00  0.00    +0.000 OA
ATOM     20  C   UNL     1       1.496  11.665  18.670  0.00  0.00    +0.000 C 
ENDBRANCH  16  19
ENDBRANCH  12  13
ENDBRANCH   4  12
TORSDOF 6
ENDMDL
MODEL 6
REMARK VINA RESULT:      -6.4      2.949      4.140
REMARK  Name = 
REMARK  8 active torsions:
REMARK  status: ('A' for Active; 'I' for Inactive)
REMARK    1  A    between atoms: C_1  and  C_2
REMARK    2  A    between atoms: C_2  and  O_3
REMARK    3  A    between atoms: O_3  and  C_4
REMARK    4  A    between atoms: C_4  and  C_6
REMARK    5  A    between atoms: C_9  and  O_10
REMARK    6  A    between atoms: O_10  and  C_11
REMARK    7  A    between atoms: C_14  and  O_15
REMARK    8  A    between atoms: O_15  and  C_16
REMARK                            x       y       z     vdW  Elec       q    Type
REMARK                         _______ _______ _______ _____ _____    ______ ____
ROOT
ATOM      1  C   UNL     1       5.721   4.731  17.109  0.00  0.00    +0.000 A 
ATOM      2  C   UNL     1       4.361   4.565  16.818  0.00  0.00    +0.000 A 
ATOM      3  C   UNL     1       3.394   4.928  17.757  0.00  0.00    +0.000 A 
ATOM      4  C   UNL     1       3.779   5.453  18.992  0.00  0.00    +0.000 A 
ATOM      5  C   UNL     1       5.135   5.641  19.273  0.00  0.00    +0.000 A 
ATOM      6  C   UNL     1       6.106   5.251  18.349  0.00  0.00    +0.000 A 
ENDROOT
BRANCH   1   7
ATOM      7  C   UNL     1       6.711   4.300  16.096  0.00  0.00    +0.000 C 
ATOM      8  O   UNL     1       7.919   4.461  16.221  0.00  0.00    +0.000 OA
BRANCH   7   9
ATOM      9  O   UNL     1       6.079   3.825  14.997  0.00  0.00    +0.000 OA
BRANCH   9  11
ATOM     10  C   UNL     1       5.965   3.461  12.650  0.00  0.00    +0.000 C 
ATOM     11  C   UNL     1       6.590   4.303  13.750  0.00  0.00    +0.000 C 
ENDBRANCH   9  11
ENDBRANCH   7   9
ENDBRANCH   1   7
BRANCH   4  12
ATOM     12  O   UNL     1       2.754   5.811  19.837  0.00  0.00    +0.000 OA
BRANCH  12  13
ATOM     13  C   UNL     1       2.171   7.053  19.727  0.00  0.00    +0.000 A 
ATOM     14  C   UNL     1       1.520   7.527  20.868  0.00  0.00    +0.000 A 
ATOM     15  C   UNL     1       0.908   8.783  20.849  0.00  0.00    +0.000 A 
ATOM     16  C   UNL     1       0.960   9.578  19.701  0.00  0.00    +0.000 A 
ATOM     17  C   UNL     1       1.611   9.103  18.566  0.00  0.00    +0.000 A 
ATOM     18  C   UNL     1       2.244   7.859  18.591  0.00  0.00    +0.000 A 
BRANCH  16  19
ATOM     19  O   UNL     1       0.318  10.783  19.783  0.00  0.00    +0.000 OA
ATOM     20  C   UNL     1       1.169  11.910  19.964  0.00  0.00    +0.000 C 
ENDBRANCH  16  19
ENDBRANCH  12  13
ENDBRANCH   4  12
TORSDOF 6
ENDMDL
MODEL 7
REMARK VINA RESULT:      -6.3      2.809      3.852
REMARK  Name = 
REMARK  8 active torsions:
REMARK  status: ('A' for Active; 'I' for Inactive)
REMARK    1  A    between atoms: C_1  and  C_2
REMARK    2  A    between atoms: C_2  and  O_3
REMARK    3  A    between atoms: O_3  and  C_4
REMARK    4  A    between atoms: C_4  and  C_6
REMARK    5  A    between atoms: C_9  and  O_10
REMARK    6  A    between atoms: O_10  and  C_11
REMARK    7  A    between atoms: C_14  and  O_15
REMARK    8  A    between atoms: O_15  and  C_16
REMARK                            x       y       z     vdW  Elec       q    Type
REMARK                         _______ _______ _______ _____ _____    ______ ____
ROOT
ATOM      1  C   UNL     1       5.854   5.110  15.787  0.00  0.00    +0.000 A 
ATOM      2  C   UNL     1       4.883   4.162  16.135  0.00  0.00    +0.000 A 
ATOM      3  C   UNL     1       3.980   4.430  17.165  0.00  0.00    +0.000 A 
ATOM      4  C   UNL     1       4.045   5.641  17.856  0.00  0.00    +0.000 A 
ATOM      5  C   UNL     1       4.997   6.597  17.492  0.00  0.00    +0.000 A 
ATOM      6  C   UNL     1       5.922   6.321  16.484  0.00  0.00    +0.000 A 
ENDROOT
BRANCH   1   7
ATOM      7  C   UNL     1       6.812   4.768  14.711  0.00  0.00    +0.000 C 
ATOM      8  O   UNL     1       7.802   5.441  14.449  0.00  0.00    +0.000 OA
BRANCH   7   9
ATOM      9  O   UNL     1       6.367   3.697  14.012  0.00  0.00    +0.000 OA
BRANCH   9  11
ATOM     10  C   UNL     1       5.810   2.610  11.973  0.00  0.00    +0.000 C 
ATOM     11  C   UNL     1       6.072   3.951  12.636  0.00  0.00    +0.000 C 
ENDBRANCH   9  11
ENDBRANCH   7   9
ENDBRANCH   1   7
BRANCH   4  12
ATOM     12  O   UNL     1       3.093   5.827  18.832  0.00  0.00    +0.000 OA
BRANCH  12  13
ATOM     13  C   UNL     1       2.453   7.040  18.950  0.00  0.00    +0.000 A 
ATOM     14  C   UNL     1       1.938   7.340  20.213  0.00  0.00    +0.000 A 
ATOM     15  C   UNL     1       1.281   8.555  20.426  0.00  0.00    +0.000 A 
ATOM     16  C   UNL     1       1.154   9.482  19.389  0.00  0.00    +0.000 A 
ATOM     17  C   UNL     1       1.670   9.182  18.131  0.00  0.00    +0.000 A 
ATOM     18  C   UNL     1       2.348   7.979  17.923  0.00  0.00    +0.000 A 
BRANCH  16  19
ATOM     19  O   UNL     1       0.483  10.633  19.699  0.00  0.00    +0.000 OA
ATOM     20  C   UNL     1       0.833  11.768  18.912  0.00  0.00    +0.000 C 
ENDBRANCH  16  19
ENDBRANCH  12  13
ENDBRANCH   4  12
TORSDOF 6
ENDMDL
MODEL 8
REMARK VINA RESULT:      -6.3      2.891      6.942
REMARK  Name = 
REMARK  8 active torsions:
REMARK  status: ('A' for Active; 'I' for Inactive)
REMARK    1  A    between atoms: C_1  and  C_2
REMARK    2  A    between atoms: C_2  and  O_3
REMARK    3  A    between atoms: O_3  and  C_4
REMARK    4  A    between atoms: C_4  and  C_6
REMARK    5  A    between atoms: C_9  and  O_10
REMARK    6  A    between atoms: O_10  and  C_11
REMARK    7  A    between atoms: C_14  and  O_15
REMARK    8  A    between atoms: O_15  and  C_16
REMARK                            x       y       z     vdW  Elec       q    Type
REMARK                         _______ _______ _______ _____ _____    ______ ____
ROOT
ATOM      1  C   UNL     1       2.279   3.356  18.482  0.00  0.00    +0.000 A 
ATOM      2  C   UNL     1       2.445   4.535  17.743  0.00  0.00    +0.000 A 
ATOM      3  C   UNL     1       3.691   4.853  17.201  0.00  0.00    +0.000 A 
ATOM      4  C   UNL     1       4.779   4.000  17.399  0.00  0.00    +0.000 A 
ATOM      5  C   UNL     1       4.608   2.813  18.115  0.00  0.00    +0.000 A 
ATOM      6  C   UNL     1       3.371   2.506  18.684  0.00  0.00    +0.000 A 
ENDROOT
BRANCH   1   7
ATOM      7  C   UNL     1       0.947   3.078  19.066  0.00  0.00    +0.000 C 
ATOM      8  O   UNL     1       0.147   2.288  18.577  0.00  0.00    +0.000 OA
BRANCH   7   9
ATOM      9  O   UNL     1       0.719   3.895  20.121  0.00  0.00    +0.000 OA
BRANCH   9  11
ATOM     10  C   UNL     1       1.469   2.473  21.872  0.00  0.00    +0.000 C 
ATOM     11  C   UNL     1       1.681   3.807  21.175  0.00  0.00    +0.000 C 
ENDBRANCH   9  11
ENDBRANCH   7   9
ENDBRANCH   1   7
BRANCH   4  12
ATOM     12  O   UNL     1       5.957   4.383  16.799  0.00  0.00    +0.000 OA
BRANCH  12  13
ATOM     13  C   UNL     1       6.644   5.481  17.265  0.00  0.00    +0.000 A 
ATOM     14  C   UNL     1       7.369   5.295  18.443  0.00  0.00    +0.000 A 
ATOM     15  C   UNL     1       8.104   6.354  18.983  0.00  0.00    +0.000 A 
ATOM     16  C   UNL     1       8.135   7.594  18.340  0.00  0.00    +0.000 A 
ATOM     17  C   UNL     1       7.411   7.777  17.164  0.00  0.00    +0.000 A 
ATOM     18  C   UNL     1       6.697   6.712  16.611  0.00  0.00    +0.000 A 
BRANCH  16  19
ATOM     19  O   UNL     1       8.872   8.567  18.958  0.00  0.00    +0.000 OA
ATOM     20  C   UNL     1       8.742   9.870  18.399  0.00  0.00    +0.000 C 
ENDBRANCH  16  19
ENDBRANCH  12  13
ENDBRANCH   4  12
TORSDOF 6
ENDMDL
MODEL 9
REMARK VINA RESULT:      -6.2      0.424      1.115
REMARK  Name = 
REMARK  8 active torsions:
REMARK  status: ('A' for Active; 'I' for Inactive)
REMARK    1  A    between atoms: C_1  and  C_2
REMARK    2  A    between atoms: C_2  and  O_3
REMARK    3  A    between atoms: O_3  and  C_4
REMARK    4  A    between atoms: C_4  and  C_6
REMARK    5  A    between atoms: C_9  and  O_10
REMARK    6  A    between atoms: O_10  and  C_11
REMARK    7  A    between atoms: C_14  and  O_15
REMARK    8  A    between atoms: O_15  and  C_16
REMARK                            x       y       z     vdW  Elec       q    Type
REMARK                         _______ _______ _______ _____ _____    ______ ____
ROOT
ATOM      1  C   UNL     1       6.254   4.663  14.603  0.00  0.00    +0.000 A 
ATOM      2  C   UNL     1       6.826   4.041  15.721  0.00  0.00    +0.000 A 
ATOM      3  C   UNL     1       6.518   4.489  17.006  0.00  0.00    +0.000 A 
ATOM      4  C   UNL     1       5.644   5.563  17.182  0.00  0.00    +0.000 A 
ATOM      5  C   UNL     1       5.054   6.168  16.069  0.00  0.00    +0.000 A 
ATOM      6  C   UNL     1       5.383   5.742  14.781  0.00  0.00    +0.000 A 
ENDROOT
BRANCH   1   7
ATOM      7  C   UNL     1       6.636   4.175  13.258  0.00  0.00    +0.000 C 
ATOM      8  O   UNL     1       7.302   4.830  12.466  0.00  0.00    +0.000 OA
BRANCH   7   9
ATOM      9  O   UNL     1       6.050   2.979  13.011  0.00  0.00    +0.000 OA
BRANCH   9  11
ATOM     10  C   UNL     1       4.303   3.291  11.430  0.00  0.00    +0.000 C 
ATOM     11  C   UNL     1       5.705   2.745  11.643  0.00  0.00    +0.000 C 
ENDBRANCH   9  11
ENDBRANCH   7   9
ENDBRANCH   1   7
BRANCH   4  12
ATOM     12  O   UNL     1       5.377   5.911  18.487  0.00  0.00    +0.000 OA
BRANCH  12  13
ATOM     13  C   UNL     1       4.260   5.413  19.119  0.00  0.00    +0.000 A 
ATOM     14  C   UNL     1       4.284   4.051  19.424  0.00  0.00    +0.000 A 
ATOM     15  C   UNL     1       3.196   3.464  20.075  0.00  0.00    +0.000 A 
ATOM     16  C   UNL     1       2.090   4.236  20.441  0.00  0.00    +0.000 A 
ATOM     17  C   UNL     1       2.069   5.594  20.137  0.00  0.00    +0.000 A 
ATOM     18  C   UNL     1       3.166   6.187  19.509  0.00  0.00    +0.000 A 
BRANCH  16  19
ATOM     19  O   UNL     1       1.073   3.562  21.061  0.00  0.00    +0.000 OA
ATOM     20  C   UNL     1       1.485   2.509  21.927  0.00  0.00    +0.000 C 
ENDBRANCH  16  19
ENDBRANCH  12  13
ENDBRANCH   4  12
TORSDOF 6
ENDMDL
