MODEL 1
REMARK VINA RESULT:      -8.6      0.000      0.000
REMARK  Name = 
REMARK  8 active torsions:
REMARK  status: ('A' for Active; 'I' for Inactive)
REMARK    1  A    between atoms: C_1  and  S_2
REMARK    2  A    between atoms: S_2  and  C_3
REMARK    3  A    between atoms: C_6  and  C_7
REMARK    4  A    between atoms: C_7  and  C_8
REMARK    5  A    between atoms: C_8  and  N_9
REMARK    6  A    between atoms: C_10  and  C_12
REMARK    7  A    between atoms: C_12  and  N_13
REMARK    8  A    between atoms: C_26  and  C_27
REMARK                            x       y       z     vdW  Elec       q    Type
REMARK                         _______ _______ _______ _____ _____    ______ ____
ROOT
ATOM      1  N   UNL     1       5.200   3.770  18.001  0.00  0.00    +0.000 N 
ATOM      2  C   UNL     1       4.610   3.337  19.167  0.00  0.00    +0.000 C 
ATOM      3  O   UNL     1       5.234   2.581  19.925  0.00  0.00    +0.000 OA
ATOM      4  C   UNL     1       3.249   3.739  19.541  0.00  0.00    +0.000 A 
ATOM      5  C   UNL     1       2.638   2.947  20.544  0.00  0.00    +0.000 A 
ATOM      6  C   UNL     1       1.449   3.346  21.123  0.00  0.00    +0.000 A 
ATOM      7  C   UNL     1       0.871   4.507  20.653  0.00  0.00    +0.000 A 
ATOM      8  N   UNL     1       1.418   5.279  19.690  0.00  0.00    +0.000 NA
ATOM      9  C   UNL     1       2.614   4.908  19.152  0.00  0.00    +0.000 A 
ATOM     10  O   UNL     1       3.176   5.927  18.422  0.00  0.00    +0.000 OA
ATOM     11  C   UNL     1       3.947   5.699  17.315  0.00  0.00    +0.000 A 
ATOM     12  C   UNL     1       4.322   6.836  16.588  0.00  0.00    +0.000 A 
ATOM     13  C   UNL     1       5.274   6.745  15.560  0.00  0.00    +0.000 A 
ATOM     14  C   UNL     1       5.715   5.493  15.128  0.00  0.00    +0.000 A 
ATOM     15  C   UNL     1       6.874   5.306  14.196  0.00  0.00    +0.000 C 
ATOM     16  C   UNL     1       5.181   4.359  15.730  0.00  0.00    +0.000 A 
ATOM     17  C   UNL     1       4.555   4.501  16.974  0.00  0.00    +0.000 A 
ENDROOT
BRANCH   1  18
ATOM     18  C   UNL     1       6.675   3.960  18.065  0.00  0.00    +0.000 C 
BRANCH  18  20
ATOM     19  N   UNL     1       7.812   6.111  18.079  0.00  0.00    +0.000 N 
ATOM     20  C   UNL     1       7.128   5.195  18.831  0.00  0.00    +0.000 C 
ATOM     21  O   UNL     1       6.970   5.299  20.048  0.00  0.00    +0.000 OA
ATOM     22  H   UNL     1       7.836   5.971  17.072  0.00  0.00    +0.000 HD
BRANCH  19  23
ATOM     23  C   UNL     1       8.244   7.384  18.642  0.00  0.00    +0.000 C 
BRANCH  23  24
ATOM     24  C   UNL     1       7.912   8.572  17.739  0.00  0.00    +0.000 C 
BRANCH  24  28
ATOM     25  C   UNL     1       9.544  12.356  19.086  0.00  0.00    +0.000 A 
ATOM     26  C   UNL     1       9.790  11.174  19.802  0.00  0.00    +0.000 A 
ATOM     27  C   UNL     1       9.268   9.954  19.368  0.00  0.00    +0.000 A 
ATOM     28  C   UNL     1       8.500   9.882  18.201  0.00  0.00    +0.000 A 
ATOM     29  C   UNL     1       8.259  11.060  17.482  0.00  0.00    +0.000 A 
ATOM     30  C   UNL     1       8.776  12.283  17.923  0.00  0.00    +0.000 A 
BRANCH  25  32
ATOM     31  C   UNL     1       9.874  15.069  18.424  0.00  0.00    +0.000 C 
ATOM     32  S   UNL     1      10.184  13.882  19.760  0.00  0.00    +0.000 S 
ENDBRANCH  25  32
ENDBRANCH  24  28
ENDBRANCH  23  24
ENDBRANCH  19  23
ENDBRANCH  18  20
ENDBRANCH   1  18
TORSDOF 6
ENDMDL
MODEL 2
REMARK VINA RESULT:      -8.1      4.656      7.464
REMARK  Name = 
REMARK  8 active torsions:
REMARK  status: ('A' for Active; 'I' for Inactive)
REMARK    1  A    between atoms: C_1  and  S_2
REMARK    2  A    between atoms: S_2  and  C_3
REMARK    3  A    between atoms: C_6  and  C_7
REMARK    4  A    between atoms: C_7  and  C_8
REMARK    5  A    between atoms: C_8  and  N_9
REMARK    6  A    between atoms: C_10  and  C_12
REMARK    7  A    between atoms: C_12  and  N_13
REMARK    8  A    between atoms: C_26  and  C_27
REMARK                            x       y       z     vdW  Elec       q    Type
REMARK                         _______ _______ _______ _____ _____    ______ ____
ROOT
ATOM      1  N   UNL     1       3.252   5.334  17.895  0.00  0.00    +0.000 N 
ATOM      2  C   UNL     1       4.143   6.368  17.715  0.00  0.00    +0.000 C 
ATOM      3  O   UNL     1       3.732   7.470  17.324  0.00  0.00    +0.000 OA
ATOM      4  C   UNL     1       5.580   6.204  17.964  0.00  0.00    +0.000 A 
ATOM      5  C   UNL     1       6.411   7.199  17.395  0.00  0.00    +0.000 A 
ATOM      6  C   UNL     1       7.749   7.269  17.730  0.00  0.00    +0.000 A 
ATOM      7  C   UNL     1       8.241   6.310  18.591  0.00  0.00    +0.000 A 
ATOM      8  N   UNL     1       7.481   5.339  19.142  0.00  0.00    +0.000 NA
ATOM      9  C   UNL     1       6.150   5.300  18.847  0.00  0.00    +0.000 A 
ATOM     10  O   UNL     1       5.470   4.464  19.698  0.00  0.00    +0.000 OA
ATOM     11  C   UNL     1       4.374   3.747  19.303  0.00  0.00    +0.000 A 
ATOM     12  C   UNL     1       3.880   2.825  20.235  0.00  0.00    +0.000 A 
ATOM     13  C   UNL     1       2.649   2.184  20.023  0.00  0.00    +0.000 A 
ATOM     14  C   UNL     1       1.997   2.317  18.796  0.00  0.00    +0.000 A 
ATOM     15  C   UNL     1       0.592   1.852  18.556  0.00  0.00    +0.000 C 
ATOM     16  C   UNL     1       2.601   3.082  17.804  0.00  0.00    +0.000 A 
ATOM     17  C   UNL     1       3.597   3.992  18.182  0.00  0.00    +0.000 A 
ENDROOT
BRANCH   1  18
ATOM     18  C   UNL     1       1.893   5.736  18.348  0.00  0.00    +0.000 C 
BRANCH  18  20
ATOM     19  N   UNL     1       1.819   7.659  19.837  0.00  0.00    +0.000 N 
ATOM     20  C   UNL     1       1.828   6.293  19.763  0.00  0.00    +0.000 C 
ATOM     21  O   UNL     1       1.879   5.561  20.752  0.00  0.00    +0.000 OA
ATOM     22  H   UNL     1       1.711   8.177  18.969  0.00  0.00    +0.000 HD
BRANCH  19  23
ATOM     23  C   UNL     1       1.677   8.349  21.113  0.00  0.00    +0.000 C 
BRANCH  23  24
ATOM     24  C   UNL     1       0.225   8.425  21.585  0.00  0.00    +0.000 C 
BRANCH  24  28
ATOM     25  C   UNL     1      -1.355  12.445  21.955  0.00  0.00    +0.000 A 
ATOM     26  C   UNL     1      -1.323  11.583  23.062  0.00  0.00    +0.000 A 
ATOM     27  C   UNL     1      -0.811  10.289  22.946  0.00  0.00    +0.000 A 
ATOM     28  C   UNL     1      -0.307   9.830  21.725  0.00  0.00    +0.000 A 
ATOM     29  C   UNL     1      -0.333  10.691  20.621  0.00  0.00    +0.000 A 
ATOM     30  C   UNL     1      -0.853  11.984  20.737  0.00  0.00    +0.000 A 
BRANCH  25  32
ATOM     31  C   UNL     1      -1.888  14.349  23.955  0.00  0.00    +0.000 C 
ATOM     32  S   UNL     1      -2.102  14.053  22.178  0.00  0.00    +0.000 S 
ENDBRANCH  25  32
ENDBRANCH  24  28
ENDBRANCH  23  24
ENDBRANCH  19  23
ENDBRANCH  18  20
ENDBRANCH   1  18
TORSDOF 6
ENDMDL
MODEL 3
REMARK VINA RESULT:      -8.1      0.805      1.180
REMARK  Name = 
REMARK  8 active torsions:
REMARK  status: ('A' for Active; 'I' for Inactive)
REMARK    1  A    between atoms: C_1  and  S_2
REMARK    2  A    between atoms: S_2  and  C_3
REMARK    3  A    between atoms: C_6  and  C_7
REMARK    4  A    between atoms: C_7  and  C_8
REMARK    5  A    between atoms: C_8  and  N_9
REMARK    6  A    between atoms: C_10  and  C_12
REMARK    7  A    between atoms: C_12  and  N_13
REMARK    8  A    between atoms: C_26  and  C_27
REMARK                            x       y       z     vdW  Elec       q    Type
REMARK                         _______ _______ _______ _____ _____    ______ ____
ROOT
ATOM      1  N   UNL     1       5.450   4.095  17.834  0.00  0.00    +0.000 N 
ATOM      2  C   UNL     1       4.931   3.901  19.094  0.00  0.00    +0.000 C 
ATOM      3  O   UNL     1       5.545   3.198  19.908  0.00  0.00    +0.000 OA
ATOM      4  C   UNL     1       3.655   4.498  19.506  0.00  0.00    +0.000 A 
ATOM      5  C   UNL     1       3.065   3.930  20.661  0.00  0.00    +0.000 A 
ATOM      6  C   UNL     1       1.979   4.536  21.262  0.00  0.00    +0.000 A 
ATOM      7  C   UNL     1       1.474   5.673  20.667  0.00  0.00    +0.000 A 
ATOM      8  N   UNL     1       2.003   6.235  19.559  0.00  0.00    +0.000 NA
ATOM      9  C   UNL     1       3.103   5.662  18.993  0.00  0.00    +0.000 A 
ATOM     10  O   UNL     1       3.692   6.499  18.076  0.00  0.00    +0.000 OA
ATOM     11  C   UNL     1       4.331   6.031  16.961  0.00  0.00    +0.000 A 
ATOM     12  C   UNL     1       4.746   7.005  16.043  0.00  0.00    +0.000 A 
ATOM     13  C   UNL     1       5.587   6.664  14.971  0.00  0.00    +0.000 A 
ATOM     14  C   UNL     1       5.863   5.322  14.701  0.00  0.00    +0.000 A 
ATOM     15  C   UNL     1       6.908   4.878  13.723  0.00  0.00    +0.000 C 
ATOM     16  C   UNL     1       5.280   4.351  15.508  0.00  0.00    +0.000 A 
ATOM     17  C   UNL     1       4.787   4.738  16.761  0.00  0.00    +0.000 A 
ENDROOT
BRANCH   1  18
ATOM     18  C   UNL     1       6.936   4.130  17.756  0.00  0.00    +0.000 C 
BRANCH  18  20
ATOM     19  N   UNL     1       7.632   6.457  17.907  0.00  0.00    +0.000 N 
ATOM     20  C   UNL     1       7.593   5.250  18.551  0.00  0.00    +0.000 C 
ATOM     21  O   UNL     1       8.127   5.046  19.641  0.00  0.00    +0.000 OA
ATOM     22  H   UNL     1       7.108   6.546  17.040  0.00  0.00    +0.000 HD
BRANCH  19  23
ATOM     23  C   UNL     1       8.153   7.650  18.562  0.00  0.00    +0.000 C 
BRANCH  23  24
ATOM     24  C   UNL     1       8.049   8.898  17.686  0.00  0.00    +0.000 C 
BRANCH  24  28
ATOM     25  C   UNL     1       9.886  12.425  19.413  0.00  0.00    +0.000 A 
ATOM     26  C   UNL     1       9.143  12.512  18.226  0.00  0.00    +0.000 A 
ATOM     27  C   UNL     1       8.547  11.378  17.670  0.00  0.00    +0.000 A 
ATOM     28  C   UNL     1       8.669  10.132  18.294  0.00  0.00    +0.000 A 
ATOM     29  C   UNL     1       9.406  10.045  19.482  0.00  0.00    +0.000 A 
ATOM     30  C   UNL     1      10.008  11.180  20.033  0.00  0.00    +0.000 A 
BRANCH  25  32
ATOM     31  C   UNL     1      11.926  14.235  18.730  0.00  0.00    +0.000 C 
ATOM     32  S   UNL     1      10.679  13.913  20.006  0.00  0.00    +0.000 S 
ENDBRANCH  25  32
ENDBRANCH  24  28
ENDBRANCH  23  24
ENDBRANCH  19  23
ENDBRANCH  18  20
ENDBRANCH   1  18
TORSDOF 6
ENDMDL
MODEL 4
REMARK VINA RESULT:      -8.0      4.947      8.080
REMARK  Name = 
REMARK  8 active torsions:
REMARK  status: ('A' for Active; 'I' for Inactive)
REMARK    1  A    between atoms: C_1  and  S_2
REMARK    2  A    between atoms: S_2  and  C_3
REMARK    3  A    between atoms: C_6  and  C_7
REMARK    4  A    between atoms: C_7  and  C_8
REMARK    5  A    between atoms: C_8  and  N_9
REMARK    6  A    between atoms: C_10  and  C_12
REMARK    7  A    between atoms: C_12  and  N_13
REMARK    8  A    between atoms: C_26  and  C_27
REMARK                            x       y       z     vdW  Elec       q    Type
REMARK                         _______ _______ _______ _____ _____    ______ ____
ROOT
ATOM      1  N   UNL     1       3.454   5.472  17.975  0.00  0.00    +0.000 N 
ATOM      2  C   UNL     1       4.445   6.064  17.224  0.00  0.00    +0.000 C 
ATOM      3  O   UNL     1       4.794   7.226  17.477  0.00  0.00    +0.000 OA
ATOM      4  C   UNL     1       5.102   5.360  16.117  0.00  0.00    +0.000 A 
ATOM      5  C   UNL     1       5.813   6.185  15.212  0.00  0.00    +0.000 A 
ATOM      6  C   UNL     1       6.638   5.626  14.255  0.00  0.00    +0.000 A 
ATOM      7  C   UNL     1       6.698   4.249  14.192  0.00  0.00    +0.000 A 
ATOM      8  N   UNL     1       6.024   3.432  15.030  0.00  0.00    +0.000 NA
ATOM      9  C   UNL     1       5.246   3.986  16.003  0.00  0.00    +0.000 A 
ATOM     10  O   UNL     1       4.875   3.055  16.943  0.00  0.00    +0.000 OA
ATOM     11  C   UNL     1       3.677   3.112  17.599  0.00  0.00    +0.000 A 
ATOM     12  C   UNL     1       3.375   2.012  18.413  0.00  0.00    +0.000 A 
ATOM     13  C   UNL     1       2.277   2.051  19.288  0.00  0.00    +0.000 A 
ATOM     14  C   UNL     1       1.368   3.108  19.218  0.00  0.00    +0.000 A 
ATOM     15  C   UNL     1       0.298   3.342  20.242  0.00  0.00    +0.000 C 
ATOM     16  C   UNL     1       1.575   4.098  18.264  0.00  0.00    +0.000 A 
ATOM     17  C   UNL     1       2.852   4.221  17.701  0.00  0.00    +0.000 A 
ENDROOT
BRANCH   1  18
ATOM     18  C   UNL     1       3.404   5.886  19.404  0.00  0.00    +0.000 C 
BRANCH  18  20
ATOM     19  N   UNL     1       2.378   8.052  18.983  0.00  0.00    +0.000 N 
ATOM     20  C   UNL     1       2.329   6.911  19.736  0.00  0.00    +0.000 C 
ATOM     21  O   UNL     1       1.547   6.751  20.674  0.00  0.00    +0.000 OA
ATOM     22  H   UNL     1       3.014   8.065  18.189  0.00  0.00    +0.000 HD
BRANCH  19  23
ATOM     23  C   UNL     1       1.371   9.096  19.120  0.00  0.00    +0.000 C 
BRANCH  23  24
ATOM     24  C   UNL     1       0.615   9.362  17.818  0.00  0.00    +0.000 C 
BRANCH  24  28
ATOM     25  C   UNL     1      -3.211  11.324  18.372  0.00  0.00    +0.000 A 
ATOM     26  C   UNL     1      -2.142  11.578  19.245  0.00  0.00    +0.000 A 
ATOM     27  C   UNL     1      -0.908  10.950  19.067  0.00  0.00    +0.000 A 
ATOM     28  C   UNL     1      -0.708  10.064  18.003  0.00  0.00    +0.000 A 
ATOM     29  C   UNL     1      -1.772   9.814  17.128  0.00  0.00    +0.000 A 
ATOM     30  C   UNL     1      -3.010  10.438  17.313  0.00  0.00    +0.000 A 
BRANCH  25  32
ATOM     31  C   UNL     1      -5.968  10.775  18.436  0.00  0.00    +0.000 C 
ATOM     32  S   UNL     1      -4.776  12.111  18.726  0.00  0.00    +0.000 S 
ENDBRANCH  25  32
ENDBRANCH  24  28
ENDBRANCH  23  24
ENDBRANCH  19  23
ENDBRANCH  18  20
ENDBRANCH   1  18
TORSDOF 6
ENDMDL
MODEL 5
REMARK VINA RESULT:      -8.0      4.646      7.385
REMARK  Name = 
REMARK  8 active torsions:
REMARK  status: ('A' for Active; 'I' for Inactive)
REMARK    1  A    between atoms: C_1  and  S_2
REMARK    2  A    between atoms: S_2  and  C_3
REMARK    3  A    between atoms: C_6  and  C_7
REMARK    4  A    between atoms: C_7  and  C_8
REMARK    5  A    between atoms: C_8  and  N_9
REMARK    6  A    between atoms: C_10  and  C_12
REMARK    7  A    between atoms: C_12  and  N_13
REMARK    8  A    between atoms: C_26  and  C_27
REMARK                            x       y       z     vdW  Elec       q    Type
REMARK                         _______ _______ _______ _____ _____    ______ ____
ROOT
ATOM      1  N   UNL     1       3.246   5.359  17.929  0.00  0.00    +0.000 N 
ATOM      2  C   UNL     1       4.132   6.400  17.765  0.00  0.00    +0.000 C 
ATOM      3  O   UNL     1       3.713   7.514  17.421  0.00  0.00    +0.000 OA
ATOM      4  C   UNL     1       5.575   6.228  17.977  0.00  0.00    +0.000 A 
ATOM      5  C   UNL     1       6.393   7.243  17.425  0.00  0.00    +0.000 A 
ATOM      6  C   UNL     1       7.738   7.303  17.733  0.00  0.00    +0.000 A 
ATOM      7  C   UNL     1       8.248   6.316  18.550  0.00  0.00    +0.000 A 
ATOM      8  N   UNL     1       7.501   5.326  19.084  0.00  0.00    +0.000 NA
ATOM      9  C   UNL     1       6.164   5.295  18.816  0.00  0.00    +0.000 A 
ATOM     10  O   UNL     1       5.502   4.430  19.654  0.00  0.00    +0.000 OA
ATOM     11  C   UNL     1       4.399   3.726  19.258  0.00  0.00    +0.000 A 
ATOM     12  C   UNL     1       3.925   2.772  20.169  0.00  0.00    +0.000 A 
ATOM     13  C   UNL     1       2.689   2.139  19.961  0.00  0.00    +0.000 A 
ATOM     14  C   UNL     1       2.011   2.312  18.754  0.00  0.00    +0.000 A 
ATOM     15  C   UNL     1       0.601   1.854  18.529  0.00  0.00    +0.000 C 
ATOM     16  C   UNL     1       2.594   3.111  17.776  0.00  0.00    +0.000 A 
ATOM     17  C   UNL     1       3.597   4.008  18.163  0.00  0.00    +0.000 A 
ENDROOT
BRANCH   1  18
ATOM     18  C   UNL     1       1.897   5.745  18.425  0.00  0.00    +0.000 C 
BRANCH  18  20
ATOM     19  N   UNL     1       1.668   7.618  19.960  0.00  0.00    +0.000 N 
ATOM     20  C   UNL     1       1.865   6.268  19.854  0.00  0.00    +0.000 C 
ATOM     21  O   UNL     1       2.096   5.539  20.818  0.00  0.00    +0.000 OA
ATOM     22  H   UNL     1       1.421   8.126  19.114  0.00  0.00    +0.000 HD
BRANCH  19  23
ATOM     23  C   UNL     1       1.531   8.265  21.259  0.00  0.00    +0.000 C 
BRANCH  23  24
ATOM     24  C   UNL     1       0.075   8.556  21.622  0.00  0.00    +0.000 C 
BRANCH  24  28
ATOM     25  C   UNL     1      -0.793  12.776  22.104  0.00  0.00    +0.000 A 
ATOM     26  C   UNL     1      -0.126  12.307  20.962  0.00  0.00    +0.000 A 
ATOM     27  C   UNL     1       0.151  10.948  20.803  0.00  0.00    +0.000 A 
ATOM     28  C   UNL     1      -0.243  10.023  21.775  0.00  0.00    +0.000 A 
ATOM     29  C   UNL     1      -0.914  10.488  22.913  0.00  0.00    +0.000 A 
ATOM     30  C   UNL     1      -1.184  11.851  23.074  0.00  0.00    +0.000 A 
BRANCH  25  32
ATOM     31  C   UNL     1      -2.759  14.754  21.744  0.00  0.00    +0.000 C 
ATOM     32  S   UNL     1      -1.033  14.540  22.259  0.00  0.00    +0.000 S 
ENDBRANCH  25  32
ENDBRANCH  24  28
ENDBRANCH  23  24
ENDBRANCH  19  23
ENDBRANCH  18  20
ENDBRANCH   1  18
TORSDOF 6
ENDMDL
MODEL 6
REMARK VINA RESULT:      -7.9      1.553      1.852
REMARK  Name = 
REMARK  8 active torsions:
REMARK  status: ('A' for Active; 'I' for Inactive)
REMARK    1  A    between atoms: C_1  and  S_2
REMARK    2  A    between atoms: S_2  and  C_3
REMARK    3  A    between atoms: C_6  and  C_7
REMARK    4  A    between atoms: C_7  and  C_8
REMARK    5  A    between atoms: C_8  and  N_9
REMARK    6  A    between atoms: C_10  and  C_12
REMARK    7  A    between atoms: C_12  and  N_13
REMARK    8  A    between atoms: C_26  and  C_27
REMARK                            x       y       z     vdW  Elec       q    Type
REMARK                         _______ _______ _______ _____ _____    ______ ____
ROOT
ATOM      1  N   UNL     1       4.322   4.835  18.463  0.00  0.00    +0.000 N 
ATOM      2  C   UNL     1       3.700   5.293  19.602  0.00  0.00    +0.000 C 
ATOM      3  O   UNL     1       3.922   4.738  20.687  0.00  0.00    +0.000 OA
ATOM      4  C   UNL     1       2.764   6.424  19.573  0.00  0.00    +0.000 A 
ATOM      5  C   UNL     1       1.929   6.549  20.709  0.00  0.00    +0.000 A 
ATOM      6  C   UNL     1       1.159   7.681  20.890  0.00  0.00    +0.000 A 
ATOM      7  C   UNL     1       1.204   8.646  19.905  0.00  0.00    +0.000 A 
ATOM      8  N   UNL     1       1.978   8.554  18.803  0.00  0.00    +0.000 NA
ATOM      9  C   UNL     1       2.773   7.457  18.648  0.00  0.00    +0.000 A 
ATOM     10  O   UNL     1       3.704   7.645  17.656  0.00  0.00    +0.000 OA
ATOM     11  C   UNL     1       4.155   6.622  16.868  0.00  0.00    +0.000 A 
ATOM     12  C   UNL     1       4.986   6.993  15.803  0.00  0.00    +0.000 A 
ATOM     13  C   UNL     1       5.668   6.018  15.057  0.00  0.00    +0.000 A 
ATOM     14  C   UNL     1       5.379   4.666  15.247  0.00  0.00    +0.000 A 
ATOM     15  C   UNL     1       6.200   3.559  14.657  0.00  0.00    +0.000 C 
ATOM     16  C   UNL     1       4.403   4.322  16.175  0.00  0.00    +0.000 A 
ATOM     17  C   UNL     1       4.045   5.268  17.144  0.00  0.00    +0.000 A 
ENDROOT
BRANCH   1  18
ATOM     18  C   UNL     1       5.691   4.287  18.662  0.00  0.00    +0.000 C 
BRANCH  18  20
ATOM     19  N   UNL     1       7.152   6.180  18.212  0.00  0.00    +0.000 N 
ATOM     20  C   UNL     1       6.718   5.294  19.160  0.00  0.00    +0.000 C 
ATOM     21  O   UNL     1       7.183   5.238  20.299  0.00  0.00    +0.000 OA
ATOM     22  H   UNL     1       6.664   6.192  17.320  0.00  0.00    +0.000 HD
BRANCH  19  23
ATOM     23  C   UNL     1       8.073   7.259  18.547  0.00  0.00    +0.000 C 
BRANCH  23  24
ATOM     24  C   UNL     1       7.953   8.453  17.601  0.00  0.00    +0.000 C 
BRANCH  24  28
ATOM     25  C   UNL     1       9.470  12.174  19.229  0.00  0.00    +0.000 A 
ATOM     26  C   UNL     1       9.731  10.953  19.868  0.00  0.00    +0.000 A 
ATOM     27  C   UNL     1       9.247   9.753  19.344  0.00  0.00    +0.000 A 
ATOM     28  C   UNL     1       8.501   9.743  18.161  0.00  0.00    +0.000 A 
ATOM     29  C   UNL     1       8.244  10.960  17.518  0.00  0.00    +0.000 A 
ATOM     30  C   UNL     1       8.723  12.162  18.049  0.00  0.00    +0.000 A 
BRANCH  25  32
ATOM     31  C   UNL     1      10.206  14.820  18.624  0.00  0.00    +0.000 C 
ATOM     32  S   UNL     1      10.061  13.666  20.016  0.00  0.00    +0.000 S 
ENDBRANCH  25  32
ENDBRANCH  24  28
ENDBRANCH  23  24
ENDBRANCH  19  23
ENDBRANCH  18  20
ENDBRANCH   1  18
TORSDOF 6
ENDMDL
MODEL 7
REMARK VINA RESULT:      -7.8      4.761      7.685
REMARK  Name = 
REMARK  8 active torsions:
REMARK  status: ('A' for Active; 'I' for Inactive)
REMARK    1  A    between atoms: C_1  and  S_2
REMARK    2  A    between atoms: S_2  and  C_3
REMARK    3  A    between atoms: C_6  and  C_7
REMARK    4  A    between atoms: C_7  and  C_8
REMARK    5  A    between atoms: C_8  and  N_9
REMARK    6  A    between atoms: C_10  and  C_12
REMARK    7  A    between atoms: C_12  and  N_13
REMARK    8  A    between atoms: C_26  and  C_27
REMARK                            x       y       z     vdW  Elec       q    Type
REMARK                         _______ _______ _______ _____ _____    ______ ____
ROOT
ATOM      1  N   UNL     1       3.514   5.439  17.939  0.00  0.00    +0.000 N 
ATOM      2  C   UNL     1       4.493   6.011  17.159  0.00  0.00    +0.000 C 
ATOM      3  O   UNL     1       4.842   7.180  17.372  0.00  0.00    +0.000 OA
ATOM      4  C   UNL     1       5.137   5.276  16.064  0.00  0.00    +0.000 A 
ATOM      5  C   UNL     1       5.834   6.076  15.126  0.00  0.00    +0.000 A 
ATOM      6  C   UNL     1       6.648   5.491  14.175  0.00  0.00    +0.000 A 
ATOM      7  C   UNL     1       6.710   4.113  14.152  0.00  0.00    +0.000 A 
ATOM      8  N   UNL     1       6.050   3.319  15.022  0.00  0.00    +0.000 NA
ATOM      9  C   UNL     1       5.284   3.900  15.989  0.00  0.00    +0.000 A 
ATOM     10  O   UNL     1       4.928   2.996  16.960  0.00  0.00    +0.000 OA
ATOM     11  C   UNL     1       3.738   3.069  17.630  0.00  0.00    +0.000 A 
ATOM     12  C   UNL     1       3.450   1.993  18.480  0.00  0.00    +0.000 A 
ATOM     13  C   UNL     1       2.363   2.055  19.368  0.00  0.00    +0.000 A 
ATOM     14  C   UNL     1       1.451   3.107  19.279  0.00  0.00    +0.000 A 
ATOM     15  C   UNL     1       0.394   3.369  20.310  0.00  0.00    +0.000 C 
ATOM     16  C   UNL     1       1.642   4.069  18.294  0.00  0.00    +0.000 A 
ATOM     17  C   UNL     1       2.911   4.179  17.711  0.00  0.00    +0.000 A 
ENDROOT
BRANCH   1  18
ATOM     18  C   UNL     1       3.482   5.895  19.356  0.00  0.00    +0.000 C 
BRANCH  18  20
ATOM     19  N   UNL     1       1.745   6.721  20.846  0.00  0.00    +0.000 N 
ATOM     20  C   UNL     1       2.413   6.932  19.671  0.00  0.00    +0.000 C 
ATOM     21  O   UNL     1       2.120   7.825  18.875  0.00  0.00    +0.000 OA
ATOM     22  H   UNL     1       2.100   5.998  21.467  0.00  0.00    +0.000 HD
BRANCH  19  23
ATOM     23  C   UNL     1       0.748   7.667  21.333  0.00  0.00    +0.000 C 
BRANCH  23  24
ATOM     24  C   UNL     1       1.374   8.907  21.971  0.00  0.00    +0.000 C 
BRANCH  24  28
ATOM     25  C   UNL     1      -1.356  12.262  22.257  0.00  0.00    +0.000 A 
ATOM     26  C   UNL     1      -1.457  11.179  23.143  0.00  0.00    +0.000 A 
ATOM     27  C   UNL     1      -0.576  10.099  23.055  0.00  0.00    +0.000 A 
ATOM     28  C   UNL     1       0.434  10.082  22.089  0.00  0.00    +0.000 A 
ATOM     29  C   UNL     1       0.540  11.165  21.207  0.00  0.00    +0.000 A 
ATOM     30  C   UNL     1      -0.348  12.242  21.292  0.00  0.00    +0.000 A 
BRANCH  25  32
ATOM     31  C   UNL     1      -3.925  12.748  23.293  0.00  0.00    +0.000 C 
ATOM     32  S   UNL     1      -2.576  13.561  22.394  0.00  0.00    +0.000 S 
ENDBRANCH  25  32
ENDBRANCH  24  28
ENDBRANCH  23  24
ENDBRANCH  19  23
ENDBRANCH  18  20
ENDBRANCH   1  18
TORSDOF 6
ENDMDL
MODEL 8
REMARK VINA RESULT:      -7.7      4.369      6.858
REMARK  Name = 
REMARK  8 active torsions:
REMARK  status: ('A' for Active; 'I' for Inactive)
REMARK    1  A    between atoms: C_1  and  S_2
REMARK    2  A    between atoms: S_2  and  C_3
REMARK    3  A    between atoms: C_6  and  C_7
REMARK    4  A    between atoms: C_7  and  C_8
REMARK    5  A    between atoms: C_8  and  N_9
REMARK    6  A    between atoms: C_10  and  C_12
REMARK    7  A    between atoms: C_12  and  N_13
REMARK    8  A    between atoms: C_26  and  C_27
REMARK                            x       y       z     vdW  Elec       q    Type
REMARK                         _______ _______ _______ _____ _____    ______ ____
ROOT
ATOM      1  N   UNL     1       3.269   5.306  17.904  0.00  0.00    +0.000 N 
ATOM      2  C   UNL     1       4.146   6.354  17.742  0.00  0.00    +0.000 C 
ATOM      3  O   UNL     1       3.721   7.456  17.370  0.00  0.00    +0.000 OA
ATOM      4  C   UNL     1       5.585   6.204  17.990  0.00  0.00    +0.000 A 
ATOM      5  C   UNL     1       6.403   7.220  17.439  0.00  0.00    +0.000 A 
ATOM      6  C   UNL     1       7.740   7.301  17.776  0.00  0.00    +0.000 A 
ATOM      7  C   UNL     1       8.243   6.335  18.622  0.00  0.00    +0.000 A 
ATOM      8  N   UNL     1       7.496   5.345  19.156  0.00  0.00    +0.000 NA
ATOM      9  C   UNL     1       6.166   5.293  18.859  0.00  0.00    +0.000 A 
ATOM     10  O   UNL     1       5.496   4.435  19.696  0.00  0.00    +0.000 OA
ATOM     11  C   UNL     1       4.410   3.710  19.287  0.00  0.00    +0.000 A 
ATOM     12  C   UNL     1       3.928   2.766  20.204  0.00  0.00    +0.000 A 
ATOM     13  C   UNL     1       2.704   2.113  19.979  0.00  0.00    +0.000 A 
ATOM     14  C   UNL     1       2.052   2.258  18.754  0.00  0.00    +0.000 A 
ATOM     15  C   UNL     1       0.654   1.778  18.505  0.00  0.00    +0.000 C 
ATOM     16  C   UNL     1       2.647   3.047  17.776  0.00  0.00    +0.000 A 
ATOM     17  C   UNL     1       3.631   3.963  18.170  0.00  0.00    +0.000 A 
ENDROOT
BRANCH   1  18
ATOM     18  C   UNL     1       1.903   5.682  18.363  0.00  0.00    +0.000 C 
BRANCH  18  20
ATOM     19  N   UNL     1       1.803   7.544  19.926  0.00  0.00    +0.000 N 
ATOM     20  C   UNL     1       1.825   6.182  19.798  0.00  0.00    +0.000 C 
ATOM     21  O   UNL     1       1.877   5.412  20.758  0.00  0.00    +0.000 OA
ATOM     22  H   UNL     1       1.696   8.095  19.078  0.00  0.00    +0.000 HD
BRANCH  19  23
ATOM     23  C   UNL     1       1.647   8.182  21.227  0.00  0.00    +0.000 C 
BRANCH  23  24
ATOM     24  C   UNL     1       0.288   8.860  21.393  0.00  0.00    +0.000 C 
BRANCH  24  28
ATOM     25  C   UNL     1      -0.086  12.716  19.447  0.00  0.00    +0.000 A 
ATOM     26  C   UNL     1       0.857  12.516  20.466  0.00  0.00    +0.000 A 
ATOM     27  C   UNL     1       0.981  11.274  21.092  0.00  0.00    +0.000 A 
ATOM     28  C   UNL     1       0.177  10.198  20.705  0.00  0.00    +0.000 A 
ATOM     29  C   UNL     1      -0.761  10.394  19.683  0.00  0.00    +0.000 A 
ATOM     30  C   UNL     1      -0.890  11.642  19.063  0.00  0.00    +0.000 A 
BRANCH  25  32
ATOM     31  C   UNL     1       0.270  15.416  20.147  0.00  0.00    +0.000 C 
ATOM     32  S   UNL     1      -0.229  14.360  18.760  0.00  0.00    +0.000 S 
ENDBRANCH  25  32
ENDBRANCH  24  28
ENDBRANCH  23  24
ENDBRANCH  19  23
ENDBRANCH  18  20
ENDBRANCH   1  18
TORSDOF 6
ENDMDL
MODEL 9
REMARK VINA RESULT:      -7.7      4.742      7.584
REMARK  Name = 
REMARK  8 active torsions:
REMARK  status: ('A' for Active; 'I' for Inactive)
REMARK    1  A    between atoms: C_1  and  S_2
REMARK    2  A    between atoms: S_2  and  C_3
REMARK    3  A    between atoms: C_6  and  C_7
REMARK    4  A    between atoms: C_7  and  C_8
REMARK    5  A    between atoms: C_8  and  N_9
REMARK    6  A    between atoms: C_10  and  C_12
REMARK    7  A    between atoms: C_12  and  N_13
REMARK    8  A    between atoms: C_26  and  C_27
REMARK                            x       y       z     vdW  Elec       q    Type
REMARK                         _______ _______ _______ _____ _____    ______ ____
ROOT
ATOM      1  N   UNL     1       3.551   5.471  17.870  0.00  0.00    +0.000 N 
ATOM      2  C   UNL     1       4.528   6.035  17.080  0.00  0.00    +0.000 C 
ATOM      3  O   UNL     1       4.865   7.212  17.268  0.00  0.00    +0.000 OA
ATOM      4  C   UNL     1       5.182   5.282  16.003  0.00  0.00    +0.000 A 
ATOM      5  C   UNL     1       5.875   6.066  15.050  0.00  0.00    +0.000 A 
ATOM      6  C   UNL     1       6.696   5.468  14.114  0.00  0.00    +0.000 A 
ATOM      7  C   UNL     1       6.771   4.091  14.122  0.00  0.00    +0.000 A 
ATOM      8  N   UNL     1       6.115   3.310  15.007  0.00  0.00    +0.000 NA
ATOM      9  C   UNL     1       5.341   3.905  15.959  0.00  0.00    +0.000 A 
ATOM     10  O   UNL     1       4.990   3.020  16.949  0.00  0.00    +0.000 OA
ATOM     11  C   UNL     1       3.797   3.097  17.614  0.00  0.00    +0.000 A 
ATOM     12  C   UNL     1       3.516   2.038  18.487  0.00  0.00    +0.000 A 
ATOM     13  C   UNL     1       2.426   2.110  19.370  0.00  0.00    +0.000 A 
ATOM     14  C   UNL     1       1.504   3.152  19.255  0.00  0.00    +0.000 A 
ATOM     15  C   UNL     1       0.443   3.427  20.277  0.00  0.00    +0.000 C 
ATOM     16  C   UNL     1       1.691   4.094  18.249  0.00  0.00    +0.000 A 
ATOM     17  C   UNL     1       2.961   4.201  17.668  0.00  0.00    +0.000 A 
ENDROOT
BRANCH   1  18
ATOM     18  C   UNL     1       3.511   5.958  19.276  0.00  0.00    +0.000 C 
BRANCH  18  20
ATOM     19  N   UNL     1       1.766   6.778  20.760  0.00  0.00    +0.000 N 
ATOM     20  C   UNL     1       2.415   6.972  19.571  0.00  0.00    +0.000 C 
ATOM     21  O   UNL     1       2.086   7.831  18.752  0.00  0.00    +0.000 OA
ATOM     22  H   UNL     1       2.150   6.086  21.399  0.00  0.00    +0.000 HD
BRANCH  19  23
ATOM     23  C   UNL     1       0.747   7.709  21.230  0.00  0.00    +0.000 C 
BRANCH  23  24
ATOM     24  C   UNL     1       1.336   8.888  22.004  0.00  0.00    +0.000 C 
BRANCH  24  28
ATOM     25  C   UNL     1      -1.289  12.317  22.385  0.00  0.00    +0.000 A 
ATOM     26  C   UNL     1      -0.259  12.306  21.432  0.00  0.00    +0.000 A 
ATOM     27  C   UNL     1       0.585  11.201  21.305  0.00  0.00    +0.000 A 
ATOM     28  C   UNL     1       0.412  10.076  22.117  0.00  0.00    +0.000 A 
ATOM     29  C   UNL     1      -0.618  10.084  23.066  0.00  0.00    +0.000 A 
ATOM     30  C   UNL     1      -1.458  11.195  23.197  0.00  0.00    +0.000 A 
BRANCH  25  32
ATOM     31  C   UNL     1      -1.579  14.592  24.013  0.00  0.00    +0.000 C 
ATOM     32  S   UNL     1      -2.267  13.806  22.530  0.00  0.00    +0.000 S 
ENDBRANCH  25  32
ENDBRANCH  24  28
ENDBRANCH  23  24
ENDBRANCH  19  23
ENDBRANCH  18  20
ENDBRANCH   1  18
TORSDOF 6
ENDMDL
