MODEL 1
REMARK VINA RESULT:      -8.7      0.000      0.000
REMARK  Name = 
REMARK  3 active torsions:
REMARK  status: ('A' for Active; 'I' for Inactive)
REMARK    1  A    between atoms: C_4  and  C_6
REMARK    2  A    between atoms: C_11  and  N_12
REMARK    3  A    between atoms: C_13  and  C_15
REMARK                            x       y       z     vdW  Elec       q    Type
REMARK                         _______ _______ _______ _____ _____    ______ ____
ROOT
ATOM      1  N   UNL     1       8.526   6.306  19.302  0.00  0.00    +0.000 NA
ATOM      2  C   UNL     1       7.561   6.793  18.606  0.00  0.00    +0.000 C 
ATOM      3  N   UNL     1       6.472   5.968  18.390  0.00  0.00    +0.000 N 
ATOM      4  C   UNL     1       5.334   6.265  17.639  0.00  0.00    +0.000 C 
ATOM      5  O   UNL     1       5.098   7.370  17.150  0.00  0.00    +0.000 OA
ATOM      6  N   UNL     1       7.526   8.025  18.054  0.00  0.00    +0.000 N 
ATOM      7  C   UNL     1       8.264   9.132  18.187  0.00  0.00    +0.000 A 
ATOM      8  N   UNL     1       8.083  10.218  17.466  0.00  0.00    +0.000 NA
ATOM      9  C   UNL     1       8.975  11.110  17.978  0.00  0.00    +0.000 A 
ATOM     10  C   UNL     1       9.239  12.434  17.612  0.00  0.00    +0.000 A 
ATOM     11  C   UNL     1      10.209  13.136  18.336  0.00  0.00    +0.000 A 
ATOM     12  C   UNL     1      10.895  12.530  19.395  0.00  0.00    +0.000 A 
ATOM     13  C   UNL     1      10.642  11.199  19.771  0.00  0.00    +0.000 A 
ATOM     14  C   UNL     1       9.673  10.532  19.023  0.00  0.00    +0.000 A 
ATOM     15  O   UNL     1       9.223   9.243  19.161  0.00  0.00    +0.000 OA
ATOM     16  H   UNL     1       8.357   5.344  19.595  0.00  0.00    +0.000 HD
ATOM     17  H   UNL     1       6.494   5.080  18.866  0.00  0.00    +0.000 HD
ATOM     18  H   UNL     1       6.732   8.175  17.431  0.00  0.00    +0.000 HD
ENDROOT
BRANCH   4  19
ATOM     19  C   UNL     1       4.360   5.154  17.465  0.00  0.00    +0.000 A 
ATOM     20  C   UNL     1       4.820   3.917  16.979  0.00  0.00    +0.000 A 
ATOM     21  C   UNL     1       3.946   2.833  16.865  0.00  0.00    +0.000 A 
ATOM     22  C   UNL     1       2.614   2.974  17.223  0.00  0.00    +0.000 A 
ATOM     23  C   UNL     1       2.145   4.201  17.703  0.00  0.00    +0.000 A 
ATOM     24  C   UNL     1       3.006   5.304  17.826  0.00  0.00    +0.000 A 
BRANCH  24  25
ATOM     25  N   UNL     1       2.489   6.545  18.275  0.00  0.00    +0.000 N 
ATOM     26  C   UNL     1       2.292   6.815  19.623  0.00  0.00    +0.000 C 
ATOM     27  O   UNL     1       2.668   6.064  20.523  0.00  0.00    +0.000 OA
ATOM     28  H   UNL     1       2.542   7.318  17.617  0.00  0.00    +0.000 HD
BRANCH  26  29
ATOM     29  C   UNL     1       1.615   8.091  20.006  0.00  0.00    +0.000 A 
ATOM     30  C   UNL     1       1.461   9.056  18.994  0.00  0.00    +0.000 A 
ATOM     31  C   UNL     1       0.859  10.287  19.259  0.00  0.00    +0.000 A 
ATOM     32  C   UNL     1       0.397  10.565  20.542  0.00  0.00    +0.000 A 
ATOM     33  C   UNL     1       0.534   9.613  21.554  0.00  0.00    +0.000 A 
ATOM     34  C   UNL     1       1.142   8.378  21.291  0.00  0.00    +0.000 A 
ENDBRANCH  26  29
ENDBRANCH  24  25
ENDBRANCH   4  19
TORSDOF 3
ENDMDL
MODEL 2
REMARK VINA RESULT:      -8.4      5.923     10.305
REMARK  Name = 
REMARK  3 active torsions:
REMARK  status: ('A' for Active; 'I' for Inactive)
REMARK    1  A    between atoms: C_4  and  C_6
REMARK    2  A    between atoms: C_11  and  N_12
REMARK    3  A    between atoms: C_13  and  C_15
REMARK                            x       y       z     vdW  Elec       q    Type
REMARK                         _______ _______ _______ _____ _____    ______ ____
ROOT
ATOM      1  N   UNL     1      -0.810   9.519  23.351  0.00  0.00    +0.000 NA
ATOM      2  C   UNL     1      -0.770  10.569  22.609  0.00  0.00    +0.000 C 
ATOM      3  N   UNL     1      -1.273  11.736  23.156  0.00  0.00    +0.000 N 
ATOM      4  C   UNL     1      -1.368  12.979  22.529  0.00  0.00    +0.000 C 
ATOM      5  O   UNL     1      -0.903  13.230  21.417  0.00  0.00    +0.000 OA
ATOM      6  N   UNL     1      -0.302  10.627  21.344  0.00  0.00    +0.000 N 
ATOM      7  C   UNL     1       0.406   9.799  20.568  0.00  0.00    +0.000 A 
ATOM      8  N   UNL     1       0.684  10.045  19.306  0.00  0.00    +0.000 NA
ATOM      9  C   UNL     1       1.478   9.004  18.931  0.00  0.00    +0.000 A 
ATOM     10  C   UNL     1       2.081   8.725  17.700  0.00  0.00    +0.000 A 
ATOM     11  C   UNL     1       2.876   7.579  17.602  0.00  0.00    +0.000 A 
ATOM     12  C   UNL     1       3.064   6.736  18.703  0.00  0.00    +0.000 A 
ATOM     13  C   UNL     1       2.462   7.003  19.946  0.00  0.00    +0.000 A 
ATOM     14  C   UNL     1       1.673   8.150  20.002  0.00  0.00    +0.000 A 
ATOM     15  O   UNL     1       0.973   8.655  21.069  0.00  0.00    +0.000 OA
ATOM     16  H   UNL     1      -1.233   9.694  24.262  0.00  0.00    +0.000 HD
ATOM     17  H   UNL     1      -1.555  11.681  24.122  0.00  0.00    +0.000 HD
ATOM     18  H   UNL     1      -0.478  11.519  20.880  0.00  0.00    +0.000 HD
ENDROOT
BRANCH   4  19
ATOM     19  C   UNL     1      -2.060  14.046  23.301  0.00  0.00    +0.000 A 
ATOM     20  C   UNL     1      -1.419  14.598  24.424  0.00  0.00    +0.000 A 
ATOM     21  C   UNL     1      -2.012  15.645  25.133  0.00  0.00    +0.000 A 
ATOM     22  C   UNL     1      -3.244  16.142  24.737  0.00  0.00    +0.000 A 
ATOM     23  C   UNL     1      -3.893  15.597  23.625  0.00  0.00    +0.000 A 
ATOM     24  C   UNL     1      -3.315  14.544  22.897  0.00  0.00    +0.000 A 
BRANCH  24  25
ATOM     25  N   UNL     1      -4.020  13.986  21.801  0.00  0.00    +0.000 N 
ATOM     26  C   UNL     1      -4.905  12.927  21.959  0.00  0.00    +0.000 C 
ATOM     27  O   UNL     1      -5.239  12.486  23.058  0.00  0.00    +0.000 OA
ATOM     28  H   UNL     1      -4.080  14.562  20.966  0.00  0.00    +0.000 HD
BRANCH  26  29
ATOM     29  C   UNL     1      -5.503  12.306  20.737  0.00  0.00    +0.000 A 
ATOM     30  C   UNL     1      -4.761  12.407  19.546  0.00  0.00    +0.000 A 
ATOM     31  C   UNL     1      -5.245  11.876  18.350  0.00  0.00    +0.000 A 
ATOM     32  C   UNL     1      -6.478  11.232  18.332  0.00  0.00    +0.000 A 
ATOM     33  C   UNL     1      -7.221  11.116  19.508  0.00  0.00    +0.000 A 
ATOM     34  C   UNL     1      -6.739  11.651  20.710  0.00  0.00    +0.000 A 
ENDBRANCH  26  29
ENDBRANCH  24  25
ENDBRANCH   4  19
TORSDOF 3
ENDMDL
MODEL 3
REMARK VINA RESULT:      -8.1      4.940      8.633
REMARK  Name = 
REMARK  3 active torsions:
REMARK  status: ('A' for Active; 'I' for Inactive)
REMARK    1  A    between atoms: C_4  and  C_6
REMARK    2  A    between atoms: C_11  and  N_12
REMARK    3  A    between atoms: C_13  and  C_15
REMARK                            x       y       z     vdW  Elec       q    Type
REMARK                         _______ _______ _______ _____ _____    ______ ____
ROOT
ATOM      1  N   UNL     1       0.345   9.155  21.564  0.00  0.00    +0.000 NA
ATOM      2  C   UNL     1       0.908   9.698  20.544  0.00  0.00    +0.000 C 
ATOM      3  N   UNL     1       0.860  11.079  20.469  0.00  0.00    +0.000 N 
ATOM      4  C   UNL     1       1.366  11.878  19.442  0.00  0.00    +0.000 C 
ATOM      5  O   UNL     1       2.035  11.453  18.501  0.00  0.00    +0.000 OA
ATOM      6  N   UNL     1       1.521   9.042  19.535  0.00  0.00    +0.000 N 
ATOM      7  C   UNL     1       1.924   7.781  19.346  0.00  0.00    +0.000 A 
ATOM      8  N   UNL     1       2.442   7.345  18.219  0.00  0.00    +0.000 NA
ATOM      9  C   UNL     1       2.783   6.053  18.486  0.00  0.00    +0.000 A 
ATOM     10  C   UNL     1       3.375   5.087  17.667  0.00  0.00    +0.000 A 
ATOM     11  C   UNL     1       3.637   3.828  18.218  0.00  0.00    +0.000 A 
ATOM     12  C   UNL     1       3.316   3.545  19.551  0.00  0.00    +0.000 A 
ATOM     13  C   UNL     1       2.717   4.506  20.384  0.00  0.00    +0.000 A 
ATOM     14  C   UNL     1       2.468   5.745  19.798  0.00  0.00    +0.000 A 
ATOM     15  O   UNL     1       1.901   6.860  20.363  0.00  0.00    +0.000 OA
ATOM     16  H   UNL     1      -0.086   9.837  22.188  0.00  0.00    +0.000 HD
ATOM     17  H   UNL     1       0.456  11.547  21.264  0.00  0.00    +0.000 HD
ATOM     18  H   UNL     1       1.790   9.644  18.756  0.00  0.00    +0.000 HD
ENDROOT
BRANCH   4  19
ATOM     19  C   UNL     1       1.076  13.333  19.548  0.00  0.00    +0.000 A 
ATOM     20  C   UNL     1       1.863  14.124  20.405  0.00  0.00    +0.000 A 
ATOM     21  C   UNL     1       1.660  15.504  20.479  0.00  0.00    +0.000 A 
ATOM     22  C   UNL     1       0.673  16.103  19.713  0.00  0.00    +0.000 A 
ATOM     23  C   UNL     1      -0.119  15.326  18.860  0.00  0.00    +0.000 A 
ATOM     24  C   UNL     1       0.068  13.937  18.770  0.00  0.00    +0.000 A 
BRANCH  24  25
ATOM     25  N   UNL     1      -0.781  13.174  17.929  0.00  0.00    +0.000 N 
ATOM     26  C   UNL     1      -1.771  12.345  18.442  0.00  0.00    +0.000 C 
ATOM     27  O   UNL     1      -2.070  12.310  19.636  0.00  0.00    +0.000 OA
ATOM     28  H   UNL     1      -0.836  13.469  16.959  0.00  0.00    +0.000 HD
BRANCH  26  29
ATOM     29  C   UNL     1      -2.531  11.470  17.498  0.00  0.00    +0.000 A 
ATOM     30  C   UNL     1      -1.825  10.401  16.917  0.00  0.00    +0.000 A 
ATOM     31  C   UNL     1      -2.443   9.541  16.008  0.00  0.00    +0.000 A 
ATOM     32  C   UNL     1      -3.779   9.737  15.673  0.00  0.00    +0.000 A 
ATOM     33  C   UNL     1      -4.494  10.788  16.249  0.00  0.00    +0.000 A 
ATOM     34  C   UNL     1      -3.875  11.655  17.159  0.00  0.00    +0.000 A 
ENDBRANCH  26  29
ENDBRANCH  24  25
ENDBRANCH   4  19
TORSDOF 3
ENDMDL
MODEL 4
REMARK VINA RESULT:      -8.0      5.797     10.163
REMARK  Name = 
REMARK  3 active torsions:
REMARK  status: ('A' for Active; 'I' for Inactive)
REMARK    1  A    between atoms: C_4  and  C_6
REMARK    2  A    between atoms: C_11  and  N_12
REMARK    3  A    between atoms: C_13  and  C_15
REMARK                            x       y       z     vdW  Elec       q    Type
REMARK                         _______ _______ _______ _____ _____    ______ ____
ROOT
ATOM      1  N   UNL     1      -0.766   9.080  23.272  0.00  0.00    +0.000 NA
ATOM      2  C   UNL     1      -0.681  10.163  22.585  0.00  0.00    +0.000 C 
ATOM      3  N   UNL     1      -1.201  11.309  23.161  0.00  0.00    +0.000 N 
ATOM      4  C   UNL     1      -1.255  12.582  22.591  0.00  0.00    +0.000 C 
ATOM      5  O   UNL     1      -0.734  12.879  21.517  0.00  0.00    +0.000 OA
ATOM      6  N   UNL     1      -0.152  10.276  21.347  0.00  0.00    +0.000 N 
ATOM      7  C   UNL     1       0.587   9.479  20.569  0.00  0.00    +0.000 A 
ATOM      8  N   UNL     1       0.928   9.782  19.335  0.00  0.00    +0.000 NA
ATOM      9  C   UNL     1       1.732   8.751  18.949  0.00  0.00    +0.000 A 
ATOM     10  C   UNL     1       2.392   8.525  17.737  0.00  0.00    +0.000 A 
ATOM     11  C   UNL     1       3.181   7.376  17.622  0.00  0.00    +0.000 A 
ATOM     12  C   UNL     1       3.308   6.480  18.690  0.00  0.00    +0.000 A 
ATOM     13  C   UNL     1       2.647   6.694  19.913  0.00  0.00    +0.000 A 
ATOM     14  C   UNL     1       1.867   7.845  19.986  0.00  0.00    +0.000 A 
ATOM     15  O   UNL     1       1.119   8.306  21.041  0.00  0.00    +0.000 OA
ATOM     16  H   UNL     1      -1.232   9.216  24.169  0.00  0.00    +0.000 HD
ATOM     17  H   UNL     1      -1.530  11.211  24.109  0.00  0.00    +0.000 HD
ATOM     18  H   UNL     1      -0.296  11.192  20.920  0.00  0.00    +0.000 HD
ENDROOT
BRANCH   4  19
ATOM     19  C   UNL     1      -1.975  13.617  23.378  0.00  0.00    +0.000 A 
ATOM     20  C   UNL     1      -1.241  14.442  24.250  0.00  0.00    +0.000 A 
ATOM     21  C   UNL     1      -1.876  15.467  24.956  0.00  0.00    +0.000 A 
ATOM     22  C   UNL     1      -3.238  15.672  24.807  0.00  0.00    +0.000 A 
ATOM     23  C   UNL     1      -3.979  14.855  23.947  0.00  0.00    +0.000 A 
ATOM     24  C   UNL     1      -3.362  13.819  23.228  0.00  0.00    +0.000 A 
BRANCH  24  25
ATOM     25  N   UNL     1      -4.150  12.981  22.399  0.00  0.00    +0.000 N 
ATOM     26  C   UNL     1      -4.355  13.262  21.054  0.00  0.00    +0.000 C 
ATOM     27  O   UNL     1      -3.774  14.169  20.458  0.00  0.00    +0.000 OA
ATOM     28  H   UNL     1      -4.311  12.037  22.738  0.00  0.00    +0.000 HD
BRANCH  26  29
ATOM     29  C   UNL     1      -5.309  12.408  20.283  0.00  0.00    +0.000 A 
ATOM     30  C   UNL     1      -6.493  12.026  20.940  0.00  0.00    +0.000 A 
ATOM     31  C   UNL     1      -7.435  11.212  20.309  0.00  0.00    +0.000 A 
ATOM     32  C   UNL     1      -7.206  10.775  19.008  0.00  0.00    +0.000 A 
ATOM     33  C   UNL     1      -6.041  11.155  18.340  0.00  0.00    +0.000 A 
ATOM     34  C   UNL     1      -5.092  11.968  18.973  0.00  0.00    +0.000 A 
ENDBRANCH  26  29
ENDBRANCH  24  25
ENDBRANCH   4  19
TORSDOF 3
ENDMDL
MODEL 5
REMARK VINA RESULT:      -8.0      5.887     10.343
REMARK  Name = 
REMARK  3 active torsions:
REMARK  status: ('A' for Active; 'I' for Inactive)
REMARK    1  A    between atoms: C_4  and  C_6
REMARK    2  A    between atoms: C_11  and  N_12
REMARK    3  A    between atoms: C_13  and  C_15
REMARK                            x       y       z     vdW  Elec       q    Type
REMARK                         _______ _______ _______ _____ _____    ______ ____
ROOT
ATOM      1  N   UNL     1       0.597  12.869  19.933  0.00  0.00    +0.000 NA
ATOM      2  C   UNL     1       0.059  12.283  20.943  0.00  0.00    +0.000 C 
ATOM      3  N   UNL     1      -0.799  13.043  21.719  0.00  0.00    +0.000 N 
ATOM      4  C   UNL     1      -1.463  12.635  22.876  0.00  0.00    +0.000 C 
ATOM      5  O   UNL     1      -1.457  11.482  23.305  0.00  0.00    +0.000 OA
ATOM      6  N   UNL     1       0.272  11.005  21.324  0.00  0.00    +0.000 N 
ATOM      7  C   UNL     1       0.854   9.944  20.756  0.00  0.00    +0.000 A 
ATOM      8  N   UNL     1       1.017   8.790  21.367  0.00  0.00    +0.000 NA
ATOM      9  C   UNL     1       1.563   7.983  20.416  0.00  0.00    +0.000 A 
ATOM     10  C   UNL     1       1.954   6.642  20.484  0.00  0.00    +0.000 A 
ATOM     11  C   UNL     1       2.473   6.048  19.329  0.00  0.00    +0.000 A 
ATOM     12  C   UNL     1       2.597   6.774  18.139  0.00  0.00    +0.000 A 
ATOM     13  C   UNL     1       2.211   8.125  18.057  0.00  0.00    +0.000 A 
ATOM     14  C   UNL     1       1.704   8.681  19.229  0.00  0.00    +0.000 A 
ATOM     15  O   UNL     1       1.253   9.960  19.443  0.00  0.00    +0.000 OA
ATOM     16  H   UNL     1       0.321  13.847  19.849  0.00  0.00    +0.000 HD
ATOM     17  H   UNL     1      -0.991  13.971  21.377  0.00  0.00    +0.000 HD
ATOM     18  H   UNL     1      -0.145  10.769  22.225  0.00  0.00    +0.000 HD
ENDROOT
BRANCH   4  19
ATOM     19  C   UNL     1      -2.235  13.687  23.589  0.00  0.00    +0.000 A 
ATOM     20  C   UNL     1      -1.561  14.540  24.481  0.00  0.00    +0.000 A 
ATOM     21  C   UNL     1      -2.242  15.579  25.118  0.00  0.00    +0.000 A 
ATOM     22  C   UNL     1      -3.593  15.773  24.880  0.00  0.00    +0.000 A 
ATOM     23  C   UNL     1      -4.276  14.928  23.998  0.00  0.00    +0.000 A 
ATOM     24  C   UNL     1      -3.611  13.877  23.347  0.00  0.00    +0.000 A 
BRANCH  24  25
ATOM     25  N   UNL     1      -4.342  13.013  22.493  0.00  0.00    +0.000 N 
ATOM     26  C   UNL     1      -4.394  13.209  21.119  0.00  0.00    +0.000 C 
ATOM     27  O   UNL     1      -3.716  14.053  20.532  0.00  0.00    +0.000 OA
ATOM     28  H   UNL     1      -4.578  12.100  22.873  0.00  0.00    +0.000 HD
BRANCH  26  29
ATOM     29  C   UNL     1      -5.297  12.339  20.306  0.00  0.00    +0.000 A 
ATOM     30  C   UNL     1      -4.856  11.997  19.014  0.00  0.00    +0.000 A 
ATOM     31  C   UNL     1      -5.639  11.205  18.173  0.00  0.00    +0.000 A 
ATOM     32  C   UNL     1      -6.873  10.740  18.617  0.00  0.00    +0.000 A 
ATOM     33  C   UNL     1      -7.319  11.064  19.899  0.00  0.00    +0.000 A 
ATOM     34  C   UNL     1      -6.537  11.861  20.745  0.00  0.00    +0.000 A 
ENDBRANCH  26  29
ENDBRANCH  24  25
ENDBRANCH   4  19
TORSDOF 3
ENDMDL
MODEL 6
REMARK VINA RESULT:      -7.8      3.020      6.958
REMARK  Name = 
REMARK  3 active torsions:
REMARK  status: ('A' for Active; 'I' for Inactive)
REMARK    1  A    between atoms: C_4  and  C_6
REMARK    2  A    between atoms: C_11  and  N_12
REMARK    3  A    between atoms: C_13  and  C_15
REMARK                            x       y       z     vdW  Elec       q    Type
REMARK                         _______ _______ _______ _____ _____    ______ ____
ROOT
ATOM      1  N   UNL     1       2.277   8.574  17.725  0.00  0.00    +0.000 NA
ATOM      2  C   UNL     1       1.892   7.864  18.726  0.00  0.00    +0.000 C 
ATOM      3  N   UNL     1       2.231   6.523  18.705  0.00  0.00    +0.000 N 
ATOM      4  C   UNL     1       1.892   5.560  19.656  0.00  0.00    +0.000 C 
ATOM      5  O   UNL     1       1.325   5.809  20.720  0.00  0.00    +0.000 OA
ATOM      6  N   UNL     1       1.171   8.306  19.779  0.00  0.00    +0.000 N 
ATOM      7  C   UNL     1       0.828   9.514  20.238  0.00  0.00    +0.000 A 
ATOM      8  N   UNL     1       0.031   9.701  21.269  0.00  0.00    +0.000 NA
ATOM      9  C   UNL     1       0.020  11.052  21.440  0.00  0.00    +0.000 A 
ATOM     10  C   UNL     1      -0.652  11.838  22.382  0.00  0.00    +0.000 A 
ATOM     11  C   UNL     1      -0.462  13.223  22.339  0.00  0.00    +0.000 A 
ATOM     12  C   UNL     1       0.377  13.806  21.383  0.00  0.00    +0.000 A 
ATOM     13  C   UNL     1       1.057  13.028  20.428  0.00  0.00    +0.000 A 
ATOM     14  C   UNL     1       0.837  11.654  20.499  0.00  0.00    +0.000 A 
ATOM     15  O   UNL     1       1.361  10.662  19.708  0.00  0.00    +0.000 OA
ATOM     16  H   UNL     1       2.782   8.030  17.026  0.00  0.00    +0.000 HD
ATOM     17  H   UNL     1       2.823   6.233  17.943  0.00  0.00    +0.000 HD
ATOM     18  H   UNL     1       0.854   7.563  20.403  0.00  0.00    +0.000 HD
ENDROOT
BRANCH   4  19
ATOM     19  C   UNL     1       2.282   4.161  19.334  0.00  0.00    +0.000 A 
ATOM     20  C   UNL     1       1.290   3.164  19.321  0.00  0.00    +0.000 A 
ATOM     21  C   UNL     1       1.610   1.853  18.960  0.00  0.00    +0.000 A 
ATOM     22  C   UNL     1       2.913   1.525  18.619  0.00  0.00    +0.000 A 
ATOM     23  C   UNL     1       3.908   2.507  18.634  0.00  0.00    +0.000 A 
ATOM     24  C   UNL     1       3.609   3.831  18.994  0.00  0.00    +0.000 A 
BRANCH  24  25
ATOM     25  N   UNL     1       4.650   4.792  19.040  0.00  0.00    +0.000 N 
ATOM     26  C   UNL     1       5.083   5.463  17.903  0.00  0.00    +0.000 C 
ATOM     27  O   UNL     1       4.520   5.373  16.812  0.00  0.00    +0.000 OA
ATOM     28  H   UNL     1       4.863   5.180  19.955  0.00  0.00    +0.000 HD
BRANCH  26  29
ATOM     29  C   UNL     1       6.276   6.357  18.011  0.00  0.00    +0.000 A 
ATOM     30  C   UNL     1       7.271   5.981  18.931  0.00  0.00    +0.000 A 
ATOM     31  C   UNL     1       8.411   6.762  19.117  0.00  0.00    +0.000 A 
ATOM     32  C   UNL     1       8.574   7.930  18.378  0.00  0.00    +0.000 A 
ATOM     33  C   UNL     1       7.599   8.311  17.454  0.00  0.00    +0.000 A 
ATOM     34  C   UNL     1       6.451   7.530  17.268  0.00  0.00    +0.000 A 
ENDBRANCH  26  29
ENDBRANCH  24  25
ENDBRANCH   4  19
TORSDOF 3
ENDMDL
MODEL 7
REMARK VINA RESULT:      -7.8      4.007      7.655
REMARK  Name = 
REMARK  3 active torsions:
REMARK  status: ('A' for Active; 'I' for Inactive)
REMARK    1  A    between atoms: C_4  and  C_6
REMARK    2  A    between atoms: C_11  and  N_12
REMARK    3  A    between atoms: C_13  and  C_15
REMARK                            x       y       z     vdW  Elec       q    Type
REMARK                         _______ _______ _______ _____ _____    ______ ____
ROOT
ATOM      1  N   UNL     1       1.811   6.320  21.113  0.00  0.00    +0.000 NA
ATOM      2  C   UNL     1       1.784   7.446  20.494  0.00  0.00    +0.000 C 
ATOM      3  N   UNL     1       1.116   8.484  21.120  0.00  0.00    +0.000 N 
ATOM      4  C   UNL     1       0.925   9.775  20.625  0.00  0.00    +0.000 C 
ATOM      5  O   UNL     1       1.435  10.199  19.588  0.00  0.00    +0.000 OA
ATOM      6  N   UNL     1       2.329   7.699  19.285  0.00  0.00    +0.000 N 
ATOM      7  C   UNL     1       3.178   7.044  18.485  0.00  0.00    +0.000 A 
ATOM      8  N   UNL     1       3.514   7.462  17.284  0.00  0.00    +0.000 NA
ATOM      9  C   UNL     1       4.445   6.560  16.865  0.00  0.00    +0.000 A 
ATOM     10  C   UNL     1       5.159   6.490  15.665  0.00  0.00    +0.000 A 
ATOM     11  C   UNL     1       6.084   5.452  15.509  0.00  0.00    +0.000 A 
ATOM     12  C   UNL     1       6.288   4.511  16.526  0.00  0.00    +0.000 A 
ATOM     13  C   UNL     1       5.574   4.568  17.736  0.00  0.00    +0.000 A 
ATOM     14  C   UNL     1       4.660   5.613  17.851  0.00  0.00    +0.000 A 
ATOM     15  O   UNL     1       3.834   5.915  18.905  0.00  0.00    +0.000 OA
ATOM     16  H   UNL     1       1.308   6.343  22.000  0.00  0.00    +0.000 HD
ATOM     17  H   UNL     1       0.775   8.289  22.048  0.00  0.00    +0.000 HD
ATOM     18  H   UNL     1       2.087   8.616  18.907  0.00  0.00    +0.000 HD
ENDROOT
BRANCH   4  19
ATOM     19  C   UNL     1       0.065  10.667  21.447  0.00  0.00    +0.000 A 
ATOM     20  C   UNL     1      -0.762  10.097  22.431  0.00  0.00    +0.000 A 
ATOM     21  C   UNL     1      -1.534  10.910  23.265  0.00  0.00    +0.000 A 
ATOM     22  C   UNL     1      -1.495  12.287  23.120  0.00  0.00    +0.000 A 
ATOM     23  C   UNL     1      -0.680  12.865  22.142  0.00  0.00    +0.000 A 
ATOM     24  C   UNL     1       0.104  12.067  21.293  0.00  0.00    +0.000 A 
BRANCH  24  25
ATOM     25  N   UNL     1       0.885  12.683  20.283  0.00  0.00    +0.000 N 
ATOM     26  C   UNL     1       1.810  13.678  20.574  0.00  0.00    +0.000 C 
ATOM     27  O   UNL     1       2.112  14.003  21.722  0.00  0.00    +0.000 OA
ATOM     28  H   UNL     1       0.958  12.181  19.402  0.00  0.00    +0.000 HD
BRANCH  26  29
ATOM     29  C   UNL     1       2.493  14.373  19.440  0.00  0.00    +0.000 A 
ATOM     30  C   UNL     1       1.987  15.632  19.070  0.00  0.00    +0.000 A 
ATOM     31  C   UNL     1       2.545  16.349  18.011  0.00  0.00    +0.000 A 
ATOM     32  C   UNL     1       3.623  15.815  17.311  0.00  0.00    +0.000 A 
ATOM     33  C   UNL     1       4.142  14.571  17.674  0.00  0.00    +0.000 A 
ATOM     34  C   UNL     1       3.581  13.848  18.734  0.00  0.00    +0.000 A 
ENDBRANCH  26  29
ENDBRANCH  24  25
ENDBRANCH   4  19
TORSDOF 3
ENDMDL
MODEL 8
REMARK VINA RESULT:      -7.7      4.667      8.424
REMARK  Name = 
REMARK  3 active torsions:
REMARK  status: ('A' for Active; 'I' for Inactive)
REMARK    1  A    between atoms: C_4  and  C_6
REMARK    2  A    between atoms: C_11  and  N_12
REMARK    3  A    between atoms: C_13  and  C_15
REMARK                            x       y       z     vdW  Elec       q    Type
REMARK                         _______ _______ _______ _____ _____    ______ ____
ROOT
ATOM      1  N   UNL     1       0.388   8.457  21.357  0.00  0.00    +0.000 NA
ATOM      2  C   UNL     1       0.879   9.339  20.561  0.00  0.00    +0.000 C 
ATOM      3  N   UNL     1       0.551  10.659  20.816  0.00  0.00    +0.000 N 
ATOM      4  C   UNL     1       0.933  11.774  20.069  0.00  0.00    +0.000 C 
ATOM      5  O   UNL     1       1.722  11.737  19.126  0.00  0.00    +0.000 OA
ATOM      6  N   UNL     1       1.664   9.090  19.491  0.00  0.00    +0.000 N 
ATOM      7  C   UNL     1       2.327   8.017  19.046  0.00  0.00    +0.000 A 
ATOM      8  N   UNL     1       2.981   7.989  17.904  0.00  0.00    +0.000 NA
ATOM      9  C   UNL     1       3.567   6.759  17.886  0.00  0.00    +0.000 A 
ATOM     10  C   UNL     1       4.386   6.163  16.922  0.00  0.00    +0.000 A 
ATOM     11  C   UNL     1       4.873   4.877  17.178  0.00  0.00    +0.000 A 
ATOM     12  C   UNL     1       4.550   4.207  18.363  0.00  0.00    +0.000 A 
ATOM     13  C   UNL     1       3.724   4.793  19.339  0.00  0.00    +0.000 A 
ATOM     14  C   UNL     1       3.255   6.072  19.046  0.00  0.00    +0.000 A 
ATOM     15  O   UNL     1       2.443   6.879  19.802  0.00  0.00    +0.000 OA
ATOM     16  H   UNL     1      -0.206   8.863  22.080  0.00  0.00    +0.000 HD
ATOM     17  H   UNL     1       0.018  10.823  21.655  0.00  0.00    +0.000 HD
ATOM     18  H   UNL     1       1.842   9.910  18.911  0.00  0.00    +0.000 HD
ENDROOT
BRANCH   4  19
ATOM     19  C   UNL     1       0.344  13.073  20.492  0.00  0.00    +0.000 A 
ATOM     20  C   UNL     1       0.876  13.727  21.618  0.00  0.00    +0.000 A 
ATOM     21  C   UNL     1       0.390  14.978  22.004  0.00  0.00    +0.000 A 
ATOM     22  C   UNL     1      -0.628  15.580  21.283  0.00  0.00    +0.000 A 
ATOM     23  C   UNL     1      -1.169  14.937  20.165  0.00  0.00    +0.000 A 
ATOM     24  C   UNL     1      -0.696  13.679  19.759  0.00  0.00    +0.000 A 
BRANCH  24  25
ATOM     25  N   UNL     1      -1.295  13.035  18.647  0.00  0.00    +0.000 N 
ATOM     26  C   UNL     1      -2.320  12.109  18.798  0.00  0.00    +0.000 C 
ATOM     27  O   UNL     1      -2.866  11.878  19.877  0.00  0.00    +0.000 OA
ATOM     28  H   UNL     1      -1.158  13.479  17.743  0.00  0.00    +0.000 HD
BRANCH  26  29
ATOM     29  C   UNL     1      -2.803  11.374  17.590  0.00  0.00    +0.000 A 
ATOM     30  C   UNL     1      -1.961  10.370  17.078  0.00  0.00    +0.000 A 
ATOM     31  C   UNL     1      -2.316   9.643  15.942  0.00  0.00    +0.000 A 
ATOM     32  C   UNL     1      -3.525   9.907  15.305  0.00  0.00    +0.000 A 
ATOM     33  C   UNL     1      -4.376  10.894  15.808  0.00  0.00    +0.000 A 
ATOM     34  C   UNL     1      -4.019  11.628  16.947  0.00  0.00    +0.000 A 
ENDBRANCH  26  29
ENDBRANCH  24  25
ENDBRANCH   4  19
TORSDOF 3
ENDMDL
MODEL 9
REMARK VINA RESULT:      -7.7      3.269      6.759
REMARK  Name = 
REMARK  3 active torsions:
REMARK  status: ('A' for Active; 'I' for Inactive)
REMARK    1  A    between atoms: C_4  and  C_6
REMARK    2  A    between atoms: C_11  and  N_12
REMARK    3  A    between atoms: C_13  and  C_15
REMARK                            x       y       z     vdW  Elec       q    Type
REMARK                         _______ _______ _______ _____ _____    ______ ____
ROOT
ATOM      1  N   UNL     1       2.186   8.804  17.471  0.00  0.00    +0.000 NA
ATOM      2  C   UNL     1       1.823   8.386  18.632  0.00  0.00    +0.000 C 
ATOM      3  N   UNL     1       2.012   7.041  18.896  0.00  0.00    +0.000 N 
ATOM      4  C   UNL     1       1.662   6.360  20.063  0.00  0.00    +0.000 C 
ATOM      5  O   UNL     1       1.230   6.907  21.077  0.00  0.00    +0.000 OA
ATOM      6  N   UNL     1       1.259   9.136  19.603  0.00  0.00    +0.000 N 
ATOM      7  C   UNL     1       1.094  10.449  19.795  0.00  0.00    +0.000 A 
ATOM      8  N   UNL     1       0.424  10.957  20.807  0.00  0.00    +0.000 NA
ATOM      9  C   UNL     1       0.576  12.303  20.665  0.00  0.00    +0.000 A 
ATOM     10  C   UNL     1       0.086  13.354  21.446  0.00  0.00    +0.000 A 
ATOM     11  C   UNL     1       0.420  14.661  21.074  0.00  0.00    +0.000 A 
ATOM     12  C   UNL     1       1.222  14.908  19.954  0.00  0.00    +0.000 A 
ATOM     13  C   UNL     1       1.719  13.860  19.158  0.00  0.00    +0.000 A 
ATOM     14  C   UNL     1       1.360  12.575  19.557  0.00  0.00    +0.000 A 
ATOM     15  O   UNL     1       1.695  11.375  18.981  0.00  0.00    +0.000 OA
ATOM     16  H   UNL     1       2.560   8.060  16.882  0.00  0.00    +0.000 HD
ATOM     17  H   UNL     1       2.494   6.518  18.181  0.00  0.00    +0.000 HD
ATOM     18  H   UNL     1       0.924   8.593  20.400  0.00  0.00    +0.000 HD
ENDROOT
BRANCH   4  19
ATOM     19  C   UNL     1       1.866   4.888  20.044  0.00  0.00    +0.000 A 
ATOM     20  C   UNL     1       0.761   4.045  20.258  0.00  0.00    +0.000 A 
ATOM     21  C   UNL     1       0.904   2.657  20.183  0.00  0.00    +0.000 A 
ATOM     22  C   UNL     1       2.142   2.101  19.904  0.00  0.00    +0.000 A 
ATOM     23  C   UNL     1       3.250   2.929  19.694  0.00  0.00    +0.000 A 
ATOM     24  C   UNL     1       3.128   4.326  19.765  0.00  0.00    +0.000 A 
BRANCH  24  25
ATOM     25  N   UNL     1       4.280   5.135  19.590  0.00  0.00    +0.000 N 
ATOM     26  C   UNL     1       4.723   5.519  18.330  0.00  0.00    +0.000 C 
ATOM     27  O   UNL     1       4.091   5.302  17.297  0.00  0.00    +0.000 OA
ATOM     28  H   UNL     1       4.592   5.655  20.405  0.00  0.00    +0.000 HD
BRANCH  26  29
ATOM     29  C   UNL     1       6.021   6.254  18.223  0.00  0.00    +0.000 A 
ATOM     30  C   UNL     1       7.048   5.862  19.100  0.00  0.00    +0.000 A 
ATOM     31  C   UNL     1       8.287   6.502  19.089  0.00  0.00    +0.000 A 
ATOM     32  C   UNL     1       8.517   7.542  18.193  0.00  0.00    +0.000 A 
ATOM     33  C   UNL     1       7.511   7.935  17.310  0.00  0.00    +0.000 A 
ATOM     34  C   UNL     1       6.264   7.297  17.322  0.00  0.00    +0.000 A 
ENDBRANCH  26  29
ENDBRANCH  24  25
ENDBRANCH   4  19
TORSDOF 3
ENDMDL
