MODEL 1
REMARK VINA RESULT:      -7.4      0.000      0.000
REMARK  Name = 
REMARK  8 active torsions:
REMARK  status: ('A' for Active; 'I' for Inactive)
REMARK    1  A    between atoms: C_1  and  C_2
REMARK    2  A    between atoms: C_2  and  C_3
REMARK    3  A    between atoms: C_6  and  C_7
REMARK    4  A    between atoms: C_7  and  N_8
REMARK    5  A    between atoms: N_8  and  C_9
REMARK    6  A    between atoms: N_8  and  C_10
REMARK    7  A    between atoms: N_13  and  C_14
REMARK    8  A    between atoms: C_14  and  C_15
REMARK                            x       y       z     vdW  Elec       q    Type
REMARK                         _______ _______ _______ _____ _____    ______ ____
ROOT
ATOM      1  N   UNL     1       6.346   5.593  17.250  0.00  0.00    +0.000 NA
ATOM      2  C   UNL     1       6.900   6.931  17.000  0.00  0.00    +0.000 C 
ENDROOT
BRANCH   1   3
ATOM      3  C   UNL     1       4.898   5.502  16.928  0.00  0.00    +0.000 C 
ATOM      4  C   UNL     1       4.033   6.442  17.777  0.00  0.00    +0.000 C 
ATOM      5  C   UNL     1       3.743   5.608  19.007  0.00  0.00    +0.000 C 
ATOM      6  N   UNL     1       3.370   4.291  18.462  0.00  0.00    +0.000 NA
ATOM      7  C   UNL     1       4.249   4.123  17.278  0.00  0.00    +0.000 C 
BRANCH   6   8
ATOM      8  C   UNL     1       1.931   4.249  18.147  0.00  0.00    +0.000 C 
BRANCH   8   9
ATOM      9  C   UNL     1       1.122   3.493  19.199  0.00  0.00    +0.000 C 
ATOM     10  C   UNL     1       1.821   2.316  19.925  0.00  0.00    +0.000 C 
ATOM     11  C   UNL     1       1.181   2.813  21.234  0.00  0.00    +0.000 C 
ATOM     12  C   UNL     1       1.038   4.198  20.579  0.00  0.00    +0.000 C 
ENDBRANCH   8   9
ENDBRANCH   6   8
ENDBRANCH   1   3
BRANCH   1  13
ATOM     13  C   UNL     1       7.180   4.576  16.556  0.00  0.00    +0.000 C 
BRANCH  13  17
ATOM     14  C   UNL     1       6.485   3.858  13.127  0.00  0.00    +0.000 A 
ATOM     15  C   UNL     1       7.247   4.996  12.984  0.00  0.00    +0.000 A 
ATOM     16  N   UNL     1       7.649   5.447  14.213  0.00  0.00    +0.000 NA
ATOM     17  C   UNL     1       7.116   4.583  15.058  0.00  0.00    +0.000 A 
ATOM     18  O   UNL     1       6.397   3.580  14.463  0.00  0.00    +0.000 OA
BRANCH  14  20
ATOM     19  C   UNL     1       4.493   3.615  11.687  0.00  0.00    +0.000 C 
ATOM     20  C   UNL     1       5.768   2.966  12.197  0.00  0.00    +0.000 C 
ENDBRANCH  14  20
ENDBRANCH  13  17
ENDBRANCH   1  13
TORSDOF 6
ENDMDL
MODEL 2
REMARK VINA RESULT:      -7.3      1.113      1.381
REMARK  Name = 
REMARK  8 active torsions:
REMARK  status: ('A' for Active; 'I' for Inactive)
REMARK    1  A    between atoms: C_1  and  C_2
REMARK    2  A    between atoms: C_2  and  C_3
REMARK    3  A    between atoms: C_6  and  C_7
REMARK    4  A    between atoms: C_7  and  N_8
REMARK    5  A    between atoms: N_8  and  C_9
REMARK    6  A    between atoms: N_8  and  C_10
REMARK    7  A    between atoms: N_13  and  C_14
REMARK    8  A    between atoms: C_14  and  C_15
REMARK                            x       y       z     vdW  Elec       q    Type
REMARK                         _______ _______ _______ _____ _____    ______ ____
ROOT
ATOM      1  N   UNL     1       6.488   4.320  16.757  0.00  0.00    +0.000 NA
ATOM      2  C   UNL     1       7.443   4.544  17.852  0.00  0.00    +0.000 C 
ENDROOT
BRANCH   1   3
ATOM      3  C   UNL     1       5.086   4.197  17.234  0.00  0.00    +0.000 C 
ATOM      4  C   UNL     1       4.235   5.435  16.926  0.00  0.00    +0.000 C 
ATOM      5  C   UNL     1       4.494   6.324  18.125  0.00  0.00    +0.000 C 
ATOM      6  N   UNL     1       4.369   5.412  19.275  0.00  0.00    +0.000 NA
ATOM      7  C   UNL     1       4.942   4.132  18.790  0.00  0.00    +0.000 C 
BRANCH   6   8
ATOM      8  C   UNL     1       2.964   5.311  19.707  0.00  0.00    +0.000 C 
BRANCH   8   9
ATOM      9  C   UNL     1       2.568   3.885  20.084  0.00  0.00    +0.000 C 
ATOM     10  C   UNL     1       2.437   3.557  21.593  0.00  0.00    +0.000 C 
ATOM     11  C   UNL     1       1.168   2.755  21.254  0.00  0.00    +0.000 C 
ATOM     12  C   UNL     1       1.051   3.582  19.962  0.00  0.00    +0.000 C 
ENDBRANCH   8   9
ENDBRANCH   6   8
ENDBRANCH   1   3
BRANCH   1  13
ATOM     13  C   UNL     1       6.678   5.365  15.716  0.00  0.00    +0.000 C 
BRANCH  13  17
ATOM     14  C   UNL     1       6.349   3.635  12.609  0.00  0.00    +0.000 A 
ATOM     15  C   UNL     1       7.343   4.528  12.281  0.00  0.00    +0.000 A 
ATOM     16  N   UNL     1       7.650   5.305  13.367  0.00  0.00    +0.000 NA
ATOM     17  C   UNL     1       6.833   4.871  14.309  0.00  0.00    +0.000 A 
ATOM     18  O   UNL     1       6.013   3.845  13.918  0.00  0.00    +0.000 OA
BRANCH  14  20
ATOM     19  C   UNL     1       4.273   3.132  11.367  0.00  0.00    +0.000 C 
ATOM     20  C   UNL     1       5.602   2.597  11.873  0.00  0.00    +0.000 C 
ENDBRANCH  14  20
ENDBRANCH  13  17
ENDBRANCH   1  13
TORSDOF 6
ENDMDL
MODEL 3
REMARK VINA RESULT:      -6.9      1.078      1.482
REMARK  Name = 
REMARK  8 active torsions:
REMARK  status: ('A' for Active; 'I' for Inactive)
REMARK    1  A    between atoms: C_1  and  C_2
REMARK    2  A    between atoms: C_2  and  C_3
REMARK    3  A    between atoms: C_6  and  C_7
REMARK    4  A    between atoms: C_7  and  N_8
REMARK    5  A    between atoms: N_8  and  C_9
REMARK    6  A    between atoms: N_8  and  C_10
REMARK    7  A    between atoms: N_13  and  C_14
REMARK    8  A    between atoms: C_14  and  C_15
REMARK                            x       y       z     vdW  Elec       q    Type
REMARK                         _______ _______ _______ _____ _____    ______ ____
ROOT
ATOM      1  N   UNL     1       6.404   4.636  16.823  0.00  0.00    +0.000 NA
ATOM      2  C   UNL     1       7.795   4.580  17.295  0.00  0.00    +0.000 C 
ENDROOT
BRANCH   1   3
ATOM      3  C   UNL     1       5.441   4.950  17.911  0.00  0.00    +0.000 C 
ATOM      4  C   UNL     1       5.107   3.736  18.787  0.00  0.00    +0.000 C 
ATOM      5  C   UNL     1       3.955   3.096  18.044  0.00  0.00    +0.000 C 
ATOM      6  N   UNL     1       3.076   4.229  17.707  0.00  0.00    +0.000 NA
ATOM      7  C   UNL     1       4.013   5.341  17.410  0.00  0.00    +0.000 C 
BRANCH   6   8
ATOM      8  C   UNL     1       2.147   4.512  18.816  0.00  0.00    +0.000 C 
BRANCH   8   9
ATOM      9  C   UNL     1       2.169   3.427  19.890  0.00  0.00    +0.000 C 
ATOM     10  C   UNL     1       2.216   3.889  21.368  0.00  0.00    +0.000 C 
ATOM     11  C   UNL     1       1.190   2.787  21.689  0.00  0.00    +0.000 C 
ATOM     12  C   UNL     1       0.783   2.803  20.206  0.00  0.00    +0.000 C 
ENDBRANCH   8   9
ENDBRANCH   6   8
ENDBRANCH   1   3
BRANCH   1  13
ATOM     13  C   UNL     1       6.314   5.558  15.659  0.00  0.00    +0.000 C 
BRANCH  13  17
ATOM     14  C   UNL     1       6.252   3.662  12.632  0.00  0.00    +0.000 A 
ATOM     15  C   UNL     1       7.376   4.427  12.414  0.00  0.00    +0.000 A 
ATOM     16  N   UNL     1       7.606   5.240  13.492  0.00  0.00    +0.000 NA
ATOM     17  C   UNL     1       6.617   4.956  14.320  0.00  0.00    +0.000 A 
ATOM     18  O   UNL     1       5.755   3.994  13.863  0.00  0.00    +0.000 OA
BRANCH  14  20
ATOM     19  C   UNL     1       4.202   3.225  11.327  0.00  0.00    +0.000 C 
ATOM     20  C   UNL     1       5.512   2.658  11.847  0.00  0.00    +0.000 C 
ENDBRANCH  14  20
ENDBRANCH  13  17
ENDBRANCH   1  13
TORSDOF 6
ENDMDL
MODEL 4
REMARK VINA RESULT:      -6.8      1.016      1.441
REMARK  Name = 
REMARK  8 active torsions:
REMARK  status: ('A' for Active; 'I' for Inactive)
REMARK    1  A    between atoms: C_1  and  C_2
REMARK    2  A    between atoms: C_2  and  C_3
REMARK    3  A    between atoms: C_6  and  C_7
REMARK    4  A    between atoms: C_7  and  N_8
REMARK    5  A    between atoms: N_8  and  C_9
REMARK    6  A    between atoms: N_8  and  C_10
REMARK    7  A    between atoms: N_13  and  C_14
REMARK    8  A    between atoms: C_14  and  C_15
REMARK                            x       y       z     vdW  Elec       q    Type
REMARK                         _______ _______ _______ _____ _____    ______ ____
ROOT
ATOM      1  N   UNL     1       6.278   6.316  16.390  0.00  0.00    +0.000 NA
ATOM      2  C   UNL     1       5.150   6.528  15.472  0.00  0.00    +0.000 C 
ENDROOT
BRANCH   1   3
ATOM      3  C   UNL     1       5.863   6.302  17.817  0.00  0.00    +0.000 C 
ATOM      4  C   UNL     1       6.181   4.978  18.524  0.00  0.00    +0.000 C 
ATOM      5  C   UNL     1       4.955   4.140  18.229  0.00  0.00    +0.000 C 
ATOM      6  N   UNL     1       3.830   5.052  18.495  0.00  0.00    +0.000 NA
ATOM      7  C   UNL     1       4.316   6.377  18.035  0.00  0.00    +0.000 C 
BRANCH   6   8
ATOM      8  C   UNL     1       3.459   5.016  19.921  0.00  0.00    +0.000 C 
BRANCH   8   9
ATOM      9  C   UNL     1       2.059   4.451  20.148  0.00  0.00    +0.000 C 
ATOM     10  C   UNL     1       1.696   3.131  19.421  0.00  0.00    +0.000 C 
ATOM     11  C   UNL     1       1.009   2.668  20.719  0.00  0.00    +0.000 C 
ATOM     12  C   UNL     1       1.881   3.679  21.482  0.00  0.00    +0.000 C 
ENDBRANCH   8   9
ENDBRANCH   6   8
ENDBRANCH   1   3
BRANCH   1  13
ATOM     13  C   UNL     1       7.032   5.103  15.974  0.00  0.00    +0.000 C 
BRANCH  13  17
ATOM     14  C   UNL     1       6.506   3.817  12.683  0.00  0.00    +0.000 A 
ATOM     15  C   UNL     1       7.404   4.823  12.406  0.00  0.00    +0.000 A 
ATOM     16  N   UNL     1       7.767   5.457  13.565  0.00  0.00    +0.000 NA
ATOM     17  C   UNL     1       7.077   4.830  14.500  0.00  0.00    +0.000 A 
ATOM     18  O   UNL     1       6.290   3.810  14.034  0.00  0.00    +0.000 OA
BRANCH  14  20
ATOM     19  C   UNL     1       4.356   3.341  11.564  0.00  0.00    +0.000 C 
ATOM     20  C   UNL     1       5.757   2.841  11.870  0.00  0.00    +0.000 C 
ENDBRANCH  14  20
ENDBRANCH  13  17
ENDBRANCH   1  13
TORSDOF 6
ENDMDL
MODEL 5
REMARK VINA RESULT:      -6.7      1.042      1.489
REMARK  Name = 
REMARK  8 active torsions:
REMARK  status: ('A' for Active; 'I' for Inactive)
REMARK    1  A    between atoms: C_1  and  C_2
REMARK    2  A    between atoms: C_2  and  C_3
REMARK    3  A    between atoms: C_6  and  C_7
REMARK    4  A    between atoms: C_7  and  N_8
REMARK    5  A    between atoms: N_8  and  C_9
REMARK    6  A    between atoms: N_8  and  C_10
REMARK    7  A    between atoms: N_13  and  C_14
REMARK    8  A    between atoms: C_14  and  C_15
REMARK                            x       y       z     vdW  Elec       q    Type
REMARK                         _______ _______ _______ _____ _____    ______ ____
ROOT
ATOM      1  N   UNL     1       6.048   6.088  16.732  0.00  0.00    +0.000 NA
ATOM      2  C   UNL     1       5.151   6.589  15.681  0.00  0.00    +0.000 C 
ENDROOT
BRANCH   1   3
ATOM      3  C   UNL     1       5.390   6.015  18.062  0.00  0.00    +0.000 C 
ATOM      4  C   UNL     1       5.191   4.577  18.557  0.00  0.00    +0.000 C 
ATOM      5  C   UNL     1       3.857   4.198  17.951  0.00  0.00    +0.000 C 
ATOM      6  N   UNL     1       3.001   5.366  18.219  0.00  0.00    +0.000 NA
ATOM      7  C   UNL     1       3.913   6.528  18.076  0.00  0.00    +0.000 C 
BRANCH   6   8
ATOM      8  C   UNL     1       2.378   5.258  19.551  0.00  0.00    +0.000 C 
BRANCH   8   9
ATOM      9  C   UNL     1       2.284   3.814  20.038  0.00  0.00    +0.000 C 
ATOM     10  C   UNL     1       2.470   3.561  21.556  0.00  0.00    +0.000 C 
ATOM     11  C   UNL     1       1.305   2.559  21.477  0.00  0.00    +0.000 C 
ATOM     12  C   UNL     1       0.837   3.280  20.202  0.00  0.00    +0.000 C 
ENDBRANCH   8   9
ENDBRANCH   6   8
ENDBRANCH   1   3
BRANCH   1  13
ATOM     13  C   UNL     1       6.656   4.804  16.292  0.00  0.00    +0.000 C 
BRANCH  13  17
ATOM     14  C   UNL     1       6.497   3.802  12.867  0.00  0.00    +0.000 A 
ATOM     15  C   UNL     1       7.443   4.799  12.782  0.00  0.00    +0.000 A 
ATOM     16  N   UNL     1       7.679   5.326  14.023  0.00  0.00    +0.000 NA
ATOM     17  C   UNL     1       6.869   4.648  14.816  0.00  0.00    +0.000 A 
ATOM     18  O   UNL     1       6.122   3.693  14.178  0.00  0.00    +0.000 OA
BRANCH  14  20
ATOM     19  C   UNL     1       6.784   1.858  11.371  0.00  0.00    +0.000 C 
ATOM     20  C   UNL     1       5.830   2.918  11.893  0.00  0.00    +0.000 C 
ENDBRANCH  14  20
ENDBRANCH  13  17
ENDBRANCH   1  13
TORSDOF 6
ENDMDL
MODEL 6
REMARK VINA RESULT:      -6.6      1.745      2.627
REMARK  Name = 
REMARK  8 active torsions:
REMARK  status: ('A' for Active; 'I' for Inactive)
REMARK    1  A    between atoms: C_1  and  C_2
REMARK    2  A    between atoms: C_2  and  C_3
REMARK    3  A    between atoms: C_6  and  C_7
REMARK    4  A    between atoms: C_7  and  N_8
REMARK    5  A    between atoms: N_8  and  C_9
REMARK    6  A    between atoms: N_8  and  C_10
REMARK    7  A    between atoms: N_13  and  C_14
REMARK    8  A    between atoms: C_14  and  C_15
REMARK                            x       y       z     vdW  Elec       q    Type
REMARK                         _______ _______ _______ _____ _____    ______ ____
ROOT
ATOM      1  N   UNL     1       6.307   4.607  17.161  0.00  0.00    +0.000 NA
ATOM      2  C   UNL     1       7.715   4.390  17.522  0.00  0.00    +0.000 C 
ENDROOT
BRANCH   1   3
ATOM      3  C   UNL     1       5.468   4.987  18.328  0.00  0.00    +0.000 C 
ATOM      4  C   UNL     1       4.619   3.826  18.861  0.00  0.00    +0.000 C 
ATOM      5  C   UNL     1       3.366   3.915  18.016  0.00  0.00    +0.000 C 
ATOM      6  N   UNL     1       3.032   5.350  18.025  0.00  0.00    +0.000 NA
ATOM      7  C   UNL     1       4.351   6.031  18.001  0.00  0.00    +0.000 C 
BRANCH   6   8
ATOM      8  C   UNL     1       2.211   5.684  19.202  0.00  0.00    +0.000 C 
BRANCH   8   9
ATOM      9  C   UNL     1       2.393   7.132  19.652  0.00  0.00    +0.000 C 
ATOM     10  C   UNL     1       1.742   8.235  18.780  0.00  0.00    +0.000 C 
ATOM     11  C   UNL     1       1.310   8.934  20.082  0.00  0.00    +0.000 C 
ATOM     12  C   UNL     1       1.442   7.578  20.795  0.00  0.00    +0.000 C 
ENDBRANCH   8   9
ENDBRANCH   6   8
ENDBRANCH   1   3
BRANCH   1  13
ATOM     13  C   UNL     1       6.230   5.568  16.029  0.00  0.00    +0.000 C 
BRANCH  13  17
ATOM     14  C   UNL     1       6.320   3.780  12.938  0.00  0.00    +0.000 A 
ATOM     15  C   UNL     1       7.423   4.588  12.780  0.00  0.00    +0.000 A 
ATOM     16  N   UNL     1       7.594   5.370  13.892  0.00  0.00    +0.000 NA
ATOM     17  C   UNL     1       6.591   5.025  14.679  0.00  0.00    +0.000 A 
ATOM     18  O   UNL     1       5.776   4.052  14.163  0.00  0.00    +0.000 OA
BRANCH  14  20
ATOM     19  C   UNL     1       4.380   3.360  11.468  0.00  0.00    +0.000 C 
ATOM     20  C   UNL     1       5.636   2.781  12.096  0.00  0.00    +0.000 C 
ENDBRANCH  14  20
ENDBRANCH  13  17
ENDBRANCH   1  13
TORSDOF 6
ENDMDL
MODEL 7
REMARK VINA RESULT:      -6.6      1.192      1.609
REMARK  Name = 
REMARK  8 active torsions:
REMARK  status: ('A' for Active; 'I' for Inactive)
REMARK    1  A    between atoms: C_1  and  C_2
REMARK    2  A    between atoms: C_2  and  C_3
REMARK    3  A    between atoms: C_6  and  C_7
REMARK    4  A    between atoms: C_7  and  N_8
REMARK    5  A    between atoms: N_8  and  C_9
REMARK    6  A    between atoms: N_8  and  C_10
REMARK    7  A    between atoms: N_13  and  C_14
REMARK    8  A    between atoms: C_14  and  C_15
REMARK                            x       y       z     vdW  Elec       q    Type
REMARK                         _______ _______ _______ _____ _____    ______ ____
ROOT
ATOM      1  N   UNL     1       6.256   5.928  16.992  0.00  0.00    +0.000 NA
ATOM      2  C   UNL     1       7.325   6.936  16.990  0.00  0.00    +0.000 C 
ENDROOT
BRANCH   1   3
ATOM      3  C   UNL     1       5.373   6.030  18.184  0.00  0.00    +0.000 C 
ATOM      4  C   UNL     1       5.895   5.237  19.388  0.00  0.00    +0.000 C 
ATOM      5  C   UNL     1       5.312   3.859  19.158  0.00  0.00    +0.000 C 
ATOM      6  N   UNL     1       3.909   4.123  18.797  0.00  0.00    +0.000 NA
ATOM      7  C   UNL     1       3.967   5.372  17.997  0.00  0.00    +0.000 C 
BRANCH   6   8
ATOM      8  C   UNL     1       3.073   4.227  20.006  0.00  0.00    +0.000 C 
BRANCH   8   9
ATOM      9  C   UNL     1       2.050   3.098  20.111  0.00  0.00    +0.000 C 
ATOM     10  C   UNL     1       0.597   3.411  19.672  0.00  0.00    +0.000 C 
ATOM     11  C   UNL     1       0.564   2.033  18.988  0.00  0.00    +0.000 C 
ATOM     12  C   UNL     1       2.101   2.070  18.949  0.00  0.00    +0.000 C 
ENDBRANCH   8   9
ENDBRANCH   6   8
ENDBRANCH   1   3
BRANCH   1  13
ATOM     13  C   UNL     1       5.524   5.982  15.698  0.00  0.00    +0.000 C 
BRANCH  13  17
ATOM     14  C   UNL     1       6.128   3.776  12.955  0.00  0.00    +0.000 A 
ATOM     15  C   UNL     1       7.351   4.406  13.030  0.00  0.00    +0.000 A 
ATOM     16  N   UNL     1       7.349   5.309  14.059  0.00  0.00    +0.000 NA
ATOM     17  C   UNL     1       6.133   5.211  14.566  0.00  0.00    +0.000 A 
ATOM     18  O   UNL     1       5.335   4.286  13.945  0.00  0.00    +0.000 OA
BRANCH  14  20
ATOM     19  C   UNL     1       4.265   3.280  11.411  0.00  0.00    +0.000 C 
ATOM     20  C   UNL     1       5.536   2.763  12.062  0.00  0.00    +0.000 C 
ENDBRANCH  14  20
ENDBRANCH  13  17
ENDBRANCH   1  13
TORSDOF 6
ENDMDL
MODEL 8
REMARK VINA RESULT:      -6.5      1.149      1.307
REMARK  Name = 
REMARK  8 active torsions:
REMARK  status: ('A' for Active; 'I' for Inactive)
REMARK    1  A    between atoms: C_1  and  C_2
REMARK    2  A    between atoms: C_2  and  C_3
REMARK    3  A    between atoms: C_6  and  C_7
REMARK    4  A    between atoms: C_7  and  N_8
REMARK    5  A    between atoms: N_8  and  C_9
REMARK    6  A    between atoms: N_8  and  C_10
REMARK    7  A    between atoms: N_13  and  C_14
REMARK    8  A    between atoms: C_14  and  C_15
REMARK                            x       y       z     vdW  Elec       q    Type
REMARK                         _______ _______ _______ _____ _____    ______ ____
ROOT
ATOM      1  N   UNL     1       5.657   5.891  16.516  0.00  0.00    +0.000 NA
ATOM      2  C   UNL     1       5.151   6.618  15.344  0.00  0.00    +0.000 C 
ENDROOT
BRANCH   1   3
ATOM      3  C   UNL     1       4.591   5.138  17.229  0.00  0.00    +0.000 C 
ATOM      4  C   UNL     1       4.262   5.722  18.608  0.00  0.00    +0.000 C 
ATOM      5  C   UNL     1       5.261   5.030  19.511  0.00  0.00    +0.000 C 
ATOM      6  N   UNL     1       5.196   3.618  19.095  0.00  0.00    +0.000 NA
ATOM      7  C   UNL     1       4.993   3.680  17.626  0.00  0.00    +0.000 C 
BRANCH   6   8
ATOM      8  C   UNL     1       4.121   2.914  19.816  0.00  0.00    +0.000 C 
BRANCH   8   9
ATOM      9  C   UNL     1       2.763   3.592  19.652  0.00  0.00    +0.000 C 
ATOM     10  C   UNL     1       1.576   2.709  19.191  0.00  0.00    +0.000 C 
ATOM     11  C   UNL     1       0.700   3.442  20.223  0.00  0.00    +0.000 C 
ATOM     12  C   UNL     1       1.987   3.815  20.978  0.00  0.00    +0.000 C 
ENDBRANCH   8   9
ENDBRANCH   6   8
ENDBRANCH   1   3
BRANCH   1  13
ATOM     13  C   UNL     1       6.817   5.052  16.114  0.00  0.00    +0.000 C 
BRANCH  13  17
ATOM     14  C   UNL     1       6.484   3.783  12.792  0.00  0.00    +0.000 A 
ATOM     15  C   UNL     1       7.422   4.767  12.579  0.00  0.00    +0.000 A 
ATOM     16  N   UNL     1       7.722   5.390  13.762  0.00  0.00    +0.000 NA
ATOM     17  C   UNL     1       6.955   4.779  14.646  0.00  0.00    +0.000 A 
ATOM     18  O   UNL     1       6.177   3.779  14.125  0.00  0.00    +0.000 OA
BRANCH  14  20
ATOM     19  C   UNL     1       4.384   3.337  11.571  0.00  0.00    +0.000 C 
ATOM     20  C   UNL     1       5.769   2.826  11.927  0.00  0.00    +0.000 C 
ENDBRANCH  14  20
ENDBRANCH  13  17
ENDBRANCH   1  13
TORSDOF 6
ENDMDL
MODEL 9
REMARK VINA RESULT:      -6.4      2.774      4.351
REMARK  Name = 
REMARK  8 active torsions:
REMARK  status: ('A' for Active; 'I' for Inactive)
REMARK    1  A    between atoms: C_1  and  C_2
REMARK    2  A    between atoms: C_2  and  C_3
REMARK    3  A    between atoms: C_6  and  C_7
REMARK    4  A    between atoms: C_7  and  N_8
REMARK    5  A    between atoms: N_8  and  C_9
REMARK    6  A    between atoms: N_8  and  C_10
REMARK    7  A    between atoms: N_13  and  C_14
REMARK    8  A    between atoms: C_14  and  C_15
REMARK                            x       y       z     vdW  Elec       q    Type
REMARK                         _______ _______ _______ _____ _____    ______ ____
ROOT
ATOM      1  N   UNL     1       3.264   3.895  18.700  0.00  0.00    +0.000 NA
ATOM      2  C   UNL     1       2.894   2.508  19.015  0.00  0.00    +0.000 C 
ENDROOT
BRANCH   1   3
ATOM      3  C   UNL     1       2.169   4.860  18.983  0.00  0.00    +0.000 C 
ATOM      4  C   UNL     1       1.948   5.867  17.848  0.00  0.00    +0.000 C 
ATOM      5  C   UNL     1       2.921   6.975  18.191  0.00  0.00    +0.000 C 
ATOM      6  N   UNL     1       2.720   7.189  19.634  0.00  0.00    +0.000 NA
ATOM      7  C   UNL     1       2.462   5.830  20.173  0.00  0.00    +0.000 C 
BRANCH   6   8
ATOM      8  C   UNL     1       1.620   8.142  19.869  0.00  0.00    +0.000 C 
BRANCH   8   9
ATOM      9  C   UNL     1       1.114   8.109  21.309  0.00  0.00    +0.000 C 
ATOM     10  C   UNL     1       1.490   9.302  22.224  0.00  0.00    +0.000 C 
ATOM     11  C   UNL     1       0.052   9.267  22.772  0.00  0.00    +0.000 C 
ATOM     12  C   UNL     1      -0.367   8.538  21.483  0.00  0.00    +0.000 C 
ENDBRANCH   8   9
ENDBRANCH   6   8
ENDBRANCH   1   3
BRANCH   1  13
ATOM     13  C   UNL     1       4.547   4.229  19.374  0.00  0.00    +0.000 C 
BRANCH  13  17
ATOM     14  C   UNL     1       6.749   4.525  16.577  0.00  0.00    +0.000 A 
ATOM     15  C   UNL     1       7.644   4.705  17.607  0.00  0.00    +0.000 A 
ATOM     16  N   UNL     1       6.997   4.609  18.811  0.00  0.00    +0.000 NA
ATOM     17  C   UNL     1       5.739   4.388  18.479  0.00  0.00    +0.000 A 
ATOM     18  O   UNL     1       5.515   4.316  17.129  0.00  0.00    +0.000 OA
BRANCH  14  20
ATOM     19  C   UNL     1       5.475   4.369  14.466  0.00  0.00    +0.000 C 
ATOM     20  C   UNL     1       6.841   4.549  15.106  0.00  0.00    +0.000 C 
ENDBRANCH  14  20
ENDBRANCH  13  17
ENDBRANCH   1  13
TORSDOF 6
ENDMDL
