MODEL 1
REMARK VINA RESULT:      -8.0      0.000      0.000
REMARK  Name = 
REMARK  9 active torsions:
REMARK  status: ('A' for Active; 'I' for Inactive)
REMARK    1  A    between atoms: C_1  and  O_2
REMARK    2  A    between atoms: O_2  and  C_3
REMARK    3  A    between atoms: C_6  and  C_7
REMARK    4  A    between atoms: C_7  and  C_8
REMARK    5  A    between atoms: C_8  and  C_9
REMARK    6  A    between atoms: N_11  and  C_12
REMARK    7  A    between atoms: C_12  and  C_13
REMARK    8  A    between atoms: C_13  and  C_14
REMARK    9  A    between atoms: C_17  and  C_18
REMARK                            x       y       z     vdW  Elec       q    Type
REMARK                         _______ _______ _______ _____ _____    ______ ____
ROOT
ATOM      1  C   UNL     1       7.858   7.405  17.870  0.00  0.00    +0.000 C 
ATOM      2  O   UNL     1       8.036   6.691  18.853  0.00  0.00    +0.000 OA
ATOM      3  N   UNL     1       7.418   6.912  16.659  0.00  0.00    +0.000 N 
ATOM      4  H   UNL     1       7.384   7.528  15.857  0.00  0.00    +0.000 HD
ENDROOT
BRANCH   1   5
ATOM      5  C   UNL     1       8.047   8.908  17.893  0.00  0.00    +0.000 C 
BRANCH   5   6
ATOM      6  C   UNL     1       9.091   9.304  18.938  0.00  0.00    +0.000 C 
BRANCH   6  10
ATOM      7  C   UNL     1       9.448  13.593  19.346  0.00  0.00    +0.000 A 
ATOM      8  C   UNL     1       9.294  13.012  18.087  0.00  0.00    +0.000 A 
ATOM      9  C   UNL     1       9.178  11.626  17.953  0.00  0.00    +0.000 A 
ATOM     10  C   UNL     1       9.229  10.799  19.082  0.00  0.00    +0.000 A 
ATOM     11  C   UNL     1       9.413  11.385  20.341  0.00  0.00    +0.000 A 
ATOM     12  C   UNL     1       9.520  12.775  20.472  0.00  0.00    +0.000 A 
BRANCH   7  14
ATOM     13  C   UNL     1      10.235  15.527  20.460  0.00  0.00    +0.000 C 
ATOM     14  O   UNL     1       9.555  14.958  19.347  0.00  0.00    +0.000 OA
ENDBRANCH   7  14
ENDBRANCH   6  10
ENDBRANCH   5   6
ENDBRANCH   1   5
BRANCH   3  15
ATOM     15  C   UNL     1       7.225   5.481  16.477  0.00  0.00    +0.000 C 
BRANCH  15  16
ATOM     16  C   UNL     1       5.940   5.142  15.726  0.00  0.00    +0.000 C 
BRANCH  16  17
ATOM     17  C   UNL     1       4.748   5.140  16.626  0.00  0.00    +0.000 A 
ATOM     18  C   UNL     1       4.023   4.036  17.028  0.00  0.00    +0.000 A 
ATOM     19  S   UNL     1       2.744   4.514  18.058  0.00  0.00    +0.000 S 
ATOM     20  C   UNL     1       3.238   6.161  17.911  0.00  0.00    +0.000 A 
ATOM     21  N   UNL     1       4.285   6.347  17.126  0.00  0.00    +0.000 NA
BRANCH  20  22
ATOM     22  C   UNL     1       2.497   7.248  18.579  0.00  0.00    +0.000 A 
ATOM     23  C   UNL     1       2.172   7.224  19.946  0.00  0.00    +0.000 A 
ATOM     24  C   UNL     1       1.463   8.278  20.535  0.00  0.00    +0.000 A 
ATOM     25  C   UNL     1       1.075   9.370  19.765  0.00  0.00    +0.000 A 
ATOM     26 CL   UNL     1       0.202  10.663  20.489  0.00  0.00    +0.000 Cl
ATOM     27  C   UNL     1       1.394   9.422  18.411  0.00  0.00    +0.000 A 
ATOM     28  C   UNL     1       2.105   8.369  17.825  0.00  0.00    +0.000 A 
ENDBRANCH  20  22
ENDBRANCH  16  17
ENDBRANCH  15  16
ENDBRANCH   3  15
TORSDOF 8
ENDMDL
MODEL 2
REMARK VINA RESULT:      -7.9      1.303      1.660
REMARK  Name = 
REMARK  9 active torsions:
REMARK  status: ('A' for Active; 'I' for Inactive)
REMARK    1  A    between atoms: C_1  and  O_2
REMARK    2  A    between atoms: O_2  and  C_3
REMARK    3  A    between atoms: C_6  and  C_7
REMARK    4  A    between atoms: C_7  and  C_8
REMARK    5  A    between atoms: C_8  and  C_9
REMARK    6  A    between atoms: N_11  and  C_12
REMARK    7  A    between atoms: C_12  and  C_13
REMARK    8  A    between atoms: C_13  and  C_14
REMARK    9  A    between atoms: C_17  and  C_18
REMARK                            x       y       z     vdW  Elec       q    Type
REMARK                         _______ _______ _______ _____ _____    ______ ____
ROOT
ATOM      1  C   UNL     1       7.413   6.924  17.251  0.00  0.00    +0.000 C 
ATOM      2  O   UNL     1       7.713   6.509  16.134  0.00  0.00    +0.000 OA
ATOM      3  N   UNL     1       7.007   6.091  18.272  0.00  0.00    +0.000 N 
ATOM      4  H   UNL     1       6.677   6.495  19.139  0.00  0.00    +0.000 HD
ENDROOT
BRANCH   1   5
ATOM      5  C   UNL     1       7.507   8.384  17.644  0.00  0.00    +0.000 C 
BRANCH   5   6
ATOM      6  C   UNL     1       8.698   8.617  18.572  0.00  0.00    +0.000 C 
BRANCH   6  10
ATOM      7  C   UNL     1       9.514  12.808  19.251  0.00  0.00    +0.000 A 
ATOM      8  C   UNL     1       9.727  11.872  20.263  0.00  0.00    +0.000 A 
ATOM      9  C   UNL     1       9.464  10.517  20.045  0.00  0.00    +0.000 A 
ATOM     10  C   UNL     1       8.970  10.081  18.810  0.00  0.00    +0.000 A 
ATOM     11  C   UNL     1       8.730  11.029  17.807  0.00  0.00    +0.000 A 
ATOM     12  C   UNL     1       9.002  12.385  18.025  0.00  0.00    +0.000 A 
BRANCH   7  14
ATOM     13  C   UNL     1      10.840  14.278  20.547  0.00  0.00    +0.000 C 
ATOM     14  O   UNL     1       9.804  14.103  19.587  0.00  0.00    +0.000 OA
ENDBRANCH   7  14
ENDBRANCH   6  10
ENDBRANCH   5   6
ENDBRANCH   1   5
BRANCH   3  15
ATOM     15  C   UNL     1       6.838   4.665  18.032  0.00  0.00    +0.000 C 
BRANCH  15  16
ATOM     16  C   UNL     1       5.446   4.306  17.518  0.00  0.00    +0.000 C 
BRANCH  16  17
ATOM     17  C   UNL     1       4.369   4.785  18.436  0.00  0.00    +0.000 A 
ATOM     18  C   UNL     1       3.795   4.075  19.472  0.00  0.00    +0.000 A 
ATOM     19  S   UNL     1       2.604   5.025  20.249  0.00  0.00    +0.000 S 
ATOM     20  C   UNL     1       2.929   6.325  19.162  0.00  0.00    +0.000 A 
ATOM     21  N   UNL     1       3.859   6.062  18.261  0.00  0.00    +0.000 NA
BRANCH  20  22
ATOM     22  C   UNL     1       2.175   7.591  19.231  0.00  0.00    +0.000 A 
ATOM     23  C   UNL     1       1.577   8.062  20.413  0.00  0.00    +0.000 A 
ATOM     24  C   UNL     1       0.866   9.268  20.429  0.00  0.00    +0.000 A 
ATOM     25  C   UNL     1       0.750  10.021  19.264  0.00  0.00    +0.000 A 
ATOM     26 CL   UNL     1      -0.126  11.501  19.284  0.00  0.00    +0.000 Cl
ATOM     27  C   UNL     1       1.341   9.581  18.083  0.00  0.00    +0.000 A 
ATOM     28  C   UNL     1       2.053   8.377  18.070  0.00  0.00    +0.000 A 
ENDBRANCH  20  22
ENDBRANCH  16  17
ENDBRANCH  15  16
ENDBRANCH   3  15
TORSDOF 8
ENDMDL
MODEL 3
REMARK VINA RESULT:      -7.8      1.265      1.679
REMARK  Name = 
REMARK  9 active torsions:
REMARK  status: ('A' for Active; 'I' for Inactive)
REMARK    1  A    between atoms: C_1  and  O_2
REMARK    2  A    between atoms: O_2  and  C_3
REMARK    3  A    between atoms: C_6  and  C_7
REMARK    4  A    between atoms: C_7  and  C_8
REMARK    5  A    between atoms: C_8  and  C_9
REMARK    6  A    between atoms: N_11  and  C_12
REMARK    7  A    between atoms: C_12  and  C_13
REMARK    8  A    between atoms: C_13  and  C_14
REMARK    9  A    between atoms: C_17  and  C_18
REMARK                            x       y       z     vdW  Elec       q    Type
REMARK                         _______ _______ _______ _____ _____    ______ ____
ROOT
ATOM      1  C   UNL     1       7.854   7.780  17.822  0.00  0.00    +0.000 C 
ATOM      2  O   UNL     1       8.284   6.994  18.662  0.00  0.00    +0.000 OA
ATOM      3  N   UNL     1       6.949   7.411  16.849  0.00  0.00    +0.000 N 
ATOM      4  H   UNL     1       6.705   8.073  16.123  0.00  0.00    +0.000 HD
ENDROOT
BRANCH   1   5
ATOM      5  C   UNL     1       8.226   9.249  17.794  0.00  0.00    +0.000 C 
BRANCH   5   6
ATOM      6  C   UNL     1       9.020   9.627  19.045  0.00  0.00    +0.000 C 
BRANCH   6  10
ATOM      7  C   UNL     1      10.867  13.523  18.725  0.00  0.00    +0.000 A 
ATOM      8  C   UNL     1       9.915  13.111  17.791  0.00  0.00    +0.000 A 
ATOM      9  C   UNL     1       9.317  11.852  17.893  0.00  0.00    +0.000 A 
ATOM     10  C   UNL     1       9.675  10.980  18.928  0.00  0.00    +0.000 A 
ATOM     11  C   UNL     1      10.652  11.387  19.846  0.00  0.00    +0.000 A 
ATOM     12  C   UNL     1      11.243  12.652  19.746  0.00  0.00    +0.000 A 
BRANCH   7  14
ATOM     13  C   UNL     1      12.062  14.967  17.280  0.00  0.00    +0.000 C 
ATOM     14  O   UNL     1      11.382  14.773  18.516  0.00  0.00    +0.000 OA
ENDBRANCH   7  14
ENDBRANCH   6  10
ENDBRANCH   5   6
ENDBRANCH   1   5
BRANCH   3  15
ATOM     15  C   UNL     1       6.525   6.024  16.730  0.00  0.00    +0.000 C 
BRANCH  15  16
ATOM     16  C   UNL     1       5.062   5.879  16.320  0.00  0.00    +0.000 C 
BRANCH  16  17
ATOM     17  C   UNL     1       4.143   5.911  17.498  0.00  0.00    +0.000 A 
ATOM     18  C   UNL     1       3.858   4.860  18.348  0.00  0.00    +0.000 A 
ATOM     19  S   UNL     1       2.754   5.360  19.553  0.00  0.00    +0.000 S 
ATOM     20  C   UNL     1       2.727   6.946  18.874  0.00  0.00    +0.000 A 
ATOM     21  N   UNL     1       3.483   7.091  17.801  0.00  0.00    +0.000 NA
BRANCH  20  22
ATOM     22  C   UNL     1       1.878   8.011  19.441  0.00  0.00    +0.000 A 
ATOM     23  C   UNL     1       1.457   9.129  18.702  0.00  0.00    +0.000 A 
ATOM     24  C   UNL     1       0.654  10.117  19.285  0.00  0.00    +0.000 A 
ATOM     25  C   UNL     1       0.259   9.996  20.614  0.00  0.00    +0.000 A 
ATOM     26 CL   UNL     1      -0.725  11.211  21.330  0.00  0.00    +0.000 Cl
ATOM     27  C   UNL     1       0.654   8.893  21.365  0.00  0.00    +0.000 A 
ATOM     28  C   UNL     1       1.454   7.905  20.779  0.00  0.00    +0.000 A 
ENDBRANCH  20  22
ENDBRANCH  16  17
ENDBRANCH  15  16
ENDBRANCH   3  15
TORSDOF 8
ENDMDL
MODEL 4
REMARK VINA RESULT:      -7.7      1.031      1.103
REMARK  Name = 
REMARK  9 active torsions:
REMARK  status: ('A' for Active; 'I' for Inactive)
REMARK    1  A    between atoms: C_1  and  O_2
REMARK    2  A    between atoms: O_2  and  C_3
REMARK    3  A    between atoms: C_6  and  C_7
REMARK    4  A    between atoms: C_7  and  C_8
REMARK    5  A    between atoms: C_8  and  C_9
REMARK    6  A    between atoms: N_11  and  C_12
REMARK    7  A    between atoms: C_12  and  C_13
REMARK    8  A    between atoms: C_13  and  C_14
REMARK    9  A    between atoms: C_17  and  C_18
REMARK                            x       y       z     vdW  Elec       q    Type
REMARK                         _______ _______ _______ _____ _____    ______ ____
ROOT
ATOM      1  C   UNL     1       7.764   6.917  17.661  0.00  0.00    +0.000 C 
ATOM      2  O   UNL     1       7.829   6.959  16.435  0.00  0.00    +0.000 OA
ATOM      3  N   UNL     1       7.382   5.785  18.350  0.00  0.00    +0.000 N 
ATOM      4  H   UNL     1       7.251   5.837  19.352  0.00  0.00    +0.000 HD
ENDROOT
BRANCH   1   5
ATOM      5  C   UNL     1       8.149   8.083  18.550  0.00  0.00    +0.000 C 
BRANCH   5   6
ATOM      6  C   UNL     1       8.171   9.385  17.751  0.00  0.00    +0.000 C 
BRANCH   6  10
ATOM      7  C   UNL     1      10.310  12.551  19.776  0.00  0.00    +0.000 A 
ATOM      8  C   UNL     1       9.846  12.730  18.472  0.00  0.00    +0.000 A 
ATOM      9  C   UNL     1       9.155  11.708  17.816  0.00  0.00    +0.000 A 
ATOM     10  C   UNL     1       8.929  10.483  18.455  0.00  0.00    +0.000 A 
ATOM     11  C   UNL     1       9.421  10.298  19.753  0.00  0.00    +0.000 A 
ATOM     12  C   UNL     1      10.106  11.327  20.411  0.00  0.00    +0.000 A 
BRANCH   7  14
ATOM     13  C   UNL     1      10.516  14.905  19.897  0.00  0.00    +0.000 C 
ATOM     14  O   UNL     1      10.975  13.622  20.308  0.00  0.00    +0.000 OA
ENDBRANCH   7  14
ENDBRANCH   6  10
ENDBRANCH   5   6
ENDBRANCH   1   5
BRANCH   3  15
ATOM     15  C   UNL     1       6.952   4.597  17.628  0.00  0.00    +0.000 C 
BRANCH  15  16
ATOM     16  C   UNL     1       5.864   4.885  16.598  0.00  0.00    +0.000 C 
BRANCH  16  17
ATOM     17  C   UNL     1       4.525   5.075  17.235  0.00  0.00    +0.000 A 
ATOM     18  C   UNL     1       3.577   4.097  17.463  0.00  0.00    +0.000 A 
ATOM     19  S   UNL     1       2.200   4.777  18.216  0.00  0.00    +0.000 S 
ATOM     20  C   UNL     1       2.953   6.329  18.197  0.00  0.00    +0.000 A 
ATOM     21  N   UNL     1       4.154   6.345  17.646  0.00  0.00    +0.000 NA
BRANCH  20  22
ATOM     22  C   UNL     1       2.261   7.525  18.714  0.00  0.00    +0.000 A 
ATOM     23  C   UNL     1       1.872   7.663  20.058  0.00  0.00    +0.000 A 
ATOM     24  C   UNL     1       1.214   8.816  20.502  0.00  0.00    +0.000 A 
ATOM     25  C   UNL     1       0.940   9.847  19.608  0.00  0.00    +0.000 A 
ATOM     26 CL   UNL     1       0.128  11.261  20.154  0.00  0.00    +0.000 Cl
ATOM     27  C   UNL     1       1.323   9.739  18.275  0.00  0.00    +0.000 A 
ATOM     28  C   UNL     1       1.984   8.587  17.834  0.00  0.00    +0.000 A 
ENDBRANCH  20  22
ENDBRANCH  16  17
ENDBRANCH  15  16
ENDBRANCH   3  15
TORSDOF 8
ENDMDL
MODEL 5
REMARK VINA RESULT:      -7.6      1.076      1.282
REMARK  Name = 
REMARK  9 active torsions:
REMARK  status: ('A' for Active; 'I' for Inactive)
REMARK    1  A    between atoms: C_1  and  O_2
REMARK    2  A    between atoms: O_2  and  C_3
REMARK    3  A    between atoms: C_6  and  C_7
REMARK    4  A    between atoms: C_7  and  C_8
REMARK    5  A    between atoms: C_8  and  C_9
REMARK    6  A    between atoms: N_11  and  C_12
REMARK    7  A    between atoms: C_12  and  C_13
REMARK    8  A    between atoms: C_13  and  C_14
REMARK    9  A    between atoms: C_17  and  C_18
REMARK                            x       y       z     vdW  Elec       q    Type
REMARK                         _______ _______ _______ _____ _____    ______ ____
ROOT
ATOM      1  C   UNL     1       7.695   6.078  18.708  0.00  0.00    +0.000 C 
ATOM      2  O   UNL     1       7.185   5.473  19.648  0.00  0.00    +0.000 OA
ATOM      3  N   UNL     1       7.527   5.693  17.394  0.00  0.00    +0.000 N 
ATOM      4  H   UNL     1       8.050   6.168  16.669  0.00  0.00    +0.000 HD
ENDROOT
BRANCH   1   5
ATOM      5  C   UNL     1       8.515   7.340  18.883  0.00  0.00    +0.000 C 
BRANCH   5   6
ATOM      6  C   UNL     1       8.061   8.418  17.899  0.00  0.00    +0.000 C 
BRANCH   6  10
ATOM      7  C   UNL     1       9.444  12.366  18.996  0.00  0.00    +0.000 A 
ATOM      8  C   UNL     1       8.707  12.172  17.827  0.00  0.00    +0.000 A 
ATOM      9  C   UNL     1       8.259  10.897  17.471  0.00  0.00    +0.000 A 
ATOM     10  C   UNL     1       8.556   9.792  18.278  0.00  0.00    +0.000 A 
ATOM     11  C   UNL     1       9.320   9.987  19.435  0.00  0.00    +0.000 A 
ATOM     12  C   UNL     1       9.760  11.267  19.794  0.00  0.00    +0.000 A 
BRANCH   7  14
ATOM     13  C   UNL     1       9.614  14.136  20.557  0.00  0.00    +0.000 C 
ATOM     14  O   UNL     1       9.828  13.657  19.233  0.00  0.00    +0.000 OA
ENDBRANCH   7  14
ENDBRANCH   6  10
ENDBRANCH   5   6
ENDBRANCH   1   5
BRANCH   3  15
ATOM     15  C   UNL     1       6.791   4.480  17.074  0.00  0.00    +0.000 C 
BRANCH  15  16
ATOM     16  C   UNL     1       5.392   4.755  16.529  0.00  0.00    +0.000 C 
BRANCH  16  17
ATOM     17  C   UNL     1       4.417   5.067  17.618  0.00  0.00    +0.000 A 
ATOM     18  C   UNL     1       3.999   4.211  18.618  0.00  0.00    +0.000 A 
ATOM     19  S   UNL     1       2.878   5.001  19.639  0.00  0.00    +0.000 S 
ATOM     20  C   UNL     1       3.023   6.436  18.693  0.00  0.00    +0.000 A 
ATOM     21  N   UNL     1       3.845   6.329  17.664  0.00  0.00    +0.000 NA
BRANCH  20  22
ATOM     22  C   UNL     1       2.238   7.645  19.006  0.00  0.00    +0.000 A 
ATOM     23  C   UNL     1       1.710   7.905  20.282  0.00  0.00    +0.000 A 
ATOM     24  C   UNL     1       0.967   9.065  20.531  0.00  0.00    +0.000 A 
ATOM     25  C   UNL     1       0.748   9.982  19.507  0.00  0.00    +0.000 A 
ATOM     26 CL   UNL     1      -0.166  11.406  19.813  0.00  0.00    +0.000 Cl
ATOM     27  C   UNL     1       1.269   9.753  18.237  0.00  0.00    +0.000 A 
ATOM     28  C   UNL     1       2.014   8.594  17.991  0.00  0.00    +0.000 A 
ENDBRANCH  20  22
ENDBRANCH  16  17
ENDBRANCH  15  16
ENDBRANCH   3  15
TORSDOF 8
ENDMDL
MODEL 6
REMARK VINA RESULT:      -7.5      1.619      2.169
REMARK  Name = 
REMARK  9 active torsions:
REMARK  status: ('A' for Active; 'I' for Inactive)
REMARK    1  A    between atoms: C_1  and  O_2
REMARK    2  A    between atoms: O_2  and  C_3
REMARK    3  A    between atoms: C_6  and  C_7
REMARK    4  A    between atoms: C_7  and  C_8
REMARK    5  A    between atoms: C_8  and  C_9
REMARK    6  A    between atoms: N_11  and  C_12
REMARK    7  A    between atoms: C_12  and  C_13
REMARK    8  A    between atoms: C_13  and  C_14
REMARK    9  A    between atoms: C_17  and  C_18
REMARK                            x       y       z     vdW  Elec       q    Type
REMARK                         _______ _______ _______ _____ _____    ______ ____
ROOT
ATOM      1  C   UNL     1       7.027   6.697  17.663  0.00  0.00    +0.000 C 
ATOM      2  O   UNL     1       6.423   6.922  16.618  0.00  0.00    +0.000 OA
ATOM      3  N   UNL     1       6.849   5.541  18.395  0.00  0.00    +0.000 N 
ATOM      4  H   UNL     1       7.298   5.453  19.297  0.00  0.00    +0.000 HD
ENDROOT
BRANCH   1   5
ATOM      5  C   UNL     1       8.073   7.634  18.232  0.00  0.00    +0.000 C 
BRANCH   5   6
ATOM      6  C   UNL     1       8.080   8.960  17.472  0.00  0.00    +0.000 C 
BRANCH   6  10
ATOM      7  C   UNL     1       9.695  12.217  19.811  0.00  0.00    +0.000 A 
ATOM      8  C   UNL     1       9.239  12.436  18.511  0.00  0.00    +0.000 A 
ATOM      9  C   UNL     1       8.717  11.385  17.753  0.00  0.00    +0.000 A 
ATOM     10  C   UNL     1       8.656  10.091  18.285  0.00  0.00    +0.000 A 
ATOM     11  C   UNL     1       9.141   9.870  19.580  0.00  0.00    +0.000 A 
ATOM     12  C   UNL     1       9.656  10.928  20.340  0.00  0.00    +0.000 A 
BRANCH   7  14
ATOM     13  C   UNL     1       9.674  13.569  21.753  0.00  0.00    +0.000 C 
ATOM     14  O   UNL     1      10.188  13.323  20.449  0.00  0.00    +0.000 OA
ENDBRANCH   7  14
ENDBRANCH   6  10
ENDBRANCH   5   6
ENDBRANCH   1   5
BRANCH   3  15
ATOM     15  C   UNL     1       5.852   4.562  17.988  0.00  0.00    +0.000 C 
BRANCH  15  16
ATOM     16  C   UNL     1       5.186   3.860  19.168  0.00  0.00    +0.000 C 
BRANCH  16  17
ATOM     17  C   UNL     1       3.912   4.528  19.572  0.00  0.00    +0.000 A 
ATOM     18  C   UNL     1       2.864   3.951  20.262  0.00  0.00    +0.000 A 
ATOM     19  S   UNL     1       1.615   5.095  20.501  0.00  0.00    +0.000 S 
ATOM     20  C   UNL     1       2.548   6.289  19.677  0.00  0.00    +0.000 A 
ATOM     21  N   UNL     1       3.716   5.857  19.233  0.00  0.00    +0.000 NA
BRANCH  20  22
ATOM     22  C   UNL     1       2.031   7.653  19.459  0.00  0.00    +0.000 A 
ATOM     23  C   UNL     1       2.206   8.355  18.254  0.00  0.00    +0.000 A 
ATOM     24  C   UNL     1       1.700   9.650  18.095  0.00  0.00    +0.000 A 
ATOM     25  C   UNL     1       1.009  10.258  19.139  0.00  0.00    +0.000 A 
ATOM     26 CL   UNL     1       0.390  11.851  18.944  0.00  0.00    +0.000 Cl
ATOM     27  C   UNL     1       0.814   9.582  20.339  0.00  0.00    +0.000 A 
ATOM     28  C   UNL     1       1.318   8.285  20.494  0.00  0.00    +0.000 A 
ENDBRANCH  20  22
ENDBRANCH  16  17
ENDBRANCH  15  16
ENDBRANCH   3  15
TORSDOF 8
ENDMDL
MODEL 7
REMARK VINA RESULT:      -7.2      1.210      2.060
REMARK  Name = 
REMARK  9 active torsions:
REMARK  status: ('A' for Active; 'I' for Inactive)
REMARK    1  A    between atoms: C_1  and  O_2
REMARK    2  A    between atoms: O_2  and  C_3
REMARK    3  A    between atoms: C_6  and  C_7
REMARK    4  A    between atoms: C_7  and  C_8
REMARK    5  A    between atoms: C_8  and  C_9
REMARK    6  A    between atoms: N_11  and  C_12
REMARK    7  A    between atoms: C_12  and  C_13
REMARK    8  A    between atoms: C_13  and  C_14
REMARK    9  A    between atoms: C_17  and  C_18
REMARK                            x       y       z     vdW  Elec       q    Type
REMARK                         _______ _______ _______ _____ _____    ______ ____
ROOT
ATOM      1  C   UNL     1       7.460   5.748  17.393  0.00  0.00    +0.000 C 
ATOM      2  O   UNL     1       8.111   4.707  17.389  0.00  0.00    +0.000 OA
ATOM      3  N   UNL     1       6.302   5.908  16.662  0.00  0.00    +0.000 N 
ATOM      4  H   UNL     1       5.862   6.819  16.626  0.00  0.00    +0.000 HD
ENDROOT
BRANCH   1   5
ATOM      5  C   UNL     1       7.826   6.949  18.243  0.00  0.00    +0.000 C 
BRANCH   5   6
ATOM      6  C   UNL     1       7.651   8.244  17.450  0.00  0.00    +0.000 C 
BRANCH   6  10
ATOM      7  C   UNL     1       9.664  11.596  19.295  0.00  0.00    +0.000 A 
ATOM      8  C   UNL     1       9.642  10.349  19.922  0.00  0.00    +0.000 A 
ATOM      9  C   UNL     1       8.992   9.265  19.327  0.00  0.00    +0.000 A 
ATOM     10  C   UNL     1       8.341   9.418  18.097  0.00  0.00    +0.000 A 
ATOM     11  C   UNL     1       8.342  10.678  17.485  0.00  0.00    +0.000 A 
ATOM     12  C   UNL     1       9.002  11.760  18.079  0.00  0.00    +0.000 A 
BRANCH   7  14
ATOM     13  C   UNL     1      11.134  13.447  19.189  0.00  0.00    +0.000 C 
ATOM     14  O   UNL     1      10.328  12.578  19.978  0.00  0.00    +0.000 OA
ENDBRANCH   7  14
ENDBRANCH   6  10
ENDBRANCH   5   6
ENDBRANCH   1   5
BRANCH   3  15
ATOM     15  C   UNL     1       5.844   4.851  15.773  0.00  0.00    +0.000 C 
BRANCH  15  16
ATOM     16  C   UNL     1       5.185   3.690  16.513  0.00  0.00    +0.000 C 
BRANCH  16  17
ATOM     17  C   UNL     1       3.939   4.113  17.222  0.00  0.00    +0.000 A 
ATOM     18  C   UNL     1       2.872   3.305  17.562  0.00  0.00    +0.000 A 
ATOM     19  S   UNL     1       1.671   4.221  18.363  0.00  0.00    +0.000 S 
ATOM     20  C   UNL     1       2.647   5.636  18.213  0.00  0.00    +0.000 A 
ATOM     21  N   UNL     1       3.794   5.442  17.588  0.00  0.00    +0.000 NA
BRANCH  20  22
ATOM     22  C   UNL     1       2.182   6.946  18.708  0.00  0.00    +0.000 A 
ATOM     23  C   UNL     1       2.044   8.072  17.878  0.00  0.00    +0.000 A 
ATOM     24  C   UNL     1       1.603   9.296  18.395  0.00  0.00    +0.000 A 
ATOM     25  C   UNL     1       1.292   9.408  19.747  0.00  0.00    +0.000 A 
ATOM     26 CL   UNL     1       0.753  10.913  20.380  0.00  0.00    +0.000 Cl
ATOM     27  C   UNL     1       1.411   8.305  20.587  0.00  0.00    +0.000 A 
ATOM     28  C   UNL     1       1.849   7.082  20.068  0.00  0.00    +0.000 A 
ENDBRANCH  20  22
ENDBRANCH  16  17
ENDBRANCH  15  16
ENDBRANCH   3  15
TORSDOF 8
ENDMDL
MODEL 8
REMARK VINA RESULT:      -7.1      4.231      6.918
REMARK  Name = 
REMARK  9 active torsions:
REMARK  status: ('A' for Active; 'I' for Inactive)
REMARK    1  A    between atoms: C_1  and  O_2
REMARK    2  A    between atoms: O_2  and  C_3
REMARK    3  A    between atoms: C_6  and  C_7
REMARK    4  A    between atoms: C_7  and  C_8
REMARK    5  A    between atoms: C_8  and  C_9
REMARK    6  A    between atoms: N_11  and  C_12
REMARK    7  A    between atoms: C_12  and  C_13
REMARK    8  A    between atoms: C_13  and  C_14
REMARK    9  A    between atoms: C_17  and  C_18
REMARK                            x       y       z     vdW  Elec       q    Type
REMARK                         _______ _______ _______ _____ _____    ______ ____
ROOT
ATOM      1  C   UNL     1       2.019   3.897  18.432  0.00  0.00    +0.000 C 
ATOM      2  O   UNL     1       1.454   4.657  17.649  0.00  0.00    +0.000 OA
ATOM      3  N   UNL     1       2.252   4.222  19.751  0.00  0.00    +0.000 N 
ATOM      4  H   UNL     1       2.809   3.600  20.323  0.00  0.00    +0.000 HD
ENDROOT
BRANCH   1   5
ATOM      5  C   UNL     1       2.471   2.502  18.049  0.00  0.00    +0.000 C 
BRANCH   5   6
ATOM      6  C   UNL     1       3.979   2.351  18.247  0.00  0.00    +0.000 C 
BRANCH   6  10
ATOM      7  C   UNL     1       6.227   5.753  16.810  0.00  0.00    +0.000 A 
ATOM      8  C   UNL     1       6.260   5.401  18.160  0.00  0.00    +0.000 A 
ATOM      9  C   UNL     1       5.534   4.301  18.626  0.00  0.00    +0.000 A 
ATOM     10  C   UNL     1       4.752   3.545  17.746  0.00  0.00    +0.000 A 
ATOM     11  C   UNL     1       4.700   3.919  16.397  0.00  0.00    +0.000 A 
ATOM     12  C   UNL     1       5.435   5.016  15.931  0.00  0.00    +0.000 A 
BRANCH   7  14
ATOM     13  C   UNL     1       7.585   7.538  17.564  0.00  0.00    +0.000 C 
ATOM     14  O   UNL     1       6.975   6.850  16.478  0.00  0.00    +0.000 OA
ENDBRANCH   7  14
ENDBRANCH   6  10
ENDBRANCH   5   6
ENDBRANCH   1   5
BRANCH   3  15
ATOM     15  C   UNL     1       1.903   5.542  20.254  0.00  0.00    +0.000 C 
BRANCH  15  16
ATOM     16  C   UNL     1       2.779   6.652  19.680  0.00  0.00    +0.000 C 
BRANCH  16  17
ATOM     17  C   UNL     1       2.013   7.917  19.466  0.00  0.00    +0.000 A 
ATOM     18  C   UNL     1       1.989   8.680  18.315  0.00  0.00    +0.000 A 
ATOM     19  S   UNL     1       0.974  10.040  18.531  0.00  0.00    +0.000 S 
ATOM     20  C   UNL     1       0.624   9.527  20.140  0.00  0.00    +0.000 A 
ATOM     21  N   UNL     1       1.240   8.416  20.504  0.00  0.00    +0.000 NA
BRANCH  20  22
ATOM     22  C   UNL     1      -0.254  10.316  21.025  0.00  0.00    +0.000 A 
ATOM     23  C   UNL     1      -0.392  10.053  22.399  0.00  0.00    +0.000 A 
ATOM     24  C   UNL     1      -1.241  10.828  23.198  0.00  0.00    +0.000 A 
ATOM     25  C   UNL     1      -1.959  11.878  22.633  0.00  0.00    +0.000 A 
ATOM     26 CL   UNL     1      -3.004  12.827  23.616  0.00  0.00    +0.000 Cl
ATOM     27  C   UNL     1      -1.832  12.165  21.278  0.00  0.00    +0.000 A 
ATOM     28  C   UNL     1      -0.980  11.391  20.481  0.00  0.00    +0.000 A 
ENDBRANCH  20  22
ENDBRANCH  16  17
ENDBRANCH  15  16
ENDBRANCH   3  15
TORSDOF 8
ENDMDL
MODEL 9
REMARK VINA RESULT:      -7.1      2.694      3.424
REMARK  Name = 
REMARK  9 active torsions:
REMARK  status: ('A' for Active; 'I' for Inactive)
REMARK    1  A    between atoms: C_1  and  O_2
REMARK    2  A    between atoms: O_2  and  C_3
REMARK    3  A    between atoms: C_6  and  C_7
REMARK    4  A    between atoms: C_7  and  C_8
REMARK    5  A    between atoms: C_8  and  C_9
REMARK    6  A    between atoms: N_11  and  C_12
REMARK    7  A    between atoms: C_12  and  C_13
REMARK    8  A    between atoms: C_13  and  C_14
REMARK    9  A    between atoms: C_17  and  C_18
REMARK                            x       y       z     vdW  Elec       q    Type
REMARK                         _______ _______ _______ _____ _____    ______ ____
ROOT
ATOM      1  C   UNL     1       8.002   7.823  17.941  0.00  0.00    +0.000 C 
ATOM      2  O   UNL     1       8.213   7.035  18.859  0.00  0.00    +0.000 OA
ATOM      3  N   UNL     1       7.446   7.438  16.739  0.00  0.00    +0.000 N 
ATOM      4  H   UNL     1       7.387   8.109  15.984  0.00  0.00    +0.000 HD
ENDROOT
BRANCH   1   5
ATOM      5  C   UNL     1       8.276   9.310  18.047  0.00  0.00    +0.000 C 
BRANCH   5   6
ATOM      6  C   UNL     1       9.196   9.605  19.232  0.00  0.00    +0.000 C 
BRANCH   6  10
ATOM      7  C   UNL     1      11.446  13.265  18.746  0.00  0.00    +0.000 A 
ATOM      8  C   UNL     1      11.120  12.797  20.020  0.00  0.00    +0.000 A 
ATOM      9  C   UNL     1      10.393  11.615  20.179  0.00  0.00    +0.000 A 
ATOM     10  C   UNL     1       9.969  10.888  19.059  0.00  0.00    +0.000 A 
ATOM     11  C   UNL     1      10.274  11.377  17.782  0.00  0.00    +0.000 A 
ATOM     12  C   UNL     1      11.010  12.558  17.627  0.00  0.00    +0.000 A 
BRANCH   7  14
ATOM     13  C   UNL     1      11.414  15.617  19.002  0.00  0.00    +0.000 C 
ATOM     14  O   UNL     1      12.155  14.435  18.721  0.00  0.00    +0.000 OA
ENDBRANCH   7  14
ENDBRANCH   6  10
ENDBRANCH   5   6
ENDBRANCH   1   5
BRANCH   3  15
ATOM     15  C   UNL     1       7.160   6.035  16.480  0.00  0.00    +0.000 C 
BRANCH  15  16
ATOM     16  C   UNL     1       5.802   5.813  15.819  0.00  0.00    +0.000 C 
BRANCH  16  17
ATOM     17  C   UNL     1       4.673   6.030  16.773  0.00  0.00    +0.000 A 
ATOM     18  C   UNL     1       3.949   7.195  16.939  0.00  0.00    +0.000 A 
ATOM     19  S   UNL     1       2.753   6.978  18.142  0.00  0.00    +0.000 S 
ATOM     20  C   UNL     1       3.268   5.346  18.364  0.00  0.00    +0.000 A 
ATOM     21  N   UNL     1       4.284   4.987  17.599  0.00  0.00    +0.000 NA
BRANCH  20  22
ATOM     22  C   UNL     1       2.637   4.472  19.371  0.00  0.00    +0.000 A 
ATOM     23  C   UNL     1       1.867   3.346  19.031  0.00  0.00    +0.000 A 
ATOM     24  C   UNL     1       1.284   2.547  20.021  0.00  0.00    +0.000 A 
ATOM     25  C   UNL     1       1.468   2.862  21.365  0.00  0.00    +0.000 A 
ATOM     26 CL   UNL     1       0.749   1.882  22.581  0.00  0.00    +0.000 Cl
ATOM     27  C   UNL     1       2.234   3.966  21.727  0.00  0.00    +0.000 A 
ATOM     28  C   UNL     1       2.818   4.761  20.735  0.00  0.00    +0.000 A 
ENDBRANCH  20  22
ENDBRANCH  16  17
ENDBRANCH  15  16
ENDBRANCH   3  15
TORSDOF 8
ENDMDL
