MODEL 1
REMARK VINA RESULT:      -7.5      0.000      0.000
REMARK  Name = 
REMARK  4 active torsions:
REMARK  status: ('A' for Active; 'I' for Inactive)
REMARK    1  A    between atoms: C_4  and  C_5
REMARK    2  A    between atoms: C_5  and  C_6
REMARK    3  A    between atoms: C_6  and  C_7
REMARK    4  A    between atoms: C_7  and  N_8
REMARK                            x       y       z     vdW  Elec       q    Type
REMARK                         _______ _______ _______ _____ _____    ______ ____
ROOT
ATOM      1  N   UNL     1       4.741   5.105  17.614  0.00  0.00    +0.000 NA
ATOM      2  C   UNL     1       4.207   6.001  18.666  0.00  0.00    +0.000 C 
ATOM      3  C   UNL     1       2.695   6.083  18.704  0.00  0.00    +0.000 C 
ATOM      4  C   UNL     1       2.190   4.702  18.984  0.00  0.00    +0.000 A 
ATOM      5  C   UNL     1       1.301   4.415  20.021  0.00  0.00    +0.000 A 
ATOM      6  C   UNL     1       0.717   3.155  20.095  0.00  0.00    +0.000 A 
ATOM      7  C   UNL     1       0.974   2.219  19.094  0.00  0.00    +0.000 A 
ATOM      8  C   UNL     1       1.951   2.475  18.127  0.00  0.00    +0.000 A 
ATOM      9  C   UNL     1       2.654   3.687  18.141  0.00  0.00    +0.000 A 
ATOM     10  C   UNL     1       3.916   3.900  17.319  0.00  0.00    +0.000 C 
ENDROOT
BRANCH   1  11
ATOM     11  C   UNL     1       6.143   4.825  17.976  0.00  0.00    +0.000 C 
BRANCH  11  12
ATOM     12  C   UNL     1       7.112   4.437  16.861  0.00  0.00    +0.000 C 
BRANCH  12  13
ATOM     13  C   UNL     1       6.981   5.464  15.722  0.00  0.00    +0.000 C 
BRANCH  13  17
ATOM     14  C   UNL     1       6.484   3.679  11.830  0.00  0.00    +0.000 A 
ATOM     15  C   UNL     1       7.542   4.551  12.064  0.00  0.00    +0.000 A 
ATOM     16  C   UNL     1       7.700   5.141  13.320  0.00  0.00    +0.000 A 
ATOM     17  C   UNL     1       6.794   4.860  14.352  0.00  0.00    +0.000 A 
ATOM     18  C   UNL     1       5.737   3.975  14.106  0.00  0.00    +0.000 A 
ATOM     19  C   UNL     1       5.583   3.384  12.850  0.00  0.00    +0.000 A 
ENDBRANCH  13  17
ENDBRANCH  12  13
ENDBRANCH  11  12
ENDBRANCH   1  11
TORSDOF 4
ENDMDL
MODEL 2
REMARK VINA RESULT:      -7.5      0.416      1.180
REMARK  Name = 
REMARK  4 active torsions:
REMARK  status: ('A' for Active; 'I' for Inactive)
REMARK    1  A    between atoms: C_4  and  C_5
REMARK    2  A    between atoms: C_5  and  C_6
REMARK    3  A    between atoms: C_6  and  C_7
REMARK    4  A    between atoms: C_7  and  N_8
REMARK                            x       y       z     vdW  Elec       q    Type
REMARK                         _______ _______ _______ _____ _____    ______ ____
ROOT
ATOM      1  N   UNL     1       4.928   5.042  17.970  0.00  0.00    +0.000 NA
ATOM      2  C   UNL     1       4.613   5.743  19.237  0.00  0.00    +0.000 C 
ATOM      3  C   UNL     1       3.142   6.048  19.429  0.00  0.00    +0.000 C 
ATOM      4  C   UNL     1       2.423   4.736  19.445  0.00  0.00    +0.000 A 
ATOM      5  C   UNL     1       1.554   4.359  20.471  0.00  0.00    +0.000 A 
ATOM      6  C   UNL     1       0.768   3.222  20.320  0.00  0.00    +0.000 A 
ATOM      7  C   UNL     1       0.805   2.514  19.120  0.00  0.00    +0.000 A 
ATOM      8  C   UNL     1       1.759   2.831  18.147  0.00  0.00    +0.000 A 
ATOM      9  C   UNL     1       2.659   3.883  18.362  0.00  0.00    +0.000 A 
ATOM     10  C   UNL     1       3.893   4.081  17.495  0.00  0.00    +0.000 C 
ENDROOT
BRANCH   1  11
ATOM     11  C   UNL     1       6.278   4.472  18.134  0.00  0.00    +0.000 C 
BRANCH  11  12
ATOM     12  C   UNL     1       7.294   4.691  17.013  0.00  0.00    +0.000 C 
BRANCH  12  13
ATOM     13  C   UNL     1       6.629   5.535  15.911  0.00  0.00    +0.000 C 
BRANCH  13  17
ATOM     14  C   UNL     1       6.664   3.795  11.967  0.00  0.00    +0.000 A 
ATOM     15  C   UNL     1       5.668   3.443  12.871  0.00  0.00    +0.000 A 
ATOM     16  C   UNL     1       5.660   3.995  14.155  0.00  0.00    +0.000 A 
ATOM     17  C   UNL     1       6.654   4.906  14.540  0.00  0.00    +0.000 A 
ATOM     18  C   UNL     1       7.647   5.257  13.616  0.00  0.00    +0.000 A 
ATOM     19  C   UNL     1       7.652   4.706  12.334  0.00  0.00    +0.000 A 
ENDBRANCH  13  17
ENDBRANCH  12  13
ENDBRANCH  11  12
ENDBRANCH   1  11
TORSDOF 4
ENDMDL
MODEL 3
REMARK VINA RESULT:      -7.5      1.628      3.404
REMARK  Name = 
REMARK  4 active torsions:
REMARK  status: ('A' for Active; 'I' for Inactive)
REMARK    1  A    between atoms: C_4  and  C_5
REMARK    2  A    between atoms: C_5  and  C_6
REMARK    3  A    between atoms: C_6  and  C_7
REMARK    4  A    between atoms: C_7  and  N_8
REMARK                            x       y       z     vdW  Elec       q    Type
REMARK                         _______ _______ _______ _____ _____    ______ ____
ROOT
ATOM      1  N   UNL     1       3.506   4.363  16.891  0.00  0.00    +0.000 NA
ATOM      2  C   UNL     1       3.917   5.395  17.872  0.00  0.00    +0.000 C 
ATOM      3  C   UNL     1       2.812   5.833  18.811  0.00  0.00    +0.000 C 
ATOM      4  C   UNL     1       2.384   4.622  19.579  0.00  0.00    +0.000 A 
ATOM      5  C   UNL     1       2.325   4.589  20.973  0.00  0.00    +0.000 A 
ATOM      6  C   UNL     1       1.727   3.506  21.608  0.00  0.00    +0.000 A 
ATOM      7  C   UNL     1       1.133   2.502  20.843  0.00  0.00    +0.000 A 
ATOM      8  C   UNL     1       1.299   2.487  19.454  0.00  0.00    +0.000 A 
ATOM      9  C   UNL     1       2.035   3.498  18.823  0.00  0.00    +0.000 A 
ATOM     10  C   UNL     1       2.500   3.378  17.380  0.00  0.00    +0.000 C 
ENDROOT
BRANCH   1  11
ATOM     11  C   UNL     1       4.750   3.772  16.364  0.00  0.00    +0.000 C 
BRANCH  11  12
ATOM     12  C   UNL     1       5.321   4.336  15.064  0.00  0.00    +0.000 C 
BRANCH  12  13
ATOM     13  C   UNL     1       6.833   4.554  15.250  0.00  0.00    +0.000 C 
BRANCH  13  17
ATOM     14  C   UNL     1       7.965   6.765  18.774  0.00  0.00    +0.000 A 
ATOM     15  C   UNL     1       7.957   5.375  18.800  0.00  0.00    +0.000 A 
ATOM     16  C   UNL     1       7.579   4.654  17.665  0.00  0.00    +0.000 A 
ATOM     17  C   UNL     1       7.206   5.326  16.492  0.00  0.00    +0.000 A 
ATOM     18  C   UNL     1       7.224   6.727  16.477  0.00  0.00    +0.000 A 
ATOM     19  C   UNL     1       7.605   7.445  17.613  0.00  0.00    +0.000 A 
ENDBRANCH  13  17
ENDBRANCH  12  13
ENDBRANCH  11  12
ENDBRANCH   1  11
TORSDOF 4
ENDMDL
MODEL 4
REMARK VINA RESULT:      -7.4      2.755      5.438
REMARK  Name = 
REMARK  4 active torsions:
REMARK  status: ('A' for Active; 'I' for Inactive)
REMARK    1  A    between atoms: C_4  and  C_5
REMARK    2  A    between atoms: C_5  and  C_6
REMARK    3  A    between atoms: C_6  and  C_7
REMARK    4  A    between atoms: C_7  and  N_8
REMARK                            x       y       z     vdW  Elec       q    Type
REMARK                         _______ _______ _______ _____ _____    ______ ____
ROOT
ATOM      1  N   UNL     1       5.099   3.863  17.798  0.00  0.00    +0.000 NA
ATOM      2  C   UNL     1       4.001   3.429  16.902  0.00  0.00    +0.000 C 
ATOM      3  C   UNL     1       3.107   2.357  17.491  0.00  0.00    +0.000 C 
ATOM      4  C   UNL     1       2.486   2.935  18.723  0.00  0.00    +0.000 A 
ATOM      5  C   UNL     1       1.108   2.938  18.948  0.00  0.00    +0.000 A 
ATOM      6  C   UNL     1       0.619   3.303  20.198  0.00  0.00    +0.000 A 
ATOM      7  C   UNL     1       1.512   3.591  21.229  0.00  0.00    +0.000 A 
ATOM      8  C   UNL     1       2.881   3.697  20.963  0.00  0.00    +0.000 A 
ATOM      9  C   UNL     1       3.363   3.481  19.665  0.00  0.00    +0.000 A 
ATOM     10  C   UNL     1       4.775   3.870  19.252  0.00  0.00    +0.000 C 
ENDROOT
BRANCH   1  11
ATOM     11  C   UNL     1       5.589   5.148  17.264  0.00  0.00    +0.000 C 
BRANCH  11  12
ATOM     12  C   UNL     1       5.101   6.436  17.925  0.00  0.00    +0.000 C 
BRANCH  12  13
ATOM     13  C   UNL     1       3.765   6.841  17.277  0.00  0.00    +0.000 C 
BRANCH  13  17
ATOM     14  C   UNL     1       1.092   8.921  19.943  0.00  0.00    +0.000 A 
ATOM     15  C   UNL     1       1.699   7.738  20.353  0.00  0.00    +0.000 A 
ATOM     16  C   UNL     1       2.556   7.054  19.487  0.00  0.00    +0.000 A 
ATOM     17  C   UNL     1       2.811   7.554  18.202  0.00  0.00    +0.000 A 
ATOM     18  C   UNL     1       2.198   8.750  17.805  0.00  0.00    +0.000 A 
ATOM     19  C   UNL     1       1.344   9.433  18.673  0.00  0.00    +0.000 A 
ENDBRANCH  13  17
ENDBRANCH  12  13
ENDBRANCH  11  12
ENDBRANCH   1  11
TORSDOF 4
ENDMDL
MODEL 5
REMARK VINA RESULT:      -7.3      2.743      5.467
REMARK  Name = 
REMARK  4 active torsions:
REMARK  status: ('A' for Active; 'I' for Inactive)
REMARK    1  A    between atoms: C_4  and  C_5
REMARK    2  A    between atoms: C_5  and  C_6
REMARK    3  A    between atoms: C_6  and  C_7
REMARK    4  A    between atoms: C_7  and  N_8
REMARK                            x       y       z     vdW  Elec       q    Type
REMARK                         _______ _______ _______ _____ _____    ______ ____
ROOT
ATOM      1  N   UNL     1       4.879   3.783  17.584  0.00  0.00    +0.000 NA
ATOM      2  C   UNL     1       3.660   3.547  16.775  0.00  0.00    +0.000 C 
ATOM      3  C   UNL     1       2.737   2.486  17.339  0.00  0.00    +0.000 C 
ATOM      4  C   UNL     1       2.301   2.961  18.690  0.00  0.00    +0.000 A 
ATOM      5  C   UNL     1       0.960   3.046  19.067  0.00  0.00    +0.000 A 
ATOM      6  C   UNL     1       0.637   3.297  20.396  0.00  0.00    +0.000 A 
ATOM      7  C   UNL     1       1.653   3.390  21.346  0.00  0.00    +0.000 A 
ATOM      8  C   UNL     1       2.992   3.418  20.941  0.00  0.00    +0.000 A 
ATOM      9  C   UNL     1       3.317   3.320  19.581  0.00  0.00    +0.000 A 
ATOM     10  C   UNL     1       4.708   3.642  19.058  0.00  0.00    +0.000 C 
ENDROOT
BRANCH   1  11
ATOM     11  C   UNL     1       5.427   5.079  17.143  0.00  0.00    +0.000 C 
BRANCH  11  12
ATOM     12  C   UNL     1       4.917   6.347  17.825  0.00  0.00    +0.000 C 
BRANCH  12  13
ATOM     13  C   UNL     1       3.442   6.551  17.434  0.00  0.00    +0.000 C 
BRANCH  13  17
ATOM     14  C   UNL     1       1.117   8.929  20.178  0.00  0.00    +0.000 A 
ATOM     15  C   UNL     1       1.372   9.400  18.894  0.00  0.00    +0.000 A 
ATOM     16  C   UNL     1       2.135   8.639  18.006  0.00  0.00    +0.000 A 
ATOM     17  C   UNL     1       2.649   7.396  18.401  0.00  0.00    +0.000 A 
ATOM     18  C   UNL     1       2.380   6.930  19.695  0.00  0.00    +0.000 A 
ATOM     19  C   UNL     1       1.614   7.691  20.579  0.00  0.00    +0.000 A 
ENDBRANCH  13  17
ENDBRANCH  12  13
ENDBRANCH  11  12
ENDBRANCH   1  11
TORSDOF 4
ENDMDL
MODEL 6
REMARK VINA RESULT:      -7.2      2.720      5.174
REMARK  Name = 
REMARK  4 active torsions:
REMARK  status: ('A' for Active; 'I' for Inactive)
REMARK    1  A    between atoms: C_4  and  C_5
REMARK    2  A    between atoms: C_5  and  C_6
REMARK    3  A    between atoms: C_6  and  C_7
REMARK    4  A    between atoms: C_7  and  N_8
REMARK                            x       y       z     vdW  Elec       q    Type
REMARK                         _______ _______ _______ _____ _____    ______ ____
ROOT
ATOM      1  N   UNL     1       4.207   2.984  17.312  0.00  0.00    +0.000 NA
ATOM      2  C   UNL     1       2.796   3.258  16.952  0.00  0.00    +0.000 C 
ATOM      3  C   UNL     1       1.787   2.431  17.720  0.00  0.00    +0.000 C 
ATOM      4  C   UNL     1       1.959   2.768  19.168  0.00  0.00    +0.000 A 
ATOM      5  C   UNL     1       0.900   3.172  19.984  0.00  0.00    +0.000 A 
ATOM      6  C   UNL     1       1.092   3.269  21.357  0.00  0.00    +0.000 A 
ATOM      7  C   UNL     1       2.317   2.894  21.909  0.00  0.00    +0.000 A 
ATOM      8  C   UNL     1       3.402   2.602  21.076  0.00  0.00    +0.000 A 
ATOM      9  C   UNL     1       3.253   2.653  19.684  0.00  0.00    +0.000 A 
ATOM     10  C   UNL     1       4.448   2.643  18.743  0.00  0.00    +0.000 C 
ENDROOT
BRANCH   1  11
ATOM     11  C   UNL     1       4.996   4.121  16.803  0.00  0.00    +0.000 C 
BRANCH  11  12
ATOM     12  C   UNL     1       5.215   5.319  17.726  0.00  0.00    +0.000 C 
BRANCH  12  13
ATOM     13  C   UNL     1       4.394   6.504  17.189  0.00  0.00    +0.000 C 
BRANCH  13  17
ATOM     14  C   UNL     1       1.458   8.034  19.950  0.00  0.00    +0.000 A 
ATOM     15  C   UNL     1       2.084   6.819  20.206  0.00  0.00    +0.000 A 
ATOM     16  C   UNL     1       3.027   6.313  19.308  0.00  0.00    +0.000 A 
ATOM     17  C   UNL     1       3.348   7.026  18.144  0.00  0.00    +0.000 A 
ATOM     18  C   UNL     1       2.715   8.252  17.902  0.00  0.00    +0.000 A 
ATOM     19  C   UNL     1       1.775   8.756  18.802  0.00  0.00    +0.000 A 
ENDBRANCH  13  17
ENDBRANCH  12  13
ENDBRANCH  11  12
ENDBRANCH   1  11
TORSDOF 4
ENDMDL
MODEL 7
REMARK VINA RESULT:      -7.2      1.338      1.973
REMARK  Name = 
REMARK  4 active torsions:
REMARK  status: ('A' for Active; 'I' for Inactive)
REMARK    1  A    between atoms: C_4  and  C_5
REMARK    2  A    between atoms: C_5  and  C_6
REMARK    3  A    between atoms: C_6  and  C_7
REMARK    4  A    between atoms: C_7  and  N_8
REMARK                            x       y       z     vdW  Elec       q    Type
REMARK                         _______ _______ _______ _____ _____    ______ ____
ROOT
ATOM      1  N   UNL     1       3.937   4.473  17.520  0.00  0.00    +0.000 NA
ATOM      2  C   UNL     1       2.538   4.958  17.498  0.00  0.00    +0.000 C 
ATOM      3  C   UNL     1       1.515   3.925  17.924  0.00  0.00    +0.000 C 
ATOM      4  C   UNL     1       1.841   3.545  19.334  0.00  0.00    +0.000 A 
ATOM      5  C   UNL     1       0.902   3.583  20.366  0.00  0.00    +0.000 A 
ATOM      6  C   UNL     1       1.217   3.024  21.600  0.00  0.00    +0.000 A 
ATOM      7  C   UNL     1       2.437   2.371  21.768  0.00  0.00    +0.000 A 
ATOM      8  C   UNL     1       3.413   2.438  20.768  0.00  0.00    +0.000 A 
ATOM      9  C   UNL     1       3.155   3.135  19.580  0.00  0.00    +0.000 A 
ATOM     10  C   UNL     1       4.260   3.497  18.599  0.00  0.00    +0.000 C 
ENDROOT
BRANCH   1  11
ATOM     11  C   UNL     1       4.795   5.672  17.490  0.00  0.00    +0.000 C 
BRANCH  11  12
ATOM     12  C   UNL     1       5.352   6.126  16.141  0.00  0.00    +0.000 C 
BRANCH  12  13
ATOM     13  C   UNL     1       6.622   5.310  15.840  0.00  0.00    +0.000 C 
BRANCH  13  17
ATOM     14  C   UNL     1       6.883   3.960  11.754  0.00  0.00    +0.000 A 
ATOM     15  C   UNL     1       5.875   3.477  12.581  0.00  0.00    +0.000 A 
ATOM     16  C   UNL     1       5.794   3.902  13.910  0.00  0.00    +0.000 A 
ATOM     17  C   UNL     1       6.727   4.818  14.417  0.00  0.00    +0.000 A 
ATOM     18  C   UNL     1       7.733   5.302  13.571  0.00  0.00    +0.000 A 
ATOM     19  C   UNL     1       7.810   4.877  12.244  0.00  0.00    +0.000 A 
ENDBRANCH  13  17
ENDBRANCH  12  13
ENDBRANCH  11  12
ENDBRANCH   1  11
TORSDOF 4
ENDMDL
MODEL 8
REMARK VINA RESULT:      -7.1      1.300      1.506
REMARK  Name = 
REMARK  4 active torsions:
REMARK  status: ('A' for Active; 'I' for Inactive)
REMARK    1  A    between atoms: C_4  and  C_5
REMARK    2  A    between atoms: C_5  and  C_6
REMARK    3  A    between atoms: C_6  and  C_7
REMARK    4  A    between atoms: C_7  and  N_8
REMARK                            x       y       z     vdW  Elec       q    Type
REMARK                         _______ _______ _______ _____ _____    ______ ____
ROOT
ATOM      1  N   UNL     1       4.297   4.681  17.583  0.00  0.00    +0.000 NA
ATOM      2  C   UNL     1       2.933   5.253  17.499  0.00  0.00    +0.000 C 
ATOM      3  C   UNL     1       1.827   4.266  17.810  0.00  0.00    +0.000 C 
ATOM      4  C   UNL     1       2.039   3.801  19.216  0.00  0.00    +0.000 A 
ATOM      5  C   UNL     1       1.040   3.849  20.190  0.00  0.00    +0.000 A 
ATOM      6  C   UNL     1       1.242   3.215  21.411  0.00  0.00    +0.000 A 
ATOM      7  C   UNL     1       2.409   2.481  21.620  0.00  0.00    +0.000 A 
ATOM      8  C   UNL     1       3.449   2.534  20.686  0.00  0.00    +0.000 A 
ATOM      9  C   UNL     1       3.308   3.300  19.521  0.00  0.00    +0.000 A 
ATOM     10  C   UNL     1       4.493   3.639  18.629  0.00  0.00    +0.000 C 
ENDROOT
BRANCH   1  11
ATOM     11  C   UNL     1       5.224   5.826  17.665  0.00  0.00    +0.000 C 
BRANCH  11  12
ATOM     12  C   UNL     1       6.383   5.888  16.671  0.00  0.00    +0.000 C 
BRANCH  12  13
ATOM     13  C   UNL     1       6.584   4.486  16.069  0.00  0.00    +0.000 C 
BRANCH  13  17
ATOM     14  C   UNL     1       7.094   4.373  11.790  0.00  0.00    +0.000 A 
ATOM     15  C   UNL     1       7.831   5.273  12.553  0.00  0.00    +0.000 A 
ATOM     16  C   UNL     1       7.659   5.322  13.939  0.00  0.00    +0.000 A 
ATOM     17  C   UNL     1       6.746   4.465  14.569  0.00  0.00    +0.000 A 
ATOM     18  C   UNL     1       6.015   3.559  13.790  0.00  0.00    +0.000 A 
ATOM     19  C   UNL     1       6.190   3.511  12.406  0.00  0.00    +0.000 A 
ENDBRANCH  13  17
ENDBRANCH  12  13
ENDBRANCH  11  12
ENDBRANCH   1  11
TORSDOF 4
ENDMDL
MODEL 9
REMARK VINA RESULT:      -7.1      4.602      7.881
REMARK  Name = 
REMARK  4 active torsions:
REMARK  status: ('A' for Active; 'I' for Inactive)
REMARK    1  A    between atoms: C_4  and  C_5
REMARK    2  A    between atoms: C_5  and  C_6
REMARK    3  A    between atoms: C_6  and  C_7
REMARK    4  A    between atoms: C_7  and  N_8
REMARK                            x       y       z     vdW  Elec       q    Type
REMARK                         _______ _______ _______ _____ _____    ______ ____
ROOT
ATOM      1  N   UNL     1       2.191   7.721  19.815  0.00  0.00    +0.000 NA
ATOM      2  C   UNL     1       2.352   7.441  18.369  0.00  0.00    +0.000 C 
ATOM      3  C   UNL     1       3.027   6.120  18.063  0.00  0.00    +0.000 C 
ATOM      4  C   UNL     1       2.162   5.044  18.641  0.00  0.00    +0.000 A 
ATOM      5  C   UNL     1       1.708   3.954  17.896  0.00  0.00    +0.000 A 
ATOM      6  C   UNL     1       1.083   2.894  18.544  0.00  0.00    +0.000 A 
ATOM      7  C   UNL     1       0.983   2.901  19.935  0.00  0.00    +0.000 A 
ATOM      8  C   UNL     1       1.336   4.045  20.659  0.00  0.00    +0.000 A 
ATOM      9  C   UNL     1       1.823   5.176  19.991  0.00  0.00    +0.000 A 
ATOM     10  C   UNL     1       1.936   6.531  20.674  0.00  0.00    +0.000 C 
ENDROOT
BRANCH   1  11
ATOM     11  C   UNL     1       1.184   8.793  19.923  0.00  0.00    +0.000 C 
BRANCH  11  12
ATOM     12  C   UNL     1       0.914   9.654  18.690  0.00  0.00    +0.000 C 
BRANCH  12  13
ATOM     13  C   UNL     1      -0.068  10.773  19.083  0.00  0.00    +0.000 C 
BRANCH  13  17
ATOM     14  C   UNL     1      -3.803  10.730  16.931  0.00  0.00    +0.000 A 
ATOM     15  C   UNL     1      -3.676  11.496  18.084  0.00  0.00    +0.000 A 
ATOM     16  C   UNL     1      -2.471  11.503  18.792  0.00  0.00    +0.000 A 
ATOM     17  C   UNL     1      -1.383  10.740  18.345  0.00  0.00    +0.000 A 
ATOM     18  C   UNL     1      -1.522   9.978  17.177  0.00  0.00    +0.000 A 
ATOM     19  C   UNL     1      -2.726   9.975  16.471  0.00  0.00    +0.000 A 
ENDBRANCH  13  17
ENDBRANCH  12  13
ENDBRANCH  11  12
ENDBRANCH   1  11
TORSDOF 4
ENDMDL
