MODEL 1
REMARK VINA RESULT:      -9.1      0.000      0.000
REMARK  Name = 
REMARK  9 active torsions:
REMARK  status: ('A' for Active; 'I' for Inactive)
REMARK    1  A    between atoms: C_1  and  C_2
REMARK    2  A    between atoms: C_2  and  O_3
REMARK    3  A    between atoms: O_3  and  C_4
REMARK    4  A    between atoms: C_9  and  O_10
REMARK    5  A    between atoms: C_11  and  C_12
REMARK    6  A    between atoms: C_12  and  N_13
REMARK    7  A    between atoms: N_13  and  C_14
REMARK    8  A    between atoms: C_14  and  C_15
REMARK    9  A    between atoms: C_18  and  C_19
REMARK                            x       y       z     vdW  Elec       q    Type
REMARK                         _______ _______ _______ _____ _____    ______ ____
ROOT
ATOM      1  C   UNL     1       5.325   6.039  17.766  0.00  0.00    +0.000 C 
ENDROOT
BRANCH   1   8
ATOM      2  C   UNL     1       5.550   3.378  12.198  0.00  0.00    +0.000 A 
ATOM      3  C   UNL     1       6.906   3.596  11.993  0.00  0.00    +0.000 A 
ATOM      4  C   UNL     1       7.618   4.420  12.878  0.00  0.00    +0.000 A 
ATOM      5  C   UNL     1       7.022   4.983  14.003  0.00  0.00    +0.000 A 
ATOM      6  N   UNL     1       7.744   5.749  14.846  0.00  0.00    +0.000 NA
ATOM      7  C   UNL     1       7.135   6.146  15.984  0.00  0.00    +0.000 A 
ATOM      8  C   UNL     1       5.844   5.835  16.369  0.00  0.00    +0.000 A 
ATOM      9  C   UNL     1       5.085   5.135  15.430  0.00  0.00    +0.000 A 
ATOM     10  C   UNL     1       5.665   4.690  14.236  0.00  0.00    +0.000 A 
ATOM     11  C   UNL     1       4.934   3.923  13.326  0.00  0.00    +0.000 A 
BRANCH   7  12
ATOM     12  O   UNL     1       7.969   6.857  16.786  0.00  0.00    +0.000 OA
ATOM     13  H   UNL     1       7.857   6.353  17.613  0.00  0.00    +0.000 HD
ENDBRANCH   7  12
BRANCH   2  14
ATOM     14  O   UNL     1       4.727   2.623  11.417  0.00  0.00    +0.000 OA
BRANCH  14  16
ATOM     15  C   UNL     1       3.311   3.794   9.929  0.00  0.00    +0.000 C 
ATOM     16  C   UNL     1       3.384   3.073  11.264  0.00  0.00    +0.000 C 
ENDBRANCH  14  16
ENDBRANCH   2  14
ENDBRANCH   1   8
BRANCH   1  17
ATOM     17  N   UNL     1       4.083   5.425  18.280  0.00  0.00    +0.000 N 
ATOM     18  C   UNL     1       4.073   4.204  18.950  0.00  0.00    +0.000 C 
ATOM     19  O   UNL     1       5.114   3.636  19.275  0.00  0.00    +0.000 OA
ATOM     20  N   UNL     1       2.870   3.579  19.271  0.00  0.00    +0.000 N 
ATOM     21  C   UNL     1       2.909   2.289  19.943  0.00  0.00    +0.000 C 
ATOM     22  C   UNL     1       1.560   1.660  19.633  0.00  0.00    +0.000 C 
ATOM     23  C   UNL     1       0.607   2.838  19.634  0.00  0.00    +0.000 C 
ATOM     24  C   UNL     1       1.473   4.009  19.205  0.00  0.00    +0.000 C 
BRANCH  17  25
ATOM     25  C   UNL     1       2.870   6.128  17.898  0.00  0.00    +0.000 C 
BRANCH  25  26
ATOM     26  C   UNL     1       2.436   7.415  18.551  0.00  0.00    +0.000 A 
ATOM     27  C   UNL     1       2.124   8.531  17.764  0.00  0.00    +0.000 A 
ATOM     28  C   UNL     1       1.433   9.609  18.317  0.00  0.00    +0.000 A 
ATOM     29  C   UNL     1       1.043   9.589  19.661  0.00  0.00    +0.000 A 
ATOM     30  C   UNL     1       0.272  10.729  20.257  0.00  0.00    +0.000 C 
ATOM     31  C   UNL     1       1.383   8.490  20.456  0.00  0.00    +0.000 A 
ATOM     32  C   UNL     1       2.082   7.415  19.909  0.00  0.00    +0.000 A 
ENDBRANCH  25  26
ENDBRANCH  17  25
ENDBRANCH   1  17
TORSDOF 7
ENDMDL
MODEL 2
REMARK VINA RESULT:      -8.7      1.137      1.570
REMARK  Name = 
REMARK  9 active torsions:
REMARK  status: ('A' for Active; 'I' for Inactive)
REMARK    1  A    between atoms: C_1  and  C_2
REMARK    2  A    between atoms: C_2  and  O_3
REMARK    3  A    between atoms: O_3  and  C_4
REMARK    4  A    between atoms: C_9  and  O_10
REMARK    5  A    between atoms: C_11  and  C_12
REMARK    6  A    between atoms: C_12  and  N_13
REMARK    7  A    between atoms: N_13  and  C_14
REMARK    8  A    between atoms: C_14  and  C_15
REMARK    9  A    between atoms: C_18  and  C_19
REMARK                            x       y       z     vdW  Elec       q    Type
REMARK                         _______ _______ _______ _____ _____    ______ ____
ROOT
ATOM      1  C   UNL     1       6.017   4.278  18.313  0.00  0.00    +0.000 C 
ENDROOT
BRANCH   1   8
ATOM      2  C   UNL     1       5.787   3.471  12.195  0.00  0.00    +0.000 A 
ATOM      3  C   UNL     1       6.906   4.243  11.909  0.00  0.00    +0.000 A 
ATOM      4  C   UNL     1       7.493   5.016  12.923  0.00  0.00    +0.000 A 
ATOM      5  C   UNL     1       7.028   4.988  14.235  0.00  0.00    +0.000 A 
ATOM      6  N   UNL     1       7.634   5.723  15.188  0.00  0.00    +0.000 NA
ATOM      7  C   UNL     1       7.215   5.541  16.460  0.00  0.00    +0.000 A 
ATOM      8  C   UNL     1       6.229   4.664  16.874  0.00  0.00    +0.000 A 
ATOM      9  C   UNL     1       5.545   3.998  15.856  0.00  0.00    +0.000 A 
ATOM     10  C   UNL     1       5.940   4.142  14.522  0.00  0.00    +0.000 A 
ATOM     11  C   UNL     1       5.310   3.419  13.505  0.00  0.00    +0.000 A 
BRANCH   7  12
ATOM     12  O   UNL     1       7.931   6.282  17.343  0.00  0.00    +0.000 OA
ATOM     13  H   UNL     1       7.207   6.566  17.931  0.00  0.00    +0.000 HD
ENDBRANCH   7  12
BRANCH   2  14
ATOM     14  O   UNL     1       5.101   2.690  11.314  0.00  0.00    +0.000 OA
BRANCH  14  16
ATOM     15  C   UNL     1       3.433   3.813  10.069  0.00  0.00    +0.000 C 
ATOM     16  C   UNL     1       3.691   2.880  11.240  0.00  0.00    +0.000 C 
ENDBRANCH  14  16
ENDBRANCH   2  14
ENDBRANCH   1   8
BRANCH   1  17
ATOM     17  N   UNL     1       4.686   4.099  18.928  0.00  0.00    +0.000 N 
ATOM     18  C   UNL     1       3.883   2.990  18.668  0.00  0.00    +0.000 C 
ATOM     19  O   UNL     1       4.296   2.030  18.021  0.00  0.00    +0.000 OA
ATOM     20  N   UNL     1       2.571   2.937  19.133  0.00  0.00    +0.000 N 
ATOM     21  C   UNL     1       1.760   1.773  18.810  0.00  0.00    +0.000 C 
ATOM     22  C   UNL     1       0.327   2.263  18.943  0.00  0.00    +0.000 C 
ATOM     23  C   UNL     1       0.386   3.236  20.102  0.00  0.00    +0.000 C 
ATOM     24  C   UNL     1       1.803   3.779  20.051  0.00  0.00    +0.000 C 
BRANCH  17  25
ATOM     25  C   UNL     1       4.231   5.240  19.704  0.00  0.00    +0.000 C 
BRANCH  25  26
ATOM     26  C   UNL     1       3.316   6.296  19.139  0.00  0.00    +0.000 A 
ATOM     27  C   UNL     1       2.380   6.930  19.965  0.00  0.00    +0.000 A 
ATOM     28  C   UNL     1       1.755   8.104  19.547  0.00  0.00    +0.000 A 
ATOM     29  C   UNL     1       2.054   8.662  18.298  0.00  0.00    +0.000 A 
ATOM     30  C   UNL     1       1.412   9.941  17.851  0.00  0.00    +0.000 C 
ATOM     31  C   UNL     1       2.964   8.011  17.458  0.00  0.00    +0.000 A 
ATOM     32  C   UNL     1       3.583   6.833  17.870  0.00  0.00    +0.000 A 
ENDBRANCH  25  26
ENDBRANCH  17  25
ENDBRANCH   1  17
TORSDOF 7
ENDMDL
MODEL 3
REMARK VINA RESULT:      -8.6      0.890      1.087
REMARK  Name = 
REMARK  9 active torsions:
REMARK  status: ('A' for Active; 'I' for Inactive)
REMARK    1  A    between atoms: C_1  and  C_2
REMARK    2  A    between atoms: C_2  and  O_3
REMARK    3  A    between atoms: O_3  and  C_4
REMARK    4  A    between atoms: C_9  and  O_10
REMARK    5  A    between atoms: C_11  and  C_12
REMARK    6  A    between atoms: C_12  and  N_13
REMARK    7  A    between atoms: N_13  and  C_14
REMARK    8  A    between atoms: C_14  and  C_15
REMARK    9  A    between atoms: C_18  and  C_19
REMARK                            x       y       z     vdW  Elec       q    Type
REMARK                         _______ _______ _______ _____ _____    ______ ____
ROOT
ATOM      1  C   UNL     1       5.398   6.047  17.855  0.00  0.00    +0.000 C 
ENDROOT
BRANCH   1   8
ATOM      2  C   UNL     1       6.010   3.180  12.420  0.00  0.00    +0.000 A 
ATOM      3  C   UNL     1       7.288   3.654  12.154  0.00  0.00    +0.000 A 
ATOM      4  C   UNL     1       7.842   4.653  12.970  0.00  0.00    +0.000 A 
ATOM      5  C   UNL     1       7.174   5.146  14.088  0.00  0.00    +0.000 A 
ATOM      6  N   UNL     1       7.747   6.087  14.864  0.00  0.00    +0.000 NA
ATOM      7  C   UNL     1       7.101   6.416  16.004  0.00  0.00    +0.000 A 
ATOM      8  C   UNL     1       5.910   5.873  16.451  0.00  0.00    +0.000 A 
ATOM      9  C   UNL     1       5.285   4.984  15.576  0.00  0.00    +0.000 A 
ATOM     10  C   UNL     1       5.911   4.599  14.385  0.00  0.00    +0.000 A 
ATOM     11  C   UNL     1       5.327   3.651  13.542  0.00  0.00    +0.000 A 
BRANCH   7  12
ATOM     12  O   UNL     1       7.794   7.324  16.738  0.00  0.00    +0.000 OA
ATOM     13  H   UNL     1       8.003   7.966  16.034  0.00  0.00    +0.000 HD
ENDBRANCH   7  12
BRANCH   2  14
ATOM     14  O   UNL     1       5.338   2.232  11.708  0.00  0.00    +0.000 OA
BRANCH  14  16
ATOM     15  C   UNL     1       6.074   0.016  11.335  0.00  0.00    +0.000 C 
ATOM     16  C   UNL     1       6.100   1.438  10.802  0.00  0.00    +0.000 C 
ENDBRANCH  14  16
ENDBRANCH   2  14
ENDBRANCH   1   8
BRANCH   1  17
ATOM     17  N   UNL     1       4.149   5.438  18.355  0.00  0.00    +0.000 N 
ATOM     18  C   UNL     1       4.129   4.230  19.049  0.00  0.00    +0.000 C 
ATOM     19  O   UNL     1       5.165   3.673  19.407  0.00  0.00    +0.000 OA
ATOM     20  N   UNL     1       2.923   3.606  19.357  0.00  0.00    +0.000 N 
ATOM     21  C   UNL     1       2.953   2.329  20.056  0.00  0.00    +0.000 C 
ATOM     22  C   UNL     1       1.613   1.688  19.730  0.00  0.00    +0.000 C 
ATOM     23  C   UNL     1       0.656   2.862  19.688  0.00  0.00    +0.000 C 
ATOM     24  C   UNL     1       1.526   4.028  19.254  0.00  0.00    +0.000 C 
BRANCH  17  25
ATOM     25  C   UNL     1       2.941   6.127  17.934  0.00  0.00    +0.000 C 
BRANCH  25  26
ATOM     26  C   UNL     1       2.503   7.440  18.532  0.00  0.00    +0.000 A 
ATOM     27  C   UNL     1       2.255   8.541  17.703  0.00  0.00    +0.000 A 
ATOM     28  C   UNL     1       1.562   9.647  18.193  0.00  0.00    +0.000 A 
ATOM     29  C   UNL     1       1.106   9.671  19.516  0.00  0.00    +0.000 A 
ATOM     30  C   UNL     1       0.331  10.841  20.044  0.00  0.00    +0.000 C 
ATOM     31  C   UNL     1       1.382   8.585  20.354  0.00  0.00    +0.000 A 
ATOM     32  C   UNL     1       2.083   7.482  19.870  0.00  0.00    +0.000 A 
ENDBRANCH  25  26
ENDBRANCH  17  25
ENDBRANCH   1  17
TORSDOF 7
ENDMDL
MODEL 4
REMARK VINA RESULT:      -8.0      2.499      7.615
REMARK  Name = 
REMARK  9 active torsions:
REMARK  status: ('A' for Active; 'I' for Inactive)
REMARK    1  A    between atoms: C_1  and  C_2
REMARK    2  A    between atoms: C_2  and  O_3
REMARK    3  A    between atoms: O_3  and  C_4
REMARK    4  A    between atoms: C_9  and  O_10
REMARK    5  A    between atoms: C_11  and  C_12
REMARK    6  A    between atoms: C_12  and  N_13
REMARK    7  A    between atoms: N_13  and  C_14
REMARK    8  A    between atoms: C_14  and  C_15
REMARK    9  A    between atoms: C_18  and  C_19
REMARK                            x       y       z     vdW  Elec       q    Type
REMARK                         _______ _______ _______ _____ _____    ______ ____
ROOT
ATOM      1  C   UNL     1       5.006   4.086  18.273  0.00  0.00    +0.000 C 
ENDROOT
BRANCH   1   8
ATOM      2  C   UNL     1       1.564   9.134  19.170  0.00  0.00    +0.000 A 
ATOM      3  C   UNL     1       1.060   8.744  20.404  0.00  0.00    +0.000 A 
ATOM      4  C   UNL     1       1.285   7.436  20.863  0.00  0.00    +0.000 A 
ATOM      5  C   UNL     1       2.057   6.525  20.147  0.00  0.00    +0.000 A 
ATOM      6  N   UNL     1       2.274   5.287  20.631  0.00  0.00    +0.000 NA
ATOM      7  C   UNL     1       3.142   4.507  19.951  0.00  0.00    +0.000 A 
ATOM      8  C   UNL     1       3.835   4.865  18.809  0.00  0.00    +0.000 A 
ATOM      9  C   UNL     1       3.510   6.110  18.269  0.00  0.00    +0.000 A 
ATOM     10  C   UNL     1       2.623   6.964  18.934  0.00  0.00    +0.000 A 
ATOM     11  C   UNL     1       2.351   8.242  18.440  0.00  0.00    +0.000 A 
BRANCH   7  12
ATOM     12  O   UNL     1       3.333   3.308  20.557  0.00  0.00    +0.000 OA
ATOM     13  H   UNL     1       2.406   3.092  20.772  0.00  0.00    +0.000 HD
ENDBRANCH   7  12
BRANCH   2  14
ATOM     14  O   UNL     1       1.411  10.356  18.587  0.00  0.00    +0.000 OA
BRANCH  14  16
ATOM     15  C   UNL     1       0.023  12.267  18.697  0.00  0.00    +0.000 C 
ATOM     16  C   UNL     1       1.060  11.443  19.440  0.00  0.00    +0.000 C 
ENDBRANCH  14  16
ENDBRANCH   2  14
ENDBRANCH   1   8
BRANCH   1  17
ATOM     17  N   UNL     1       5.657   4.367  16.978  0.00  0.00    +0.000 N 
ATOM     18  C   UNL     1       5.075   4.031  15.758  0.00  0.00    +0.000 C 
ATOM     19  O   UNL     1       3.923   3.607  15.685  0.00  0.00    +0.000 OA
ATOM     20  N   UNL     1       5.790   4.160  14.569  0.00  0.00    +0.000 N 
ATOM     21  C   UNL     1       5.152   3.766  13.322  0.00  0.00    +0.000 C 
ATOM     22  C   UNL     1       6.310   3.489  12.376  0.00  0.00    +0.000 C 
ATOM     23  C   UNL     1       7.347   4.521  12.767  0.00  0.00    +0.000 C 
ATOM     24  C   UNL     1       7.080   4.767  14.241  0.00  0.00    +0.000 C 
BRANCH  17  25
ATOM     25  C   UNL     1       7.010   4.886  17.092  0.00  0.00    +0.000 C 
BRANCH  25  26
ATOM     26  C   UNL     1       7.318   6.228  17.707  0.00  0.00    +0.000 A 
ATOM     27  C   UNL     1       8.055   6.303  18.895  0.00  0.00    +0.000 A 
ATOM     28  C   UNL     1       8.608   7.517  19.302  0.00  0.00    +0.000 A 
ATOM     29  C   UNL     1       8.435   8.671  18.530  0.00  0.00    +0.000 A 
ATOM     30  C   UNL     1       9.052   9.975  18.941  0.00  0.00    +0.000 C 
ATOM     31  C   UNL     1       7.670   8.604  17.360  0.00  0.00    +0.000 A 
ATOM     32  C   UNL     1       7.108   7.395  16.955  0.00  0.00    +0.000 A 
ENDBRANCH  25  26
ENDBRANCH  17  25
ENDBRANCH   1  17
TORSDOF 7
ENDMDL
MODEL 5
REMARK VINA RESULT:      -7.9      2.118      7.651
REMARK  Name = 
REMARK  9 active torsions:
REMARK  status: ('A' for Active; 'I' for Inactive)
REMARK    1  A    between atoms: C_1  and  C_2
REMARK    2  A    between atoms: C_2  and  O_3
REMARK    3  A    between atoms: O_3  and  C_4
REMARK    4  A    between atoms: C_9  and  O_10
REMARK    5  A    between atoms: C_11  and  C_12
REMARK    6  A    between atoms: C_12  and  N_13
REMARK    7  A    between atoms: N_13  and  C_14
REMARK    8  A    between atoms: C_14  and  C_15
REMARK    9  A    between atoms: C_18  and  C_19
REMARK                            x       y       z     vdW  Elec       q    Type
REMARK                         _______ _______ _______ _____ _____    ______ ____
ROOT
ATOM      1  C   UNL     1       5.380   5.318  17.871  0.00  0.00    +0.000 C 
ENDROOT
BRANCH   1   8
ATOM      2  C   UNL     1       0.767   8.456  20.517  0.00  0.00    +0.000 A 
ATOM      3  C   UNL     1       0.446   9.209  19.395  0.00  0.00    +0.000 A 
ATOM      4  C   UNL     1       1.291   9.177  18.273  0.00  0.00    +0.000 A 
ATOM      5  C   UNL     1       2.417   8.360  18.221  0.00  0.00    +0.000 A 
ATOM      6  N   UNL     1       3.190   8.336  17.118  0.00  0.00    +0.000 NA
ATOM      7  C   UNL     1       4.184   7.420  17.088  0.00  0.00    +0.000 A 
ATOM      8  C   UNL     1       4.476   6.502  18.079  0.00  0.00    +0.000 A 
ATOM      9  C   UNL     1       3.730   6.623  19.253  0.00  0.00    +0.000 A 
ATOM     10  C   UNL     1       2.683   7.547  19.340  0.00  0.00    +0.000 A 
ATOM     11  C   UNL     1       1.884   7.621  20.483  0.00  0.00    +0.000 A 
BRANCH   7  12
ATOM     12  O   UNL     1       4.859   7.441  15.910  0.00  0.00    +0.000 OA
ATOM     13  H   UNL     1       4.103   7.402  15.296  0.00  0.00    +0.000 HD
ENDBRANCH   7  12
BRANCH   2  14
ATOM     14  O   UNL     1       0.058   8.402  21.679  0.00  0.00    +0.000 OA
BRANCH  14  16
ATOM     15  C   UNL     1      -0.680  10.343  22.811  0.00  0.00    +0.000 C 
ATOM     16  C   UNL     1       0.431   9.312  22.710  0.00  0.00    +0.000 C 
ENDBRANCH  14  16
ENDBRANCH   2  14
ENDBRANCH   1   8
BRANCH   1  17
ATOM     17  N   UNL     1       5.569   4.648  16.568  0.00  0.00    +0.000 N 
ATOM     18  C   UNL     1       6.573   5.016  15.675  0.00  0.00    +0.000 C 
ATOM     19  O   UNL     1       7.446   5.826  15.981  0.00  0.00    +0.000 OA
ATOM     20  N   UNL     1       6.617   4.477  14.392  0.00  0.00    +0.000 N 
ATOM     21  C   UNL     1       7.666   4.915  13.483  0.00  0.00    +0.000 C 
ATOM     22  C   UNL     1       7.115   4.615  12.097  0.00  0.00    +0.000 C 
ATOM     23  C   UNL     1       6.337   3.330  12.292  0.00  0.00    +0.000 C 
ATOM     24  C   UNL     1       5.880   3.395  13.738  0.00  0.00    +0.000 C 
BRANCH  17  25
ATOM     25  C   UNL     1       4.535   3.682  16.240  0.00  0.00    +0.000 C 
BRANCH  25  26
ATOM     26  C   UNL     1       3.455   3.284  17.213  0.00  0.00    +0.000 A 
ATOM     27  C   UNL     1       3.746   2.408  18.266  0.00  0.00    +0.000 A 
ATOM     28  C   UNL     1       2.862   2.277  19.336  0.00  0.00    +0.000 A 
ATOM     29  C   UNL     1       1.675   3.019  19.372  0.00  0.00    +0.000 A 
ATOM     30  C   UNL     1       0.733   2.911  20.533  0.00  0.00    +0.000 C 
ATOM     31  C   UNL     1       1.367   3.869  18.304  0.00  0.00    +0.000 A 
ATOM     32  C   UNL     1       2.244   3.994  17.229  0.00  0.00    +0.000 A 
ENDBRANCH  25  26
ENDBRANCH  17  25
ENDBRANCH   1  17
TORSDOF 7
ENDMDL
MODEL 6
REMARK VINA RESULT:      -7.8      3.533      7.081
REMARK  Name = 
REMARK  9 active torsions:
REMARK  status: ('A' for Active; 'I' for Inactive)
REMARK    1  A    between atoms: C_1  and  C_2
REMARK    2  A    between atoms: C_2  and  O_3
REMARK    3  A    between atoms: O_3  and  C_4
REMARK    4  A    between atoms: C_9  and  O_10
REMARK    5  A    between atoms: C_11  and  C_12
REMARK    6  A    between atoms: C_12  and  N_13
REMARK    7  A    between atoms: N_13  and  C_14
REMARK    8  A    between atoms: C_14  and  C_15
REMARK    9  A    between atoms: C_18  and  C_19
REMARK                            x       y       z     vdW  Elec       q    Type
REMARK                         _______ _______ _______ _____ _____    ______ ____
ROOT
ATOM      1  C   UNL     1       1.032   9.371  19.000  0.00  0.00    +0.000 C 
ENDROOT
BRANCH   1   8
ATOM      2  C   UNL     1       5.184   5.742  16.221  0.00  0.00    +0.000 A 
ATOM      3  C   UNL     1       5.064   4.683  17.111  0.00  0.00    +0.000 A 
ATOM      4  C   UNL     1       4.323   4.850  18.292  0.00  0.00    +0.000 A 
ATOM      5  C   UNL     1       3.644   6.031  18.577  0.00  0.00    +0.000 A 
ATOM      6  N   UNL     1       2.921   6.147  19.708  0.00  0.00    +0.000 NA
ATOM      7  C   UNL     1       2.181   7.268  19.849  0.00  0.00    +0.000 A 
ATOM      8  C   UNL     1       2.092   8.305  18.939  0.00  0.00    +0.000 A 
ATOM      9  C   UNL     1       2.934   8.210  17.830  0.00  0.00    +0.000 A 
ATOM     10  C   UNL     1       3.716   7.068  17.626  0.00  0.00    +0.000 A 
ATOM     11  C   UNL     1       4.503   6.933  16.480  0.00  0.00    +0.000 A 
BRANCH   7  12
ATOM     12  O   UNL     1       1.447   7.253  20.991  0.00  0.00    +0.000 OA
ATOM     13  H   UNL     1       1.024   8.129  20.917  0.00  0.00    +0.000 HD
ENDBRANCH   7  12
BRANCH   2  14
ATOM     14  O   UNL     1       5.883   5.736  15.052  0.00  0.00    +0.000 OA
BRANCH  14  16
ATOM     15  C   UNL     1       6.078   3.864  13.620  0.00  0.00    +0.000 C 
ATOM     16  C   UNL     1       6.704   4.601  14.792  0.00  0.00    +0.000 C 
ENDBRANCH  14  16
ENDBRANCH   2  14
ENDBRANCH   1   8
BRANCH   1  17
ATOM     17  N   UNL     1       1.247  10.711  19.583  0.00  0.00    +0.000 N 
ATOM     18  C   UNL     1       1.917  11.725  18.903  0.00  0.00    +0.000 C 
ATOM     19  O   UNL     1       2.245  11.607  17.724  0.00  0.00    +0.000 OA
ATOM     20  N   UNL     1       2.246  12.916  19.546  0.00  0.00    +0.000 N 
ATOM     21  C   UNL     1       2.974  13.935  18.804  0.00  0.00    +0.000 C 
ATOM     22  C   UNL     1       3.642  14.780  19.878  0.00  0.00    +0.000 C 
ATOM     23  C   UNL     1       2.626  14.797  21.003  0.00  0.00    +0.000 C 
ATOM     24  C   UNL     1       1.888  13.480  20.848  0.00  0.00    +0.000 C 
BRANCH  17  25
ATOM     25  C   UNL     1       0.832  10.830  20.971  0.00  0.00    +0.000 C 
BRANCH  25  26
ATOM     26  C   UNL     1      -0.571  11.207  21.372  0.00  0.00    +0.000 A 
ATOM     27  C   UNL     1      -0.947  11.182  22.720  0.00  0.00    +0.000 A 
ATOM     28  C   UNL     1      -2.118  11.815  23.135  0.00  0.00    +0.000 A 
ATOM     29  C   UNL     1      -2.930  12.481  22.211  0.00  0.00    +0.000 A 
ATOM     30  C   UNL     1      -4.175  13.193  22.651  0.00  0.00    +0.000 C 
ATOM     31  C   UNL     1      -2.573  12.479  20.858  0.00  0.00    +0.000 A 
ATOM     32  C   UNL     1      -1.408  11.839  20.439  0.00  0.00    +0.000 A 
ENDBRANCH  25  26
ENDBRANCH  17  25
ENDBRANCH   1  17
TORSDOF 7
ENDMDL
MODEL 7
REMARK VINA RESULT:      -7.8      2.271      7.554
REMARK  Name = 
REMARK  9 active torsions:
REMARK  status: ('A' for Active; 'I' for Inactive)
REMARK    1  A    between atoms: C_1  and  C_2
REMARK    2  A    between atoms: C_2  and  O_3
REMARK    3  A    between atoms: O_3  and  C_4
REMARK    4  A    between atoms: C_9  and  O_10
REMARK    5  A    between atoms: C_11  and  C_12
REMARK    6  A    between atoms: C_12  and  N_13
REMARK    7  A    between atoms: N_13  and  C_14
REMARK    8  A    between atoms: C_14  and  C_15
REMARK    9  A    between atoms: C_18  and  C_19
REMARK                            x       y       z     vdW  Elec       q    Type
REMARK                         _______ _______ _______ _____ _____    ______ ____
ROOT
ATOM      1  C   UNL     1       5.264   6.405  17.524  0.00  0.00    +0.000 C 
ENDROOT
BRANCH   1   8
ATOM      2  C   UNL     1       0.318   9.866  18.824  0.00  0.00    +0.000 A 
ATOM      3  C   UNL     1       0.212   9.469  20.150  0.00  0.00    +0.000 A 
ATOM      4  C   UNL     1       1.000   8.406  20.621  0.00  0.00    +0.000 A 
ATOM      5  C   UNL     1       1.940   7.771  19.814  0.00  0.00    +0.000 A 
ATOM      6  N   UNL     1       2.699   6.773  20.308  0.00  0.00    +0.000 NA
ATOM      7  C   UNL     1       3.681   6.299  19.510  0.00  0.00    +0.000 A 
ATOM      8  C   UNL     1       3.985   6.748  18.238  0.00  0.00    +0.000 A 
ATOM      9  C   UNL     1       3.117   7.705  17.711  0.00  0.00    +0.000 A 
ATOM     10  C   UNL     1       2.087   8.239  18.494  0.00  0.00    +0.000 A 
ATOM     11  C   UNL     1       1.261   9.252  17.999  0.00  0.00    +0.000 A 
BRANCH   7  12
ATOM     12  O   UNL     1       4.419   5.341  20.127  0.00  0.00    +0.000 OA
ATOM     13  H   UNL     1       5.299   5.757  20.063  0.00  0.00    +0.000 HD
ENDBRANCH   7  12
BRANCH   2  14
ATOM     14  O   UNL     1      -0.393  10.861  18.222  0.00  0.00    +0.000 OA
BRANCH  14  16
ATOM     15  C   UNL     1      -2.648  11.529  17.975  0.00  0.00    +0.000 C 
ATOM     16  C   UNL     1      -1.610  10.493  17.579  0.00  0.00    +0.000 C 
ENDBRANCH  14  16
ENDBRANCH   2  14
ENDBRANCH   1   8
BRANCH   1  17
ATOM     17  N   UNL     1       5.336   5.506  16.354  0.00  0.00    +0.000 N 
ATOM     18  C   UNL     1       6.457   5.440  15.529  0.00  0.00    +0.000 C 
ATOM     19  O   UNL     1       7.502   6.023  15.808  0.00  0.00    +0.000 OA
ATOM     20  N   UNL     1       6.425   4.707  14.345  0.00  0.00    +0.000 N 
ATOM     21  C   UNL     1       7.609   4.692  13.498  0.00  0.00    +0.000 C 
ATOM     22  C   UNL     1       7.082   4.330  12.118  0.00  0.00    +0.000 C 
ATOM     23  C   UNL     1       5.963   3.351  12.408  0.00  0.00    +0.000 C 
ATOM     24  C   UNL     1       5.455   3.771  13.775  0.00  0.00    +0.000 C 
BRANCH  17  25
ATOM     25  C   UNL     1       4.094   4.813  16.058  0.00  0.00    +0.000 C 
BRANCH  25  26
ATOM     26  C   UNL     1       3.422   3.889  17.042  0.00  0.00    +0.000 A 
ATOM     27  C   UNL     1       4.193   3.041  17.846  0.00  0.00    +0.000 A 
ATOM     28  C   UNL     1       3.625   2.421  18.959  0.00  0.00    +0.000 A 
ATOM     29  C   UNL     1       2.281   2.639  19.284  0.00  0.00    +0.000 A 
ATOM     30  C   UNL     1       1.668   2.003  20.496  0.00  0.00    +0.000 C 
ATOM     31  C   UNL     1       1.502   3.460  18.462  0.00  0.00    +0.000 A 
ATOM     32  C   UNL     1       2.064   4.073  17.344  0.00  0.00    +0.000 A 
ENDBRANCH  25  26
ENDBRANCH  17  25
ENDBRANCH   1  17
TORSDOF 7
ENDMDL
MODEL 8
REMARK VINA RESULT:      -7.7      2.169      7.610
REMARK  Name = 
REMARK  9 active torsions:
REMARK  status: ('A' for Active; 'I' for Inactive)
REMARK    1  A    between atoms: C_1  and  C_2
REMARK    2  A    between atoms: C_2  and  O_3
REMARK    3  A    between atoms: O_3  and  C_4
REMARK    4  A    between atoms: C_9  and  O_10
REMARK    5  A    between atoms: C_11  and  C_12
REMARK    6  A    between atoms: C_12  and  N_13
REMARK    7  A    between atoms: N_13  and  C_14
REMARK    8  A    between atoms: C_14  and  C_15
REMARK    9  A    between atoms: C_18  and  C_19
REMARK                            x       y       z     vdW  Elec       q    Type
REMARK                         _______ _______ _______ _____ _____    ______ ____
ROOT
ATOM      1  C   UNL     1       5.306   5.963  17.753  0.00  0.00    +0.000 C 
ENDROOT
BRANCH   1   8
ATOM      2  C   UNL     1       0.745  10.032  18.629  0.00  0.00    +0.000 A 
ATOM      3  C   UNL     1       0.459   9.647  19.932  0.00  0.00    +0.000 A 
ATOM      4  C   UNL     1       1.054   8.489  20.458  0.00  0.00    +0.000 A 
ATOM      5  C   UNL     1       1.979   7.740  19.736  0.00  0.00    +0.000 A 
ATOM      6  N   UNL     1       2.550   6.649  20.283  0.00  0.00    +0.000 NA
ATOM      7  C   UNL     1       3.536   6.055  19.576  0.00  0.00    +0.000 A 
ATOM      8  C   UNL     1       4.018   6.466  18.347  0.00  0.00    +0.000 A 
ATOM      9  C   UNL     1       3.337   7.530  17.755  0.00  0.00    +0.000 A 
ATOM     10  C   UNL     1       2.313   8.190  18.443  0.00  0.00    +0.000 A 
ATOM     11  C   UNL     1       1.677   9.304  17.889  0.00  0.00    +0.000 A 
BRANCH   7  12
ATOM     12  O   UNL     1       4.081   5.007  20.245  0.00  0.00    +0.000 OA
ATOM     13  H   UNL     1       3.481   4.983  21.013  0.00  0.00    +0.000 HD
ENDBRANCH   7  12
BRANCH   2  14
ATOM     14  O   UNL     1       0.231  11.114  17.978  0.00  0.00    +0.000 OA
BRANCH  14  16
ATOM     15  C   UNL     1       1.615  12.993  18.363  0.00  0.00    +0.000 C 
ATOM     16  C   UNL     1       0.266  12.362  18.665  0.00  0.00    +0.000 C 
ENDBRANCH  14  16
ENDBRANCH   2  14
ENDBRANCH   1   8
BRANCH   1  17
ATOM     17  N   UNL     1       5.388   5.214  16.483  0.00  0.00    +0.000 N 
ATOM     18  C   UNL     1       6.497   5.282  15.643  0.00  0.00    +0.000 C 
ATOM     19  O   UNL     1       7.529   5.860  15.980  0.00  0.00    +0.000 OA
ATOM     20  N   UNL     1       6.470   4.696  14.380  0.00  0.00    +0.000 N 
ATOM     21  C   UNL     1       7.641   4.821  13.525  0.00  0.00    +0.000 C 
ATOM     22  C   UNL     1       7.105   4.611  12.117  0.00  0.00    +0.000 C 
ATOM     23  C   UNL     1       6.020   3.570  12.299  0.00  0.00    +0.000 C 
ATOM     24  C   UNL     1       5.520   3.806  13.712  0.00  0.00    +0.000 C 
BRANCH  17  25
ATOM     25  C   UNL     1       4.162   4.523  16.119  0.00  0.00    +0.000 C 
BRANCH  25  26
ATOM     26  C   UNL     1       3.398   3.656  17.087  0.00  0.00    +0.000 A 
ATOM     27  C   UNL     1       4.076   2.716  17.873  0.00  0.00    +0.000 A 
ATOM     28  C   UNL     1       3.447   2.137  18.975  0.00  0.00    +0.000 A 
ATOM     29  C   UNL     1       2.134   2.488  19.308  0.00  0.00    +0.000 A 
ATOM     30  C   UNL     1       1.459   1.896  20.509  0.00  0.00    +0.000 C 
ATOM     31  C   UNL     1       1.444   3.402  18.504  0.00  0.00    +0.000 A 
ATOM     32  C   UNL     1       2.067   3.974  17.396  0.00  0.00    +0.000 A 
ENDBRANCH  25  26
ENDBRANCH  17  25
ENDBRANCH   1  17
TORSDOF 7
ENDMDL
MODEL 9
REMARK VINA RESULT:      -7.7      4.669      8.369
REMARK  Name = 
REMARK  9 active torsions:
REMARK  status: ('A' for Active; 'I' for Inactive)
REMARK    1  A    between atoms: C_1  and  C_2
REMARK    2  A    between atoms: C_2  and  O_3
REMARK    3  A    between atoms: O_3  and  C_4
REMARK    4  A    between atoms: C_9  and  O_10
REMARK    5  A    between atoms: C_11  and  C_12
REMARK    6  A    between atoms: C_12  and  N_13
REMARK    7  A    between atoms: N_13  and  C_14
REMARK    8  A    between atoms: C_14  and  C_15
REMARK    9  A    between atoms: C_18  and  C_19
REMARK                            x       y       z     vdW  Elec       q    Type
REMARK                         _______ _______ _______ _____ _____    ______ ____
ROOT
ATOM      1  C   UNL     1       1.147  11.229  20.091  0.00  0.00    +0.000 C 
ENDROOT
BRANCH   1   8
ATOM      2  C   UNL     1       2.573   5.221  20.043  0.00  0.00    +0.000 A 
ATOM      3  C   UNL     1       3.245   5.245  18.829  0.00  0.00    +0.000 A 
ATOM      4  C   UNL     1       3.191   6.398  18.028  0.00  0.00    +0.000 A 
ATOM      5  C   UNL     1       2.533   7.553  18.442  0.00  0.00    +0.000 A 
ATOM      6  N   UNL     1       2.524   8.650  17.659  0.00  0.00    +0.000 NA
ATOM      7  C   UNL     1       1.985   9.772  18.184  0.00  0.00    +0.000 A 
ATOM      8  C   UNL     1       1.448   9.901  19.452  0.00  0.00    +0.000 A 
ATOM      9  C   UNL     1       1.371   8.725  20.199  0.00  0.00    +0.000 A 
ATOM     10  C   UNL     1       1.920   7.534  19.710  0.00  0.00    +0.000 A 
ATOM     11  C   UNL     1       1.915   6.371  20.483  0.00  0.00    +0.000 A 
BRANCH   7  12
ATOM     12  O   UNL     1       2.083  10.828  17.338  0.00  0.00    +0.000 OA
ATOM     13  H   UNL     1       1.940  10.364  16.492  0.00  0.00    +0.000 HD
ENDBRANCH   7  12
BRANCH   2  14
ATOM     14  O   UNL     1       2.518   4.173  20.912  0.00  0.00    +0.000 OA
BRANCH  14  16
ATOM     15  C   UNL     1       1.470   2.300  19.920  0.00  0.00    +0.000 C 
ATOM     16  C   UNL     1       1.312   3.414  20.939  0.00  0.00    +0.000 C 
ENDBRANCH  14  16
ENDBRANCH   2  14
ENDBRANCH   1   8
BRANCH   1  17
ATOM     17  N   UNL     1      -0.191  11.623  20.577  0.00  0.00    +0.000 N 
ATOM     18  C   UNL     1      -0.378  12.617  21.534  0.00  0.00    +0.000 C 
ATOM     19  O   UNL     1       0.551  13.321  21.926  0.00  0.00    +0.000 OA
ATOM     20  N   UNL     1      -1.636  12.845  22.088  0.00  0.00    +0.000 N 
ATOM     21  C   UNL     1      -1.777  13.873  23.108  0.00  0.00    +0.000 C 
ATOM     22  C   UNL     1      -3.038  13.485  23.864  0.00  0.00    +0.000 C 
ATOM     23  C   UNL     1      -3.939  12.915  22.788  0.00  0.00    +0.000 C 
ATOM     24  C   UNL     1      -2.973  12.347  21.765  0.00  0.00    +0.000 C 
BRANCH  17  25
ATOM     25  C   UNL     1      -1.273  10.788  20.082  0.00  0.00    +0.000 C 
BRANCH  25  26
ATOM     26  C   UNL     1      -1.766  10.853  18.659  0.00  0.00    +0.000 A 
ATOM     27  C   UNL     1      -1.332   9.907  17.722  0.00  0.00    +0.000 A 
ATOM     28  C   UNL     1      -2.002   9.762  16.508  0.00  0.00    +0.000 A 
ATOM     29  C   UNL     1      -3.115  10.557  16.212  0.00  0.00    +0.000 A 
ATOM     30  C   UNL     1      -3.863  10.388  14.924  0.00  0.00    +0.000 C 
ATOM     31  C   UNL     1      -3.529  11.526  17.133  0.00  0.00    +0.000 A 
ATOM     32  C   UNL     1      -2.855  11.680  18.343  0.00  0.00    +0.000 A 
ENDBRANCH  25  26
ENDBRANCH  17  25
ENDBRANCH   1  17
TORSDOF 7
ENDMDL
