MODEL 1
REMARK VINA RESULT:      -8.3      0.000      0.000
REMARK  Name = 
REMARK  7 active torsions:
REMARK  status: ('A' for Active; 'I' for Inactive)
REMARK    1  A    between atoms: C_1  and  O_2
REMARK    2  A    between atoms: O_2  and  C_3
REMARK    3  A    between atoms: C_6  and  O_7
REMARK    4  A    between atoms: O_7  and  C_8
REMARK    5  A    between atoms: C_8  and  C_9
REMARK    6  A    between atoms: N_11  and  C_12
REMARK    7  A    between atoms: C_16  and  C_17
REMARK                            x       y       z     vdW  Elec       q    Type
REMARK                         _______ _______ _______ _____ _____    ______ ____
ROOT
ATOM      1  C   UNL     1       1.611   8.185  20.489  0.00  0.00    +0.000 A 
ATOM      2  C   UNL     1       1.590   8.520  21.847  0.00  0.00    +0.000 A 
ATOM      3  C   UNL     1       0.759   9.535  22.316  0.00  0.00    +0.000 A 
ATOM      4  C   UNL     1      -0.084  10.201  21.433  0.00  0.00    +0.000 A 
ATOM      5  C   UNL     1      -0.099   9.873  20.069  0.00  0.00    +0.000 A 
ATOM      6  C   UNL     1       0.794   8.896  19.598  0.00  0.00    +0.000 A 
ENDROOT
BRANCH   5   7
ATOM      7  C   UNL     1      -1.128  10.471  19.222  0.00  0.00    +0.000 A 
ATOM      8  N   UNL     1      -2.100  11.288  19.588  0.00  0.00    +0.000 NA
ATOM      9  C   UNL     1      -2.911  11.351  18.488  0.00  0.00    +0.000 A 
ATOM     10  C   UNL     1      -4.135  11.997  18.297  0.00  0.00    +0.000 A 
ATOM     11  C   UNL     1      -4.755  11.851  17.053  0.00  0.00    +0.000 A 
ATOM     12 CL   UNL     1      -6.280  12.607  16.785  0.00  0.00    +0.000 Cl
ATOM     13  C   UNL     1      -4.172  11.097  16.024  0.00  0.00    +0.000 A 
ATOM     14  C   UNL     1      -2.943  10.449  16.206  0.00  0.00    +0.000 A 
ATOM     15  C   UNL     1      -2.363  10.601  17.459  0.00  0.00    +0.000 A 
ATOM     16  O   UNL     1      -1.206  10.040  17.919  0.00  0.00    +0.000 OA
ENDBRANCH   5   7
BRANCH   1  19
ATOM     17  C   UNL     1       2.156   5.783  20.132  0.00  0.00    +0.000 C 
ATOM     18  O   UNL     1       1.181   5.294  20.702  0.00  0.00    +0.000 OA
ATOM     19  N   UNL     1       2.407   7.140  19.972  0.00  0.00    +0.000 N 
ATOM     20  H   UNL     1       3.146   7.406  19.332  0.00  0.00    +0.000 HD
BRANCH  17  21
ATOM     21  C   UNL     1       3.199   4.876  19.487  0.00  0.00    +0.000 C 
BRANCH  21  22
ATOM     22  O   UNL     1       4.450   5.544  19.580  0.00  0.00    +0.000 OA
BRANCH  22  26
ATOM     23  C   UNL     1       6.800   5.391  16.141  0.00  0.00    +0.000 A 
ATOM     24  C   UNL     1       5.516   5.935  16.142  0.00  0.00    +0.000 A 
ATOM     25  C   UNL     1       4.768   5.978  17.320  0.00  0.00    +0.000 A 
ATOM     26  C   UNL     1       5.279   5.441  18.501  0.00  0.00    +0.000 A 
ATOM     27  C   UNL     1       6.563   4.896  18.504  0.00  0.00    +0.000 A 
ATOM     28  C   UNL     1       7.322   4.870  17.325  0.00  0.00    +0.000 A 
BRANCH  23  30
ATOM     29  C   UNL     1       6.852   4.563  13.928  0.00  0.00    +0.000 C 
ATOM     30  O   UNL     1       7.433   5.390  14.930  0.00  0.00    +0.000 OA
ENDBRANCH  23  30
ENDBRANCH  22  26
ENDBRANCH  21  22
ENDBRANCH  17  21
ENDBRANCH   1  19
TORSDOF 6
ENDMDL
MODEL 2
REMARK VINA RESULT:      -8.2      3.135      3.786
REMARK  Name = 
REMARK  7 active torsions:
REMARK  status: ('A' for Active; 'I' for Inactive)
REMARK    1  A    between atoms: C_1  and  O_2
REMARK    2  A    between atoms: O_2  and  C_3
REMARK    3  A    between atoms: C_6  and  O_7
REMARK    4  A    between atoms: O_7  and  C_8
REMARK    5  A    between atoms: C_8  and  C_9
REMARK    6  A    between atoms: N_11  and  C_12
REMARK    7  A    between atoms: C_16  and  C_17
REMARK                            x       y       z     vdW  Elec       q    Type
REMARK                         _______ _______ _______ _____ _____    ______ ____
ROOT
ATOM      1  C   UNL     1       2.298   7.384  19.459  0.00  0.00    +0.000 A 
ATOM      2  C   UNL     1       2.432   7.826  18.139  0.00  0.00    +0.000 A 
ATOM      3  C   UNL     1       1.836   9.015  17.723  0.00  0.00    +0.000 A 
ATOM      4  C   UNL     1       1.129   9.790  18.637  0.00  0.00    +0.000 A 
ATOM      5  C   UNL     1       0.996   9.381  19.973  0.00  0.00    +0.000 A 
ATOM      6  C   UNL     1       1.542   8.147  20.361  0.00  0.00    +0.000 A 
ENDROOT
BRANCH   5   7
ATOM      7  C   UNL     1       0.404  10.315  20.928  0.00  0.00    +0.000 A 
ATOM      8  N   UNL     1      -0.608  10.097  21.749  0.00  0.00    +0.000 NA
ATOM      9  C   UNL     1      -0.915  11.339  22.234  0.00  0.00    +0.000 A 
ATOM     10  C   UNL     1      -1.943  11.754  23.083  0.00  0.00    +0.000 A 
ATOM     11  C   UNL     1      -2.023  13.118  23.380  0.00  0.00    +0.000 A 
ATOM     12 CL   UNL     1      -3.294  13.678  24.400  0.00  0.00    +0.000 Cl
ATOM     13  C   UNL     1      -1.104  14.040  22.860  0.00  0.00    +0.000 A 
ATOM     14  C   UNL     1      -0.067  13.632  22.010  0.00  0.00    +0.000 A 
ATOM     15  C   UNL     1      -0.026  12.273  21.723  0.00  0.00    +0.000 A 
ATOM     16  O   UNL     1       0.836  11.619  20.889  0.00  0.00    +0.000 OA
ENDBRANCH   5   7
BRANCH   1  19
ATOM     17  C   UNL     1       2.427   4.917  19.766  0.00  0.00    +0.000 C 
ATOM     18  O   UNL     1       1.418   4.608  19.132  0.00  0.00    +0.000 OA
ATOM     19  N   UNL     1       2.915   6.207  19.937  0.00  0.00    +0.000 N 
ATOM     20  H   UNL     1       3.844   6.307  20.325  0.00  0.00    +0.000 HD
BRANCH  17  21
ATOM     21  C   UNL     1       3.286   3.836  20.413  0.00  0.00    +0.000 C 
BRANCH  21  22
ATOM     22  O   UNL     1       3.870   3.079  19.361  0.00  0.00    +0.000 OA
BRANCH  22  26
ATOM     23  C   UNL     1       6.154   5.111  16.529  0.00  0.00    +0.000 A 
ATOM     24  C   UNL     1       4.997   4.411  16.189  0.00  0.00    +0.000 A 
ATOM     25  C   UNL     1       4.255   3.755  17.172  0.00  0.00    +0.000 A 
ATOM     26  C   UNL     1       4.682   3.757  18.500  0.00  0.00    +0.000 A 
ATOM     27  C   UNL     1       5.838   4.456  18.843  0.00  0.00    +0.000 A 
ATOM     28  C   UNL     1       6.574   5.131  17.859  0.00  0.00    +0.000 A 
BRANCH  23  30
ATOM     29  C   UNL     1       7.081   4.862  14.369  0.00  0.00    +0.000 C 
ATOM     30  O   UNL     1       6.806   5.703  15.483  0.00  0.00    +0.000 OA
ENDBRANCH  23  30
ENDBRANCH  22  26
ENDBRANCH  21  22
ENDBRANCH  17  21
ENDBRANCH   1  19
TORSDOF 6
ENDMDL
MODEL 3
REMARK VINA RESULT:      -8.1      3.197      5.115
REMARK  Name = 
REMARK  7 active torsions:
REMARK  status: ('A' for Active; 'I' for Inactive)
REMARK    1  A    between atoms: C_1  and  O_2
REMARK    2  A    between atoms: O_2  and  C_3
REMARK    3  A    between atoms: C_6  and  O_7
REMARK    4  A    between atoms: O_7  and  C_8
REMARK    5  A    between atoms: C_8  and  C_9
REMARK    6  A    between atoms: N_11  and  C_12
REMARK    7  A    between atoms: C_16  and  C_17
REMARK                            x       y       z     vdW  Elec       q    Type
REMARK                         _______ _______ _______ _____ _____    ______ ____
ROOT
ATOM      1  C   UNL     1       4.255   4.491  19.108  0.00  0.00    +0.000 A 
ATOM      2  C   UNL     1       3.718   3.387  19.777  0.00  0.00    +0.000 A 
ATOM      3  C   UNL     1       2.632   3.536  20.637  0.00  0.00    +0.000 A 
ATOM      4  C   UNL     1       2.053   4.789  20.807  0.00  0.00    +0.000 A 
ATOM      5  C   UNL     1       2.559   5.911  20.133  0.00  0.00    +0.000 A 
ATOM      6  C   UNL     1       3.697   5.759  19.323  0.00  0.00    +0.000 A 
ENDROOT
BRANCH   5   7
ATOM      7  C   UNL     1       1.805   7.161  20.203  0.00  0.00    +0.000 A 
ATOM      8  N   UNL     1       1.844   8.175  19.357  0.00  0.00    +0.000 NA
ATOM      9  C   UNL     1       1.157   9.168  20.000  0.00  0.00    +0.000 A 
ATOM     10  C   UNL     1       0.928  10.498  19.635  0.00  0.00    +0.000 A 
ATOM     11  C   UNL     1       0.206  11.296  20.527  0.00  0.00    +0.000 A 
ATOM     12 CL   UNL     1      -0.073  12.950  20.130  0.00  0.00    +0.000 Cl
ATOM     13  C   UNL     1      -0.285  10.788  21.738  0.00  0.00    +0.000 A 
ATOM     14  C   UNL     1      -0.063   9.455  22.110  0.00  0.00    +0.000 A 
ATOM     15  C   UNL     1       0.671   8.695  21.209  0.00  0.00    +0.000 A 
ATOM     16  O   UNL     1       1.074   7.396  21.343  0.00  0.00    +0.000 OA
ENDBRANCH   5   7
BRANCH   1  19
ATOM     17  C   UNL     1       6.630   4.813  18.435  0.00  0.00    +0.000 C 
ATOM     18  O   UNL     1       7.047   5.299  19.486  0.00  0.00    +0.000 OA
ATOM     19  N   UNL     1       5.330   4.384  18.198  0.00  0.00    +0.000 N 
ATOM     20  H   UNL     1       5.163   3.842  17.359  0.00  0.00    +0.000 HD
BRANCH  17  21
ATOM     21  C   UNL     1       7.581   4.597  17.262  0.00  0.00    +0.000 C 
BRANCH  21  22
ATOM     22  O   UNL     1       7.176   5.480  16.226  0.00  0.00    +0.000 OA
BRANCH  22  26
ATOM     23  C   UNL     1       6.048   3.680  12.640  0.00  0.00    +0.000 A 
ATOM     24  C   UNL     1       5.290   3.559  13.805  0.00  0.00    +0.000 A 
ATOM     25  C   UNL     1       5.699   4.190  14.981  0.00  0.00    +0.000 A 
ATOM     26  C   UNL     1       6.890   4.914  15.018  0.00  0.00    +0.000 A 
ATOM     27  C   UNL     1       7.650   5.037  13.855  0.00  0.00    +0.000 A 
ATOM     28  C   UNL     1       7.230   4.420  12.668  0.00  0.00    +0.000 A 
BRANCH  23  30
ATOM     29  C   UNL     1       4.168   3.168  11.304  0.00  0.00    +0.000 C 
ATOM     30  O   UNL     1       5.559   3.010  11.554  0.00  0.00    +0.000 OA
ENDBRANCH  23  30
ENDBRANCH  22  26
ENDBRANCH  21  22
ENDBRANCH  17  21
ENDBRANCH   1  19
TORSDOF 6
ENDMDL
MODEL 4
REMARK VINA RESULT:      -8.1      2.769      4.604
REMARK  Name = 
REMARK  7 active torsions:
REMARK  status: ('A' for Active; 'I' for Inactive)
REMARK    1  A    between atoms: C_1  and  O_2
REMARK    2  A    between atoms: O_2  and  C_3
REMARK    3  A    between atoms: C_6  and  O_7
REMARK    4  A    between atoms: O_7  and  C_8
REMARK    5  A    between atoms: C_8  and  C_9
REMARK    6  A    between atoms: N_11  and  C_12
REMARK    7  A    between atoms: C_16  and  C_17
REMARK                            x       y       z     vdW  Elec       q    Type
REMARK                         _______ _______ _______ _____ _____    ______ ____
ROOT
ATOM      1  C   UNL     1       4.117   4.703  19.185  0.00  0.00    +0.000 A 
ATOM      2  C   UNL     1       3.393   3.636  19.724  0.00  0.00    +0.000 A 
ATOM      3  C   UNL     1       2.242   3.863  20.474  0.00  0.00    +0.000 A 
ATOM      4  C   UNL     1       1.786   5.164  20.662  0.00  0.00    +0.000 A 
ATOM      5  C   UNL     1       2.481   6.254  20.116  0.00  0.00    +0.000 A 
ATOM      6  C   UNL     1       3.678   6.014  19.421  0.00  0.00    +0.000 A 
ENDROOT
BRANCH   5   7
ATOM      7  C   UNL     1       1.864   7.576  20.186  0.00  0.00    +0.000 A 
ATOM      8  N   UNL     1       1.166   8.089  21.184  0.00  0.00    +0.000 NA
ATOM      9  C   UNL     1       0.620   9.227  20.655  0.00  0.00    +0.000 A 
ATOM     10  C   UNL     1      -0.274  10.147  21.207  0.00  0.00    +0.000 A 
ATOM     11  C   UNL     1      -0.687  11.211  20.399  0.00  0.00    +0.000 A 
ATOM     12 CL   UNL     1      -1.812  12.353  21.032  0.00  0.00    +0.000 Cl
ATOM     13  C   UNL     1      -0.217  11.363  19.087  0.00  0.00    +0.000 A 
ATOM     14  C   UNL     1       0.682  10.447  18.526  0.00  0.00    +0.000 A 
ATOM     15  C   UNL     1       1.059   9.394  19.350  0.00  0.00    +0.000 A 
ATOM     16  O   UNL     1       1.872   8.340  19.043  0.00  0.00    +0.000 OA
ENDBRANCH   5   7
BRANCH   1  19
ATOM     17  C   UNL     1       6.559   4.893  18.740  0.00  0.00    +0.000 C 
ATOM     18  O   UNL     1       6.897   5.386  19.816  0.00  0.00    +0.000 OA
ATOM     19  N   UNL     1       5.268   4.522  18.386  0.00  0.00    +0.000 N 
ATOM     20  H   UNL     1       5.155   3.966  17.547  0.00  0.00    +0.000 HD
BRANCH  17  21
ATOM     21  C   UNL     1       7.606   4.600  17.670  0.00  0.00    +0.000 C 
BRANCH  21  22
ATOM     22  O   UNL     1       7.337   5.463  16.573  0.00  0.00    +0.000 OA
BRANCH  22  26
ATOM     23  C   UNL     1       6.057   3.766  12.988  0.00  0.00    +0.000 A 
ATOM     24  C   UNL     1       7.165   4.610  13.059  0.00  0.00    +0.000 A 
ATOM     25  C   UNL     1       7.566   5.147  14.283  0.00  0.00    +0.000 A 
ATOM     26  C   UNL     1       6.842   4.878  15.444  0.00  0.00    +0.000 A 
ATOM     27  C   UNL     1       5.734   4.034  15.377  0.00  0.00    +0.000 A 
ATOM     28  C   UNL     1       5.341   3.480  14.151  0.00  0.00    +0.000 A 
BRANCH  23  30
ATOM     29  C   UNL     1       4.361   3.211  11.438  0.00  0.00    +0.000 C 
ATOM     30  O   UNL     1       5.749   3.311  11.737  0.00  0.00    +0.000 OA
ENDBRANCH  23  30
ENDBRANCH  22  26
ENDBRANCH  21  22
ENDBRANCH  17  21
ENDBRANCH   1  19
TORSDOF 6
ENDMDL
MODEL 5
REMARK VINA RESULT:      -8.1      2.876      3.659
REMARK  Name = 
REMARK  7 active torsions:
REMARK  status: ('A' for Active; 'I' for Inactive)
REMARK    1  A    between atoms: C_1  and  O_2
REMARK    2  A    between atoms: O_2  and  C_3
REMARK    3  A    between atoms: C_6  and  O_7
REMARK    4  A    between atoms: O_7  and  C_8
REMARK    5  A    between atoms: C_8  and  C_9
REMARK    6  A    between atoms: N_11  and  C_12
REMARK    7  A    between atoms: C_16  and  C_17
REMARK                            x       y       z     vdW  Elec       q    Type
REMARK                         _______ _______ _______ _____ _____    ______ ____
ROOT
ATOM      1  C   UNL     1       2.262   7.655  19.290  0.00  0.00    +0.000 A 
ATOM      2  C   UNL     1       2.621   8.192  18.050  0.00  0.00    +0.000 A 
ATOM      3  C   UNL     1       2.068   9.391  17.607  0.00  0.00    +0.000 A 
ATOM      4  C   UNL     1       1.174  10.082  18.419  0.00  0.00    +0.000 A 
ATOM      5  C   UNL     1       0.811   9.577  19.677  0.00  0.00    +0.000 A 
ATOM      6  C   UNL     1       1.323   8.333  20.082  0.00  0.00    +0.000 A 
ENDROOT
BRANCH   5   7
ATOM      7  C   UNL     1       0.018  10.426  20.563  0.00  0.00    +0.000 A 
ATOM      8  N   UNL     1      -0.243  10.235  21.844  0.00  0.00    +0.000 NA
ATOM      9  C   UNL     1      -1.208  11.164  22.127  0.00  0.00    +0.000 A 
ATOM     10  C   UNL     1      -1.931  11.394  23.300  0.00  0.00    +0.000 A 
ATOM     11  C   UNL     1      -2.890  12.410  23.278  0.00  0.00    +0.000 A 
ATOM     12 CL   UNL     1      -3.825  12.708  24.694  0.00  0.00    +0.000 Cl
ATOM     13  C   UNL     1      -3.117  13.183  22.130  0.00  0.00    +0.000 A 
ATOM     14  C   UNL     1      -2.394  12.961  20.950  0.00  0.00    +0.000 A 
ATOM     15  C   UNL     1      -1.461  11.934  21.002  0.00  0.00    +0.000 A 
ATOM     16  O   UNL     1      -0.666  11.473  19.991  0.00  0.00    +0.000 OA
ENDBRANCH   5   7
BRANCH   1  19
ATOM     17  C   UNL     1       2.488   5.178  19.392  0.00  0.00    +0.000 C 
ATOM     18  O   UNL     1       1.694   4.892  18.497  0.00  0.00    +0.000 OA
ATOM     19  N   UNL     1       2.823   6.463  19.800  0.00  0.00    +0.000 N 
ATOM     20  H   UNL     1       3.618   6.565  20.419  0.00  0.00    +0.000 HD
BRANCH  17  21
ATOM     21  C   UNL     1       3.235   4.075  20.134  0.00  0.00    +0.000 C 
BRANCH  21  22
ATOM     22  O   UNL     1       4.105   3.455  19.198  0.00  0.00    +0.000 OA
BRANCH  22  26
ATOM     23  C   UNL     1       6.763   6.013  17.258  0.00  0.00    +0.000 A 
ATOM     24  C   UNL     1       6.788   5.821  18.639  0.00  0.00    +0.000 A 
ATOM     25  C   UNL     1       5.887   4.944  19.246  0.00  0.00    +0.000 A 
ATOM     26  C   UNL     1       4.925   4.281  18.486  0.00  0.00    +0.000 A 
ATOM     27  C   UNL     1       4.897   4.471  17.104  0.00  0.00    +0.000 A 
ATOM     28  C   UNL     1       5.814   5.336  16.491  0.00  0.00    +0.000 A 
BRANCH  23  30
ATOM     29  C   UNL     1       7.865   8.083  17.548  0.00  0.00    +0.000 C 
ATOM     30  O   UNL     1       7.681   6.902  16.776  0.00  0.00    +0.000 OA
ENDBRANCH  23  30
ENDBRANCH  22  26
ENDBRANCH  21  22
ENDBRANCH  17  21
ENDBRANCH   1  19
TORSDOF 6
ENDMDL
MODEL 6
REMARK VINA RESULT:      -7.9      3.156      4.536
REMARK  Name = 
REMARK  7 active torsions:
REMARK  status: ('A' for Active; 'I' for Inactive)
REMARK    1  A    between atoms: C_1  and  O_2
REMARK    2  A    between atoms: O_2  and  C_3
REMARK    3  A    between atoms: C_6  and  O_7
REMARK    4  A    between atoms: O_7  and  C_8
REMARK    5  A    between atoms: C_8  and  C_9
REMARK    6  A    between atoms: N_11  and  C_12
REMARK    7  A    between atoms: C_16  and  C_17
REMARK                            x       y       z     vdW  Elec       q    Type
REMARK                         _______ _______ _______ _____ _____    ______ ____
ROOT
ATOM      1  C   UNL     1       3.031   5.312  18.716  0.00  0.00    +0.000 A 
ATOM      2  C   UNL     1       2.502   4.199  19.376  0.00  0.00    +0.000 A 
ATOM      3  C   UNL     1       1.703   4.356  20.507  0.00  0.00    +0.000 A 
ATOM      4  C   UNL     1       1.399   5.634  20.965  0.00  0.00    +0.000 A 
ATOM      5  C   UNL     1       1.900   6.769  20.310  0.00  0.00    +0.000 A 
ATOM      6  C   UNL     1       2.761   6.595  19.214  0.00  0.00    +0.000 A 
ENDROOT
BRANCH   5   7
ATOM      7  C   UNL     1       1.404   8.081  20.719  0.00  0.00    +0.000 A 
ATOM      8  N   UNL     1       0.999   8.452  21.921  0.00  0.00    +0.000 NA
ATOM      9  C   UNL     1       0.417   9.673  21.712  0.00  0.00    +0.000 A 
ATOM     10  C   UNL     1      -0.257  10.521  22.594  0.00  0.00    +0.000 A 
ATOM     11  C   UNL     1      -0.781  11.708  22.074  0.00  0.00    +0.000 A 
ATOM     12 CL   UNL     1      -1.646  12.769  23.120  0.00  0.00    +0.000 Cl
ATOM     13  C   UNL     1      -0.630  12.049  20.722  0.00  0.00    +0.000 A 
ATOM     14  C   UNL     1       0.048  11.206  19.831  0.00  0.00    +0.000 A 
ATOM     15  C   UNL     1       0.542  10.028  20.378  0.00  0.00    +0.000 A 
ATOM     16  O   UNL     1       1.188   9.013  19.732  0.00  0.00    +0.000 OA
ENDBRANCH   5   7
BRANCH   1  19
ATOM     17  C   UNL     1       4.277   4.018  16.992  0.00  0.00    +0.000 C 
ATOM     18  O   UNL     1       4.032   2.886  17.409  0.00  0.00    +0.000 OA
ATOM     19  N   UNL     1       3.814   5.205  17.545  0.00  0.00    +0.000 N 
ATOM     20  H   UNL     1       3.939   6.052  17.005  0.00  0.00    +0.000 HD
BRANCH  17  21
ATOM     21  C   UNL     1       5.125   4.204  15.738  0.00  0.00    +0.000 C 
BRANCH  21  22
ATOM     22  O   UNL     1       6.482   4.020  16.118  0.00  0.00    +0.000 OA
BRANCH  22  26
ATOM     23  C   UNL     1       8.068   7.172  18.335  0.00  0.00    +0.000 A 
ATOM     24  C   UNL     1       7.539   7.353  17.058  0.00  0.00    +0.000 A 
ATOM     25  C   UNL     1       7.006   6.270  16.355  0.00  0.00    +0.000 A 
ATOM     26  C   UNL     1       7.032   4.989  16.905  0.00  0.00    +0.000 A 
ATOM     27  C   UNL     1       7.560   4.805  18.183  0.00  0.00    +0.000 A 
ATOM     28  C   UNL     1       8.078   5.895  18.897  0.00  0.00    +0.000 A 
BRANCH  23  30
ATOM     29  C   UNL     1       8.442   9.500  18.171  0.00  0.00    +0.000 C 
ATOM     30  O   UNL     1       8.573   8.299  18.922  0.00  0.00    +0.000 OA
ENDBRANCH  23  30
ENDBRANCH  22  26
ENDBRANCH  21  22
ENDBRANCH  17  21
ENDBRANCH   1  19
TORSDOF 6
ENDMDL
MODEL 7
REMARK VINA RESULT:      -7.8      3.269      3.998
REMARK  Name = 
REMARK  7 active torsions:
REMARK  status: ('A' for Active; 'I' for Inactive)
REMARK    1  A    between atoms: C_1  and  O_2
REMARK    2  A    between atoms: O_2  and  C_3
REMARK    3  A    between atoms: C_6  and  O_7
REMARK    4  A    between atoms: O_7  and  C_8
REMARK    5  A    between atoms: C_8  and  C_9
REMARK    6  A    between atoms: N_11  and  C_12
REMARK    7  A    between atoms: C_16  and  C_17
REMARK                            x       y       z     vdW  Elec       q    Type
REMARK                         _______ _______ _______ _____ _____    ______ ____
ROOT
ATOM      1  C   UNL     1       2.199   7.126  19.750  0.00  0.00    +0.000 A 
ATOM      2  C   UNL     1       2.393   7.480  18.411  0.00  0.00    +0.000 A 
ATOM      3  C   UNL     1       1.900   8.685  17.916  0.00  0.00    +0.000 A 
ATOM      4  C   UNL     1       1.236   9.562  18.767  0.00  0.00    +0.000 A 
ATOM      5  C   UNL     1       1.044   9.241  20.120  0.00  0.00    +0.000 A 
ATOM      6  C   UNL     1       1.485   7.993  20.590  0.00  0.00    +0.000 A 
ENDROOT
BRANCH   5   7
ATOM      7  C   UNL     1       0.507  10.270  21.007  0.00  0.00    +0.000 A 
ATOM      8  N   UNL     1      -0.459  10.142  21.901  0.00  0.00    +0.000 NA
ATOM      9  C   UNL     1      -0.738  11.428  22.273  0.00  0.00    +0.000 A 
ATOM     10  C   UNL     1      -1.717  11.933  23.132  0.00  0.00    +0.000 A 
ATOM     11  C   UNL     1      -1.781  13.320  23.293  0.00  0.00    +0.000 A 
ATOM     12 CL   UNL     1      -2.993  13.988  24.321  0.00  0.00    +0.000 Cl
ATOM     13  C   UNL     1      -0.891  14.180  22.633  0.00  0.00    +0.000 A 
ATOM     14  C   UNL     1       0.096  13.682  21.772  0.00  0.00    +0.000 A 
ATOM     15  C   UNL     1       0.121  12.301  21.622  0.00  0.00    +0.000 A 
ATOM     16  O   UNL     1       0.936  11.562  20.812  0.00  0.00    +0.000 OA
ENDBRANCH   5   7
BRANCH   1  19
ATOM     17  C   UNL     1       1.986   4.771  20.528  0.00  0.00    +0.000 C 
ATOM     18  O   UNL     1       0.806   4.591  20.224  0.00  0.00    +0.000 OA
ATOM     19  N   UNL     1       2.712   5.934  20.308  0.00  0.00    +0.000 N 
ATOM     20  H   UNL     1       3.715   5.890  20.440  0.00  0.00    +0.000 HD
BRANCH  17  21
ATOM     21  C   UNL     1       2.790   3.646  21.170  0.00  0.00    +0.000 C 
BRANCH  21  22
ATOM     22  O   UNL     1       3.197   2.772  20.125  0.00  0.00    +0.000 OA
BRANCH  22  26
ATOM     23  C   UNL     1       5.271   4.559  16.983  0.00  0.00    +0.000 A 
ATOM     24  C   UNL     1       5.795   4.483  18.273  0.00  0.00    +0.000 A 
ATOM     25  C   UNL     1       5.071   3.864  19.293  0.00  0.00    +0.000 A 
ATOM     26  C   UNL     1       3.799   3.350  19.046  0.00  0.00    +0.000 A 
ATOM     27  C   UNL     1       3.272   3.424  17.756  0.00  0.00    +0.000 A 
ATOM     28  C   UNL     1       4.007   4.028  16.727  0.00  0.00    +0.000 A 
BRANCH  23  30
ATOM     29  C   UNL     1       6.874   4.357  15.258  0.00  0.00    +0.000 C 
ATOM     30  O   UNL     1       6.062   5.198  16.069  0.00  0.00    +0.000 OA
ENDBRANCH  23  30
ENDBRANCH  22  26
ENDBRANCH  21  22
ENDBRANCH  17  21
ENDBRANCH   1  19
TORSDOF 6
ENDMDL
MODEL 8
REMARK VINA RESULT:      -7.7      3.369      4.249
REMARK  Name = 
REMARK  7 active torsions:
REMARK  status: ('A' for Active; 'I' for Inactive)
REMARK    1  A    between atoms: C_1  and  O_2
REMARK    2  A    between atoms: O_2  and  C_3
REMARK    3  A    between atoms: C_6  and  O_7
REMARK    4  A    between atoms: O_7  and  C_8
REMARK    5  A    between atoms: C_8  and  C_9
REMARK    6  A    between atoms: N_11  and  C_12
REMARK    7  A    between atoms: C_16  and  C_17
REMARK                            x       y       z     vdW  Elec       q    Type
REMARK                         _______ _______ _______ _____ _____    ______ ____
ROOT
ATOM      1  C   UNL     1       2.182   7.204  19.726  0.00  0.00    +0.000 A 
ATOM      2  C   UNL     1       2.586   7.421  18.405  0.00  0.00    +0.000 A 
ATOM      3  C   UNL     1       2.218   8.583  17.730  0.00  0.00    +0.000 A 
ATOM      4  C   UNL     1       1.468   9.554  18.385  0.00  0.00    +0.000 A 
ATOM      5  C   UNL     1       1.065   9.373  19.717  0.00  0.00    +0.000 A 
ATOM      6  C   UNL     1       1.384   8.167  20.363  0.00  0.00    +0.000 A 
ENDROOT
BRANCH   5   7
ATOM      7  C   UNL     1       0.442  10.496  20.412  0.00  0.00    +0.000 A 
ATOM      8  N   UNL     1       0.828  11.760  20.413  0.00  0.00    +0.000 NA
ATOM      9  C   UNL     1       0.069  12.337  21.394  0.00  0.00    +0.000 A 
ATOM     10  C   UNL     1       0.083  13.636  21.908  0.00  0.00    +0.000 A 
ATOM     11  C   UNL     1      -0.802  13.928  22.949  0.00  0.00    +0.000 A 
ATOM     12 CL   UNL     1      -0.797  15.510  23.632  0.00  0.00    +0.000 Cl
ATOM     13  C   UNL     1      -1.684  12.964  23.458  0.00  0.00    +0.000 A 
ATOM     14  C   UNL     1      -1.708  11.659  22.946  0.00  0.00    +0.000 A 
ATOM     15  C   UNL     1      -0.804  11.399  21.924  0.00  0.00    +0.000 A 
ATOM     16  O   UNL     1      -0.579  10.211  21.288  0.00  0.00    +0.000 OA
ENDBRANCH   5   7
BRANCH   1  19
ATOM     17  C   UNL     1       1.739   4.978  20.748  0.00  0.00    +0.000 C 
ATOM     18  O   UNL     1       0.581   4.831  20.358  0.00  0.00    +0.000 OA
ATOM     19  N   UNL     1       2.561   6.062  20.464  0.00  0.00    +0.000 N 
ATOM     20  H   UNL     1       3.543   5.976  20.695  0.00  0.00    +0.000 HD
BRANCH  17  21
ATOM     21  C   UNL     1       2.406   3.895  21.590  0.00  0.00    +0.000 C 
BRANCH  21  22
ATOM     22  O   UNL     1       2.659   2.793  20.729  0.00  0.00    +0.000 OA
BRANCH  22  26
ATOM     23  C   UNL     1       4.546   3.699  17.125  0.00  0.00    +0.000 A 
ATOM     24  C   UNL     1       5.197   3.807  18.354  0.00  0.00    +0.000 A 
ATOM     25  C   UNL     1       4.530   3.481  19.536  0.00  0.00    +0.000 A 
ATOM     26  C   UNL     1       3.194   3.082  19.508  0.00  0.00    +0.000 A 
ATOM     27  C   UNL     1       2.541   2.972  18.281  0.00  0.00    +0.000 A 
ATOM     28  C   UNL     1       3.216   3.281  17.091  0.00  0.00    +0.000 A 
BRANCH  23  30
ATOM     29  C   UNL     1       6.507   4.742  16.317  0.00  0.00    +0.000 C 
ATOM     30  O   UNL     1       5.292   4.057  16.037  0.00  0.00    +0.000 OA
ENDBRANCH  23  30
ENDBRANCH  22  26
ENDBRANCH  21  22
ENDBRANCH  17  21
ENDBRANCH   1  19
TORSDOF 6
ENDMDL
MODEL 9
REMARK VINA RESULT:      -7.7      0.894      1.169
REMARK  Name = 
REMARK  7 active torsions:
REMARK  status: ('A' for Active; 'I' for Inactive)
REMARK    1  A    between atoms: C_1  and  O_2
REMARK    2  A    between atoms: O_2  and  C_3
REMARK    3  A    between atoms: C_6  and  O_7
REMARK    4  A    between atoms: O_7  and  C_8
REMARK    5  A    between atoms: C_8  and  C_9
REMARK    6  A    between atoms: N_11  and  C_12
REMARK    7  A    between atoms: C_16  and  C_17
REMARK                            x       y       z     vdW  Elec       q    Type
REMARK                         _______ _______ _______ _____ _____    ______ ____
ROOT
ATOM      1  C   UNL     1       1.536   8.358  20.520  0.00  0.00    +0.000 A 
ATOM      2  C   UNL     1       1.457   8.606  21.894  0.00  0.00    +0.000 A 
ATOM      3  C   UNL     1       0.561   9.546  22.397  0.00  0.00    +0.000 A 
ATOM      4  C   UNL     1      -0.290  10.223  21.529  0.00  0.00    +0.000 A 
ATOM      5  C   UNL     1      -0.247   9.979  20.147  0.00  0.00    +0.000 A 
ATOM      6  C   UNL     1       0.709   9.080  19.647  0.00  0.00    +0.000 A 
ENDROOT
BRANCH   5   7
ATOM      7  C   UNL     1      -1.281  10.576  19.306  0.00  0.00    +0.000 A 
ATOM      8  N   UNL     1      -2.256  11.387  19.677  0.00  0.00    +0.000 NA
ATOM      9  C   UNL     1      -3.070  11.451  18.579  0.00  0.00    +0.000 A 
ATOM     10  C   UNL     1      -4.297  12.092  18.394  0.00  0.00    +0.000 A 
ATOM     11  C   UNL     1      -4.919  11.948  17.150  0.00  0.00    +0.000 A 
ATOM     12 CL   UNL     1      -6.449  12.698  16.889  0.00  0.00    +0.000 Cl
ATOM     13  C   UNL     1      -4.335  11.201  16.117  0.00  0.00    +0.000 A 
ATOM     14  C   UNL     1      -3.103  10.558  16.293  0.00  0.00    +0.000 A 
ATOM     15  C   UNL     1      -2.521  10.708  17.545  0.00  0.00    +0.000 A 
ATOM     16  O   UNL     1      -1.360  10.150  18.001  0.00  0.00    +0.000 OA
ENDBRANCH   5   7
BRANCH   1  19
ATOM     17  C   UNL     1       2.271   6.013  20.120  0.00  0.00    +0.000 C 
ATOM     18  O   UNL     1       1.360   5.438  20.716  0.00  0.00    +0.000 OA
ATOM     19  N   UNL     1       2.401   7.388  19.966  0.00  0.00    +0.000 N 
ATOM     20  H   UNL     1       3.092   7.721  19.306  0.00  0.00    +0.000 HD
BRANCH  17  21
ATOM     21  C   UNL     1       3.366   5.204  19.432  0.00  0.00    +0.000 C 
BRANCH  21  22
ATOM     22  O   UNL     1       4.155   6.117  18.683  0.00  0.00    +0.000 OA
BRANCH  22  26
ATOM     23  C   UNL     1       5.817   4.409  15.264  0.00  0.00    +0.000 A 
ATOM     24  C   UNL     1       5.584   3.673  16.426  0.00  0.00    +0.000 A 
ATOM     25  C   UNL     1       5.013   4.283  17.544  0.00  0.00    +0.000 A 
ATOM     26  C   UNL     1       4.706   5.644  17.528  0.00  0.00    +0.000 A 
ATOM     27  C   UNL     1       4.938   6.381  16.368  0.00  0.00    +0.000 A 
ATOM     28  C   UNL     1       5.494   5.765  15.238  0.00  0.00    +0.000 A 
BRANCH  23  30
ATOM     29  C   UNL     1       5.690   3.741  13.001  0.00  0.00    +0.000 C 
ATOM     30  O   UNL     1       6.391   3.712  14.238  0.00  0.00    +0.000 OA
ENDBRANCH  23  30
ENDBRANCH  22  26
ENDBRANCH  21  22
ENDBRANCH  17  21
ENDBRANCH   1  19
TORSDOF 6
ENDMDL
