MODEL 1
REMARK VINA RESULT:      -6.7      0.000      0.000
REMARK  Name = 
REMARK  2 active torsions:
REMARK  status: ('A' for Active; 'I' for Inactive)
REMARK    1  A    between atoms: C_1  and  C_2
REMARK    2  A    between atoms: C_5  and  N_6
REMARK                            x       y       z     vdW  Elec       q    Type
REMARK                         _______ _______ _______ _____ _____    ______ ____
ROOT
ATOM      1  C   UNL     1       1.610   2.536  21.327  0.00  0.00    +0.000 C 
ATOM      2  C   UNL     1       2.688   3.287  20.609  0.00  0.00    +0.000 A 
ATOM      3  C   UNL     1       3.863   2.663  20.212  0.00  0.00    +0.000 A 
ATOM      4  N   UNL     1       4.870   3.305  19.569  0.00  0.00    +0.000 NA
ATOM      5  C   UNL     1       4.661   4.611  19.305  0.00  0.00    +0.000 A 
ATOM      6  C   UNL     1       3.492   5.243  19.725  0.00  0.00    +0.000 A 
ATOM      7  N   UNL     1       2.486   4.605  20.373  0.00  0.00    +0.000 NA
ENDROOT
BRANCH   5   8
ATOM      8  N   UNL     1       5.684   5.326  18.690  0.00  0.00    +0.000 NA
ATOM      9  C   UNL     1       5.932   5.204  17.425  0.00  0.00    +0.000 A 
ATOM     10  S   UNL     1       5.163   4.340  16.150  0.00  0.00    +0.000 S 
ATOM     11  S   UNL     1       6.643   4.495  14.777  0.00  0.00    +0.000 S 
ATOM     12  N   UNL     1       7.396   5.782  15.510  0.00  0.00    +0.000 NA
ATOM     13  C   UNL     1       7.004   5.985  16.726  0.00  0.00    +0.000 A 
ATOM     14 CL   UNL     1       7.742   7.255  17.611  0.00  0.00    +0.000 Cl
ENDBRANCH   5   8
TORSDOF 1
ENDMDL
MODEL 2
REMARK VINA RESULT:      -6.4      0.805      1.323
REMARK  Name = 
REMARK  2 active torsions:
REMARK  status: ('A' for Active; 'I' for Inactive)
REMARK    1  A    between atoms: C_1  and  C_2
REMARK    2  A    between atoms: C_5  and  N_6
REMARK                            x       y       z     vdW  Elec       q    Type
REMARK                         _______ _______ _______ _____ _____    ______ ____
ROOT
ATOM      1  C   UNL     1       1.203   2.709  20.747  0.00  0.00    +0.000 C 
ATOM      2  C   UNL     1       2.391   3.454  20.224  0.00  0.00    +0.000 A 
ATOM      3  C   UNL     1       2.330   4.815  19.954  0.00  0.00    +0.000 A 
ATOM      4  N   UNL     1       3.376   5.529  19.470  0.00  0.00    +0.000 NA
ATOM      5  C   UNL     1       4.520   4.840  19.278  0.00  0.00    +0.000 A 
ATOM      6  C   UNL     1       4.574   3.470  19.525  0.00  0.00    +0.000 A 
ATOM      7  N   UNL     1       3.529   2.752  20.005  0.00  0.00    +0.000 NA
ENDROOT
BRANCH   5   8
ATOM      8  N   UNL     1       5.608   5.517  18.737  0.00  0.00    +0.000 NA
ATOM      9  C   UNL     1       5.929   5.400  17.488  0.00  0.00    +0.000 A 
ATOM     10  S   UNL     1       5.205   4.585  16.156  0.00  0.00    +0.000 S 
ATOM     11  S   UNL     1       6.772   4.693  14.879  0.00  0.00    +0.000 S 
ATOM     12  N   UNL     1       7.533   5.936  15.676  0.00  0.00    +0.000 NA
ATOM     13  C   UNL     1       7.075   6.141  16.868  0.00  0.00    +0.000 A 
ATOM     14 CL   UNL     1       7.811   7.368  17.816  0.00  0.00    +0.000 Cl
ENDBRANCH   5   8
TORSDOF 1
ENDMDL
MODEL 3
REMARK VINA RESULT:      -6.3      2.079      2.079
REMARK  Name = 
REMARK  2 active torsions:
REMARK  status: ('A' for Active; 'I' for Inactive)
REMARK    1  A    between atoms: C_1  and  C_2
REMARK    2  A    between atoms: C_5  and  N_6
REMARK                            x       y       z     vdW  Elec       q    Type
REMARK                         _______ _______ _______ _____ _____    ______ ____
ROOT
ATOM      1  C   UNL     1       1.463   2.691  21.573  0.00  0.00    +0.000 C 
ATOM      2  C   UNL     1       2.316   2.995  20.381  0.00  0.00    +0.000 A 
ATOM      3  C   UNL     1       3.579   2.437  20.235  0.00  0.00    +0.000 A 
ATOM      4  N   UNL     1       4.391   2.691  19.178  0.00  0.00    +0.000 NA
ATOM      5  C   UNL     1       3.890   3.518  18.238  0.00  0.00    +0.000 A 
ATOM      6  C   UNL     1       2.633   4.097  18.396  0.00  0.00    +0.000 A 
ATOM      7  N   UNL     1       1.821   3.849  19.453  0.00  0.00    +0.000 NA
ENDROOT
BRANCH   5   8
ATOM      8  N   UNL     1       4.703   3.848  17.157  0.00  0.00    +0.000 NA
ATOM      9  C   UNL     1       5.659   4.714  17.267  0.00  0.00    +0.000 A 
ATOM     10  S   UNL     1       6.304   5.598  18.596  0.00  0.00    +0.000 S 
ATOM     11  S   UNL     1       7.392   6.938  17.538  0.00  0.00    +0.000 S 
ATOM     12  N   UNL     1       7.430   6.036  16.144  0.00  0.00    +0.000 NA
ATOM     13  C   UNL     1       6.573   5.067  16.132  0.00  0.00    +0.000 A 
ATOM     14 CL   UNL     1       6.478   4.089  14.726  0.00  0.00    +0.000 Cl
ENDBRANCH   5   8
TORSDOF 1
ENDMDL
MODEL 4
REMARK VINA RESULT:      -6.3      2.189      2.381
REMARK  Name = 
REMARK  2 active torsions:
REMARK  status: ('A' for Active; 'I' for Inactive)
REMARK    1  A    between atoms: C_1  and  C_2
REMARK    2  A    between atoms: C_5  and  N_6
REMARK                            x       y       z     vdW  Elec       q    Type
REMARK                         _______ _______ _______ _____ _____    ______ ____
ROOT
ATOM      1  C   UNL     1       1.407   2.649  21.630  0.00  0.00    +0.000 C 
ATOM      2  C   UNL     1       2.279   2.987  20.461  0.00  0.00    +0.000 A 
ATOM      3  C   UNL     1       1.803   3.743  19.398  0.00  0.00    +0.000 A 
ATOM      4  N   UNL     1       2.552   4.064  18.314  0.00  0.00    +0.000 NA
ATOM      5  C   UNL     1       3.826   3.622  18.328  0.00  0.00    +0.000 A 
ATOM      6  C   UNL     1       4.297   2.843  19.384  0.00  0.00    +0.000 A 
ATOM      7  N   UNL     1       3.549   2.516  20.466  0.00  0.00    +0.000 NA
ENDROOT
BRANCH   5   8
ATOM      8  N   UNL     1       4.622   3.884  17.217  0.00  0.00    +0.000 NA
ATOM      9  C   UNL     1       5.604   4.726  17.269  0.00  0.00    +0.000 A 
ATOM     10  S   UNL     1       6.305   5.645  18.546  0.00  0.00    +0.000 S 
ATOM     11  S   UNL     1       7.404   6.909  17.409  0.00  0.00    +0.000 S 
ATOM     12  N   UNL     1       7.384   5.949  16.053  0.00  0.00    +0.000 NA
ATOM     13  C   UNL     1       6.500   5.006  16.101  0.00  0.00    +0.000 A 
ATOM     14 CL   UNL     1       6.346   3.975  14.739  0.00  0.00    +0.000 Cl
ENDBRANCH   5   8
TORSDOF 1
ENDMDL
MODEL 5
REMARK VINA RESULT:      -6.1      3.189      5.712
REMARK  Name = 
REMARK  2 active torsions:
REMARK  status: ('A' for Active; 'I' for Inactive)
REMARK    1  A    between atoms: C_1  and  C_2
REMARK    2  A    between atoms: C_5  and  N_6
REMARK                            x       y       z     vdW  Elec       q    Type
REMARK                         _______ _______ _______ _____ _____    ______ ____
ROOT
ATOM      1  C   UNL     1       8.203   8.444  17.628  0.00  0.00    +0.000 C 
ATOM      2  C   UNL     1       7.365   7.224  17.847  0.00  0.00    +0.000 A 
ATOM      3  C   UNL     1       7.693   6.285  18.817  0.00  0.00    +0.000 A 
ATOM      4  N   UNL     1       6.970   5.161  19.045  0.00  0.00    +0.000 NA
ATOM      5  C   UNL     1       5.871   5.003  18.278  0.00  0.00    +0.000 A 
ATOM      6  C   UNL     1       5.555   5.933  17.289  0.00  0.00    +0.000 A 
ATOM      7  N   UNL     1       6.279   7.055  17.055  0.00  0.00    +0.000 NA
ENDROOT
BRANCH   5   8
ATOM      8  N   UNL     1       5.122   3.842  18.440  0.00  0.00    +0.000 NA
ATOM      9  C   UNL     1       4.025   3.832  19.127  0.00  0.00    +0.000 A 
ATOM     10  S   UNL     1       3.111   5.064  19.910  0.00  0.00    +0.000 S 
ATOM     11  S   UNL     1       1.916   3.863  21.018  0.00  0.00    +0.000 S 
ATOM     12  N   UNL     1       2.169   2.504  20.095  0.00  0.00    +0.000 NA
ATOM     13  C   UNL     1       3.178   2.606  19.292  0.00  0.00    +0.000 A 
ATOM     14 CL   UNL     1       3.574   1.251  18.318  0.00  0.00    +0.000 Cl
ENDBRANCH   5   8
TORSDOF 1
ENDMDL
MODEL 6
REMARK VINA RESULT:      -6.0      2.368      2.376
REMARK  Name = 
REMARK  2 active torsions:
REMARK  status: ('A' for Active; 'I' for Inactive)
REMARK    1  A    between atoms: C_1  and  C_2
REMARK    2  A    between atoms: C_5  and  N_6
REMARK                            x       y       z     vdW  Elec       q    Type
REMARK                         _______ _______ _______ _____ _____    ______ ____
ROOT
ATOM      1  C   UNL     1       0.770   2.657  20.125  0.00  0.00    +0.000 C 
ATOM      2  C   UNL     1       1.794   3.072  19.116  0.00  0.00    +0.000 A 
ATOM      3  C   UNL     1       2.782   2.196  18.685  0.00  0.00    +0.000 A 
ATOM      4  N   UNL     1       3.736   2.530  17.782  0.00  0.00    +0.000 NA
ATOM      5  C   UNL     1       3.665   3.784  17.288  0.00  0.00    +0.000 A 
ATOM      6  C   UNL     1       2.688   4.671  17.738  0.00  0.00    +0.000 A 
ATOM      7  N   UNL     1       1.736   4.341  18.645  0.00  0.00    +0.000 NA
ENDROOT
BRANCH   5   8
ATOM      8  N   UNL     1       4.649   4.192  16.394  0.00  0.00    +0.000 NA
ATOM      9  C   UNL     1       5.638   4.940  16.766  0.00  0.00    +0.000 A 
ATOM     10  S   UNL     1       6.140   5.557  18.293  0.00  0.00    +0.000 S 
ATOM     11  S   UNL     1       7.464   6.931  17.616  0.00  0.00    +0.000 S 
ATOM     12  N   UNL     1       7.644   6.242  16.115  0.00  0.00    +0.000 NA
ATOM     13  C   UNL     1       6.731   5.369  15.835  0.00  0.00    +0.000 A 
ATOM     14 CL   UNL     1       6.777   4.620  14.293  0.00  0.00    +0.000 Cl
ENDBRANCH   5   8
TORSDOF 1
ENDMDL
MODEL 7
REMARK VINA RESULT:      -5.8      3.179      5.779
REMARK  Name = 
REMARK  2 active torsions:
REMARK  status: ('A' for Active; 'I' for Inactive)
REMARK    1  A    between atoms: C_1  and  C_2
REMARK    2  A    between atoms: C_5  and  N_6
REMARK                            x       y       z     vdW  Elec       q    Type
REMARK                         _______ _______ _______ _____ _____    ______ ____
ROOT
ATOM      1  C   UNL     1       8.170   8.507  17.716  0.00  0.00    +0.000 C 
ATOM      2  C   UNL     1       7.372   7.254  17.895  0.00  0.00    +0.000 A 
ATOM      3  C   UNL     1       6.239   7.003  17.133  0.00  0.00    +0.000 A 
ATOM      4  N   UNL     1       5.479   5.888  17.267  0.00  0.00    +0.000 NA
ATOM      5  C   UNL     1       5.901   4.996  18.187  0.00  0.00    +0.000 A 
ATOM      6  C   UNL     1       7.024   5.259  18.969  0.00  0.00    +0.000 A 
ATOM      7  N   UNL     1       7.783   6.375  18.841  0.00  0.00    +0.000 NA
ENDROOT
BRANCH   5   8
ATOM      8  N   UNL     1       5.129   3.857  18.397  0.00  0.00    +0.000 NA
ATOM      9  C   UNL     1       4.045   3.893  19.103  0.00  0.00    +0.000 A 
ATOM     10  S   UNL     1       3.173   5.168  19.864  0.00  0.00    +0.000 S 
ATOM     11  S   UNL     1       1.972   4.027  21.028  0.00  0.00    +0.000 S 
ATOM     12  N   UNL     1       2.178   2.637  20.143  0.00  0.00    +0.000 NA
ATOM     13  C   UNL     1       3.174   2.692  19.319  0.00  0.00    +0.000 A 
ATOM     14 CL   UNL     1       3.523   1.300  18.380  0.00  0.00    +0.000 Cl
ENDBRANCH   5   8
TORSDOF 1
ENDMDL
MODEL 8
REMARK VINA RESULT:      -5.7      2.134      2.410
REMARK  Name = 
REMARK  2 active torsions:
REMARK  status: ('A' for Active; 'I' for Inactive)
REMARK    1  A    between atoms: C_1  and  C_2
REMARK    2  A    between atoms: C_5  and  N_6
REMARK                            x       y       z     vdW  Elec       q    Type
REMARK                         _______ _______ _______ _____ _____    ______ ____
ROOT
ATOM      1  C   UNL     1       1.427   2.616  21.939  0.00  0.00    +0.000 C 
ATOM      2  C   UNL     1       2.147   3.304  20.822  0.00  0.00    +0.000 A 
ATOM      3  C   UNL     1       1.980   4.661  20.580  0.00  0.00    +0.000 A 
ATOM      4  N   UNL     1       2.603   5.324  19.575  0.00  0.00    +0.000 NA
ATOM      5  C   UNL     1       3.435   4.586  18.811  0.00  0.00    +0.000 A 
ATOM      6  C   UNL     1       3.585   3.220  19.039  0.00  0.00    +0.000 A 
ATOM      7  N   UNL     1       2.960   2.553  20.040  0.00  0.00    +0.000 NA
ENDROOT
BRANCH   5   8
ATOM      8  N   UNL     1       4.062   5.210  17.737  0.00  0.00    +0.000 NA
ATOM      9  C   UNL     1       5.281   5.640  17.817  0.00  0.00    +0.000 A 
ATOM     10  S   UNL     1       6.488   5.542  19.041  0.00  0.00    +0.000 S 
ATOM     11  S   UNL     1       7.761   6.924  18.287  0.00  0.00    +0.000 S 
ATOM     12  N   UNL     1       7.144   6.873  16.745  0.00  0.00    +0.000 NA
ATOM     13  C   UNL     1       5.995   6.284  16.668  0.00  0.00    +0.000 A 
ATOM     14 CL   UNL     1       5.227   6.209  15.136  0.00  0.00    +0.000 Cl
ENDBRANCH   5   8
TORSDOF 1
ENDMDL
MODEL 9
REMARK VINA RESULT:      -5.5      2.934      5.829
REMARK  Name = 
REMARK  2 active torsions:
REMARK  status: ('A' for Active; 'I' for Inactive)
REMARK    1  A    between atoms: C_1  and  C_2
REMARK    2  A    between atoms: C_5  and  N_6
REMARK                            x       y       z     vdW  Elec       q    Type
REMARK                         _______ _______ _______ _____ _____    ______ ____
ROOT
ATOM      1  C   UNL     1       7.776   5.310  13.214  0.00  0.00    +0.000 C 
ATOM      2  C   UNL     1       7.095   4.940  14.494  0.00  0.00    +0.000 A 
ATOM      3  C   UNL     1       6.046   4.030  14.519  0.00  0.00    +0.000 A 
ATOM      4  N   UNL     1       5.393   3.673  15.653  0.00  0.00    +0.000 NA
ATOM      5  C   UNL     1       5.838   4.242  16.792  0.00  0.00    +0.000 A 
ATOM      6  C   UNL     1       6.874   5.174  16.764  0.00  0.00    +0.000 A 
ATOM      7  N   UNL     1       7.526   5.537  15.632  0.00  0.00    +0.000 NA
ENDROOT
BRANCH   5   8
ATOM      8  N   UNL     1       5.170   3.945  17.976  0.00  0.00    +0.000 NA
ATOM      9  C   UNL     1       4.223   4.702  18.430  0.00  0.00    +0.000 A 
ATOM     10  S   UNL     1       3.434   6.103  17.813  0.00  0.00    +0.000 S 
ATOM     11  S   UNL     1       2.509   6.675  19.521  0.00  0.00    +0.000 S 
ATOM     12  N   UNL     1       2.626   5.193  20.261  0.00  0.00    +0.000 NA
ATOM     13  C   UNL     1       3.462   4.392  19.683  0.00  0.00    +0.000 A 
ATOM     14 CL   UNL     1       3.712   2.845  20.381  0.00  0.00    +0.000 Cl
ENDBRANCH   5   8
TORSDOF 1
ENDMDL
