MODEL 1
REMARK VINA RESULT:      -7.5      0.000      0.000
REMARK  Name = 
REMARK  2 active torsions:
REMARK  status: ('A' for Active; 'I' for Inactive)
REMARK    1  A    between atoms: N_3  and  C_4
REMARK    2  A    between atoms: N_13  and  C_14
REMARK                            x       y       z     vdW  Elec       q    Type
REMARK                         _______ _______ _______ _____ _____    ______ ____
ROOT
ATOM      1  O   UNL     1       0.750  11.105  20.697  0.00  0.00    +0.000 OA
ATOM      2  C   UNL     1       0.958  10.873  19.511  0.00  0.00    +0.000 C 
ATOM      3  N   UNL     1       1.063  11.846  18.542  0.00  0.00    +0.000 N 
ATOM      4  N   UNL     1       1.106   9.576  19.054  0.00  0.00    +0.000 N 
ATOM      5  C   UNL     1       1.461   9.139  17.698  0.00  0.00    +0.000 C 
ATOM      6  C   UNL     1       2.724   8.263  17.689  0.00  0.00    +0.000 C 
ATOM      7  N   UNL     1       2.576   7.167  18.650  0.00  0.00    +0.000 N 
ATOM      8  C   UNL     1       2.258   7.586  20.024  0.00  0.00    +0.000 C 
ATOM      9  C   UNL     1       0.997   8.470  20.024  0.00  0.00    +0.000 C 
ATOM     10  H   UNL     1       0.929  11.553  17.591  0.00  0.00    +0.000 HD
ENDROOT
BRANCH   7  11
ATOM     11  C   UNL     1       2.762   5.841  18.282  0.00  0.00    +0.000 A 
ATOM     12  C   UNL     1       1.650   4.978  18.157  0.00  0.00    +0.000 A 
ATOM     13  C   UNL     1       1.756   3.647  17.755  0.00  0.00    +0.000 A 
ATOM     14  C   UNL     1       2.993   3.098  17.443  0.00  0.00    +0.000 A 
ATOM     15  C   UNL     1       4.110   3.927  17.566  0.00  0.00    +0.000 A 
ATOM     16  N   UNL     1       5.434   3.635  17.326  0.00  0.00    +0.000 N 
ATOM     17  C   UNL     1       6.218   4.717  17.596  0.00  0.00    +0.000 A 
ATOM     18  C   UNL     1       5.389   5.727  18.027  0.00  0.00    +0.000 A 
ATOM     19  C   UNL     1       4.032   5.260  17.980  0.00  0.00    +0.000 A 
ATOM     20  H   UNL     1       5.771   2.737  17.006  0.00  0.00    +0.000 HD
ENDBRANCH   7  11
BRANCH   3  21
ATOM     21  C   UNL     1       1.038  13.241  18.741  0.00  0.00    +0.000 A 
ATOM     22  C   UNL     1      -0.112  14.021  18.677  0.00  0.00    +0.000 A 
ATOM     23  C   UNL     1      -0.022  15.402  18.829  0.00  0.00    +0.000 A 
ATOM     24  C   UNL     1       1.223  15.960  19.068  0.00  0.00    +0.000 A 
ATOM     25  N   UNL     1       2.358  15.239  19.181  0.00  0.00    +0.000 NA
ATOM     26  C   UNL     1       2.236  13.901  19.017  0.00  0.00    +0.000 A 
ENDBRANCH   3  21
TORSDOF 2
ENDMDL
MODEL 2
REMARK VINA RESULT:      -7.3      1.310      2.086
REMARK  Name = 
REMARK  2 active torsions:
REMARK  status: ('A' for Active; 'I' for Inactive)
REMARK    1  A    between atoms: N_3  and  C_4
REMARK    2  A    between atoms: N_13  and  C_14
REMARK                            x       y       z     vdW  Elec       q    Type
REMARK                         _______ _______ _______ _____ _____    ______ ____
ROOT
ATOM      1  O   UNL     1       0.714  11.073  20.674  0.00  0.00    +0.000 OA
ATOM      2  C   UNL     1       0.938  10.781  19.504  0.00  0.00    +0.000 C 
ATOM      3  N   UNL     1       1.057  11.703  18.488  0.00  0.00    +0.000 N 
ATOM      4  N   UNL     1       1.093   9.462  19.116  0.00  0.00    +0.000 N 
ATOM      5  C   UNL     1       1.466   8.957  17.789  0.00  0.00    +0.000 C 
ATOM      6  C   UNL     1       2.729   8.082  17.842  0.00  0.00    +0.000 C 
ATOM      7  N   UNL     1       2.567   7.037  18.856  0.00  0.00    +0.000 N 
ATOM      8  C   UNL     1       2.230   7.525  20.202  0.00  0.00    +0.000 C 
ATOM      9  C   UNL     1       0.969   8.407  20.140  0.00  0.00    +0.000 C 
ATOM     10  H   UNL     1       0.937  11.362  17.552  0.00  0.00    +0.000 HD
ENDROOT
BRANCH   7  11
ATOM     11  C   UNL     1       2.758   5.694  18.559  0.00  0.00    +0.000 A 
ATOM     12  C   UNL     1       3.594   5.318  17.483  0.00  0.00    +0.000 A 
ATOM     13  C   UNL     1       3.863   3.991  17.151  0.00  0.00    +0.000 A 
ATOM     14  C   UNL     1       3.312   2.950  17.888  0.00  0.00    +0.000 A 
ATOM     15  C   UNL     1       2.476   3.293  18.952  0.00  0.00    +0.000 A 
ATOM     16  N   UNL     1       1.809   2.468  19.828  0.00  0.00    +0.000 N 
ATOM     17  C   UNL     1       1.069   3.202  20.707  0.00  0.00    +0.000 A 
ATOM     18  C   UNL     1       1.254   4.528  20.391  0.00  0.00    +0.000 A 
ATOM     19  C   UNL     1       2.180   4.616  19.297  0.00  0.00    +0.000 A 
ATOM     20  H   UNL     1       1.855   1.457  19.808  0.00  0.00    +0.000 HD
ENDBRANCH   7  11
BRANCH   3  21
ATOM     21  C   UNL     1       1.030  13.107  18.616  0.00  0.00    +0.000 A 
ATOM     22  C   UNL     1      -0.134  13.865  18.674  0.00  0.00    +0.000 A 
ATOM     23  C   UNL     1      -0.054  15.254  18.739  0.00  0.00    +0.000 A 
ATOM     24  C   UNL     1       1.200  15.841  18.770  0.00  0.00    +0.000 A 
ATOM     25  N   UNL     1       2.355  15.144  18.760  0.00  0.00    +0.000 NA
ATOM     26  C   UNL     1       2.240  13.798  18.685  0.00  0.00    +0.000 A 
ENDBRANCH   3  21
TORSDOF 2
ENDMDL
MODEL 3
REMARK VINA RESULT:      -7.2      1.790      8.603
REMARK  Name = 
REMARK  2 active torsions:
REMARK  status: ('A' for Active; 'I' for Inactive)
REMARK    1  A    between atoms: N_3  and  C_4
REMARK    2  A    between atoms: N_13  and  C_14
REMARK                            x       y       z     vdW  Elec       q    Type
REMARK                         _______ _______ _______ _____ _____    ______ ____
ROOT
ATOM      1  O   UNL     1       1.830   5.859  20.848  0.00  0.00    +0.000 OA
ATOM      2  C   UNL     1       2.135   6.469  19.828  0.00  0.00    +0.000 C 
ATOM      3  N   UNL     1       2.668   5.874  18.706  0.00  0.00    +0.000 N 
ATOM      4  N   UNL     1       1.957   7.837  19.735  0.00  0.00    +0.000 N 
ATOM      5  C   UNL     1       2.171   8.690  18.560  0.00  0.00    +0.000 C 
ATOM      6  C   UNL     1       0.903   9.470  18.178  0.00  0.00    +0.000 C 
ATOM      7  N   UNL     1       0.387  10.184  19.348  0.00  0.00    +0.000 N 
ATOM      8  C   UNL     1       0.130   9.341  20.526  0.00  0.00    +0.000 C 
ATOM      9  C   UNL     1       1.402   8.556  20.897  0.00  0.00    +0.000 C 
ATOM     10  H   UNL     1       3.154   6.475  18.064  0.00  0.00    +0.000 HD
ENDROOT
BRANCH   7  11
ATOM     11  C   UNL     1       0.130  11.549  19.319  0.00  0.00    +0.000 A 
ATOM     12  C   UNL     1      -1.132  12.041  19.719  0.00  0.00    +0.000 A 
ATOM     13  C   UNL     1      -1.449  13.398  19.753  0.00  0.00    +0.000 A 
ATOM     14  C   UNL     1      -0.508  14.354  19.392  0.00  0.00    +0.000 A 
ATOM     15  C   UNL     1       0.747  13.895  18.985  0.00  0.00    +0.000 A 
ATOM     16  N   UNL     1       1.843  14.621  18.578  0.00  0.00    +0.000 N 
ATOM     17  C   UNL     1       2.866  13.788  18.233  0.00  0.00    +0.000 A 
ATOM     18  C   UNL     1       2.422  12.498  18.412  0.00  0.00    +0.000 A 
ATOM     19  C   UNL     1       1.084  12.539  18.929  0.00  0.00    +0.000 A 
ATOM     20  H   UNL     1       1.873  15.631  18.531  0.00  0.00    +0.000 HD
ENDBRANCH   7  11
BRANCH   3  21
ATOM     21  C   UNL     1       2.873   4.495  18.498  0.00  0.00    +0.000 A 
ATOM     22  C   UNL     1       1.963   3.655  17.865  0.00  0.00    +0.000 A 
ATOM     23  C   UNL     1       2.233   2.293  17.763  0.00  0.00    +0.000 A 
ATOM     24  C   UNL     1       3.427   1.816  18.279  0.00  0.00    +0.000 A 
ATOM     25  N   UNL     1       4.358   2.600  18.863  0.00  0.00    +0.000 NA
ATOM     26  C   UNL     1       4.058   3.917  18.955  0.00  0.00    +0.000 A 
ENDBRANCH   3  21
TORSDOF 2
ENDMDL
MODEL 4
REMARK VINA RESULT:      -7.1      1.480      1.693
REMARK  Name = 
REMARK  2 active torsions:
REMARK  status: ('A' for Active; 'I' for Inactive)
REMARK    1  A    between atoms: N_3  and  C_4
REMARK    2  A    between atoms: N_13  and  C_14
REMARK                            x       y       z     vdW  Elec       q    Type
REMARK                         _______ _______ _______ _____ _____    ______ ____
ROOT
ATOM      1  O   UNL     1       0.580  11.490  21.068  0.00  0.00    +0.000 OA
ATOM      2  C   UNL     1       0.819  10.988  19.975  0.00  0.00    +0.000 C 
ATOM      3  N   UNL     1       1.052  11.713  18.828  0.00  0.00    +0.000 N 
ATOM      4  N   UNL     1       0.873   9.614  19.818  0.00  0.00    +0.000 N 
ATOM      5  C   UNL     1       1.247   8.864  18.613  0.00  0.00    +0.000 C 
ATOM      6  C   UNL     1       2.427   7.914  18.871  0.00  0.00    +0.000 C 
ATOM      7  N   UNL     1       2.141   7.071  20.034  0.00  0.00    +0.000 N 
ATOM      8  C   UNL     1       1.800   7.804  21.263  0.00  0.00    +0.000 C 
ATOM      9  C   UNL     1       0.623   8.761  20.995  0.00  0.00    +0.000 C 
ATOM     10  H   UNL     1       0.935  11.229  17.956  0.00  0.00    +0.000 HD
ENDROOT
BRANCH   7  11
ATOM     11  C   UNL     1       2.225   5.686  19.973  0.00  0.00    +0.000 A 
ATOM     12  C   UNL     1       1.106   4.893  20.311  0.00  0.00    +0.000 A 
ATOM     13  C   UNL     1       1.105   3.500  20.237  0.00  0.00    +0.000 A 
ATOM     14  C   UNL     1       2.232   2.813  19.806  0.00  0.00    +0.000 A 
ATOM     15  C   UNL     1       3.355   3.572  19.471  0.00  0.00    +0.000 A 
ATOM     16  N   UNL     1       4.586   3.147  19.025  0.00  0.00    +0.000 N 
ATOM     17  C   UNL     1       5.421   4.208  18.841  0.00  0.00    +0.000 A 
ATOM     18  C   UNL     1       4.722   5.343  19.182  0.00  0.00    +0.000 A 
ATOM     19  C   UNL     1       3.386   4.968  19.551  0.00  0.00    +0.000 A 
ATOM     20  H   UNL     1       4.832   2.178  18.870  0.00  0.00    +0.000 HD
ENDBRANCH   7  11
BRANCH   3  21
ATOM     21  C   UNL     1       1.141  13.116  18.720  0.00  0.00    +0.000 A 
ATOM     22  C   UNL     1       2.336  13.818  18.604  0.00  0.00    +0.000 A 
ATOM     23  C   UNL     1       2.321  15.210  18.565  0.00  0.00    +0.000 A 
ATOM     24  C   UNL     1       1.098  15.858  18.617  0.00  0.00    +0.000 A 
ATOM     25  N   UNL     1      -0.088  15.217  18.686  0.00  0.00    +0.000 NA
ATOM     26  C   UNL     1      -0.036  13.866  18.733  0.00  0.00    +0.000 A 
ENDBRANCH   3  21
TORSDOF 2
ENDMDL
MODEL 5
REMARK VINA RESULT:      -7.0      1.229      1.426
REMARK  Name = 
REMARK  2 active torsions:
REMARK  status: ('A' for Active; 'I' for Inactive)
REMARK    1  A    between atoms: N_3  and  C_4
REMARK    2  A    between atoms: N_13  and  C_14
REMARK                            x       y       z     vdW  Elec       q    Type
REMARK                         _______ _______ _______ _____ _____    ______ ____
ROOT
ATOM      1  O   UNL     1       0.851  11.528  20.835  0.00  0.00    +0.000 OA
ATOM      2  C   UNL     1       1.102  11.050  19.733  0.00  0.00    +0.000 C 
ATOM      3  N   UNL     1       1.450  11.798  18.631  0.00  0.00    +0.000 N 
ATOM      4  N   UNL     1       1.052   9.684  19.520  0.00  0.00    +0.000 N 
ATOM      5  C   UNL     1       1.424   8.954  18.302  0.00  0.00    +0.000 C 
ATOM      6  C   UNL     1       2.508   7.899  18.573  0.00  0.00    +0.000 C 
ATOM      7  N   UNL     1       2.097   7.038  19.684  0.00  0.00    +0.000 N 
ATOM      8  C   UNL     1       1.756   7.748  20.927  0.00  0.00    +0.000 C 
ATOM      9  C   UNL     1       0.676   8.809  20.646  0.00  0.00    +0.000 C 
ATOM     10  H   UNL     1       1.338  11.361  17.734  0.00  0.00    +0.000 HD
ENDROOT
BRANCH   7  11
ATOM     11  C   UNL     1       2.072   5.654  19.567  0.00  0.00    +0.000 A 
ATOM     12  C   UNL     1       1.257   4.886  20.428  0.00  0.00    +0.000 A 
ATOM     13  C   UNL     1       1.151   3.498  20.344  0.00  0.00    +0.000 A 
ATOM     14  C   UNL     1       1.855   2.790  19.378  0.00  0.00    +0.000 A 
ATOM     15  C   UNL     1       2.673   3.525  18.518  0.00  0.00    +0.000 A 
ATOM     16  N   UNL     1       3.470   3.077  17.489  0.00  0.00    +0.000 N 
ATOM     17  C   UNL     1       4.136   4.117  16.912  0.00  0.00    +0.000 A 
ATOM     18  C   UNL     1       3.771   5.260  17.584  0.00  0.00    +0.000 A 
ATOM     19  C   UNL     1       2.808   4.915  18.590  0.00  0.00    +0.000 A 
ATOM     20  H   UNL     1       3.553   2.107  17.213  0.00  0.00    +0.000 HD
ENDBRANCH   7  11
BRANCH   3  21
ATOM     21  C   UNL     1       1.658  13.192  18.588  0.00  0.00    +0.000 A 
ATOM     22  C   UNL     1       0.663  14.139  18.802  0.00  0.00    +0.000 A 
ATOM     23  C   UNL     1       0.958  15.494  18.677  0.00  0.00    +0.000 A 
ATOM     24  C   UNL     1       2.257  15.861  18.366  0.00  0.00    +0.000 A 
ATOM     25  N   UNL     1       3.264  14.979  18.193  0.00  0.00    +0.000 NA
ATOM     26  C   UNL     1       2.939  13.671  18.310  0.00  0.00    +0.000 A 
ENDBRANCH   3  21
TORSDOF 2
ENDMDL
MODEL 6
REMARK VINA RESULT:      -7.0      3.446      4.208
REMARK  Name = 
REMARK  2 active torsions:
REMARK  status: ('A' for Active; 'I' for Inactive)
REMARK    1  A    between atoms: N_3  and  C_4
REMARK    2  A    between atoms: N_13  and  C_14
REMARK                            x       y       z     vdW  Elec       q    Type
REMARK                         _______ _______ _______ _____ _____    ______ ____
ROOT
ATOM      1  O   UNL     1      -0.740  12.716  20.391  0.00  0.00    +0.000 OA
ATOM      2  C   UNL     1      -0.290  11.892  21.181  0.00  0.00    +0.000 C 
ATOM      3  N   UNL     1      -0.651  11.819  22.508  0.00  0.00    +0.000 N 
ATOM      4  N   UNL     1       0.639  10.950  20.776  0.00  0.00    +0.000 N 
ATOM      5  C   UNL     1       1.190   9.840  21.563  0.00  0.00    +0.000 C 
ATOM      6  C   UNL     1       0.948   8.481  20.887  0.00  0.00    +0.000 C 
ATOM      7  N   UNL     1       1.421   8.524  19.502  0.00  0.00    +0.000 N 
ATOM      8  C   UNL     1       0.852   9.606  18.685  0.00  0.00    +0.000 C 
ATOM      9  C   UNL     1       1.090  10.964  19.372  0.00  0.00    +0.000 C 
ATOM     10  H   UNL     1      -0.023  11.331  23.121  0.00  0.00    +0.000 HD
ENDROOT
BRANCH   7  11
ATOM     11  C   UNL     1       2.312   7.582  19.004  0.00  0.00    +0.000 A 
ATOM     12  C   UNL     1       3.146   7.906  17.910  0.00  0.00    +0.000 A 
ATOM     13  C   UNL     1       4.090   7.027  17.381  0.00  0.00    +0.000 A 
ATOM     14  C   UNL     1       4.264   5.762  17.927  0.00  0.00    +0.000 A 
ATOM     15  C   UNL     1       3.448   5.413  19.006  0.00  0.00    +0.000 A 
ATOM     16  N   UNL     1       3.414   4.237  19.719  0.00  0.00    +0.000 N 
ATOM     17  C   UNL     1       2.447   4.288  20.679  0.00  0.00    +0.000 A 
ATOM     18  C   UNL     1       1.837   5.518  20.581  0.00  0.00    +0.000 A 
ATOM     19  C   UNL     1       2.484   6.271  19.545  0.00  0.00    +0.000 A 
ATOM     20  H   UNL     1       4.017   3.444  19.542  0.00  0.00    +0.000 HD
ENDBRANCH   7  11
BRANCH   3  21
ATOM     21  C   UNL     1      -1.632  12.595  23.159  0.00  0.00    +0.000 A 
ATOM     22  C   UNL     1      -2.919  12.151  23.442  0.00  0.00    +0.000 A 
ATOM     23  C   UNL     1      -3.835  13.017  24.035  0.00  0.00    +0.000 A 
ATOM     24  C   UNL     1      -3.421  14.300  24.352  0.00  0.00    +0.000 A 
ATOM     25  N   UNL     1      -2.170  14.759  24.136  0.00  0.00    +0.000 NA
ATOM     26  C   UNL     1      -1.310  13.895  23.548  0.00  0.00    +0.000 A 
ENDBRANCH   3  21
TORSDOF 2
ENDMDL
MODEL 7
REMARK VINA RESULT:      -7.0      1.997      8.996
REMARK  Name = 
REMARK  2 active torsions:
REMARK  status: ('A' for Active; 'I' for Inactive)
REMARK    1  A    between atoms: N_3  and  C_4
REMARK    2  A    between atoms: N_13  and  C_14
REMARK                            x       y       z     vdW  Elec       q    Type
REMARK                         _______ _______ _______ _____ _____    ______ ____
ROOT
ATOM      1  O   UNL     1       1.700   5.944  20.871  0.00  0.00    +0.000 OA
ATOM      2  C   UNL     1       2.052   6.507  19.839  0.00  0.00    +0.000 C 
ATOM      3  N   UNL     1       2.537   5.851  18.730  0.00  0.00    +0.000 N 
ATOM      4  N   UNL     1       1.979   7.883  19.718  0.00  0.00    +0.000 N 
ATOM      5  C   UNL     1       2.258   8.693  18.525  0.00  0.00    +0.000 C 
ATOM      6  C   UNL     1       1.053   9.560  18.125  0.00  0.00    +0.000 C 
ATOM      7  N   UNL     1       0.594  10.335  19.280  0.00  0.00    +0.000 N 
ATOM      8  C   UNL     1       0.273   9.539  20.474  0.00  0.00    +0.000 C 
ATOM      9  C   UNL     1       1.481   8.666  20.864  0.00  0.00    +0.000 C 
ATOM     10  H   UNL     1       3.068   6.399  18.077  0.00  0.00    +0.000 HD
ENDROOT
BRANCH   7  11
ATOM     11  C   UNL     1       0.443  11.714  19.222  0.00  0.00    +0.000 A 
ATOM     12  C   UNL     1       1.484  12.519  18.707  0.00  0.00    +0.000 A 
ATOM     13  C   UNL     1       1.390  13.905  18.582  0.00  0.00    +0.000 A 
ATOM     14  C   UNL     1       0.232  14.573  18.961  0.00  0.00    +0.000 A 
ATOM     15  C   UNL     1      -0.810  13.802  19.480  0.00  0.00    +0.000 A 
ATOM     16  N   UNL     1      -2.047  14.209  19.928  0.00  0.00    +0.000 N 
ATOM     17  C   UNL     1      -2.763  13.143  20.387  0.00  0.00    +0.000 A 
ATOM     18  C   UNL     1      -1.973  12.026  20.242  0.00  0.00    +0.000 A 
ATOM     19  C   UNL     1      -0.735  12.413  19.628  0.00  0.00    +0.000 A 
ATOM     20  H   UNL     1      -2.367  15.168  19.925  0.00  0.00    +0.000 HD
ENDBRANCH   7  11
BRANCH   3  21
ATOM     21  C   UNL     1       2.636   4.456  18.551  0.00  0.00    +0.000 A 
ATOM     22  C   UNL     1       1.553   3.621  18.296  0.00  0.00    +0.000 A 
ATOM     23  C   UNL     1       1.747   2.246  18.195  0.00  0.00    +0.000 A 
ATOM     24  C   UNL     1       3.034   1.750  18.328  0.00  0.00    +0.000 A 
ATOM     25  N   UNL     1       4.119   2.525  18.532  0.00  0.00    +0.000 NA
ATOM     26  C   UNL     1       3.892   3.856  18.636  0.00  0.00    +0.000 A 
ENDBRANCH   3  21
TORSDOF 2
ENDMDL
MODEL 8
REMARK VINA RESULT:      -7.0      1.816      8.663
REMARK  Name = 
REMARK  2 active torsions:
REMARK  status: ('A' for Active; 'I' for Inactive)
REMARK    1  A    between atoms: N_3  and  C_4
REMARK    2  A    between atoms: N_13  and  C_14
REMARK                            x       y       z     vdW  Elec       q    Type
REMARK                         _______ _______ _______ _____ _____    ______ ____
ROOT
ATOM      1  O   UNL     1       1.840   6.085  20.720  0.00  0.00    +0.000 OA
ATOM      2  C   UNL     1       2.050   6.691  19.675  0.00  0.00    +0.000 C 
ATOM      3  N   UNL     1       2.457   6.091  18.505  0.00  0.00    +0.000 N 
ATOM      4  N   UNL     1       1.886   8.063  19.601  0.00  0.00    +0.000 N 
ATOM      5  C   UNL     1       1.993   8.915  18.410  0.00  0.00    +0.000 C 
ATOM      6  C   UNL     1       0.706   9.715  18.159  0.00  0.00    +0.000 C 
ATOM      7  N   UNL     1       0.323  10.435  19.375  0.00  0.00    +0.000 N 
ATOM      8  C   UNL     1       0.173   9.594  20.573  0.00  0.00    +0.000 C 
ATOM      9  C   UNL     1       1.463   8.789  20.813  0.00  0.00    +0.000 C 
ATOM     10  H   UNL     1       2.884   6.684  17.817  0.00  0.00    +0.000 HD
ENDROOT
BRANCH   7  11
ATOM     11  C   UNL     1       0.087  11.804  19.372  0.00  0.00    +0.000 A 
ATOM     12  C   UNL     1      -1.154  12.310  19.821  0.00  0.00    +0.000 A 
ATOM     13  C   UNL     1      -1.448  13.671  19.883  0.00  0.00    +0.000 A 
ATOM     14  C   UNL     1      -0.505  14.618  19.503  0.00  0.00    +0.000 A 
ATOM     15  C   UNL     1       0.728  14.145  19.049  0.00  0.00    +0.000 A 
ATOM     16  N   UNL     1       1.822  14.859  18.616  0.00  0.00    +0.000 N 
ATOM     17  C   UNL     1       2.820  14.016  18.226  0.00  0.00    +0.000 A 
ATOM     18  C   UNL     1       2.362  12.731  18.403  0.00  0.00    +0.000 A 
ATOM     19  C   UNL     1       1.042  12.785  18.964  0.00  0.00    +0.000 A 
ATOM     20  H   UNL     1       1.866  15.869  18.581  0.00  0.00    +0.000 HD
ENDBRANCH   7  11
BRANCH   3  21
ATOM     21  C   UNL     1       2.617   4.709  18.277  0.00  0.00    +0.000 A 
ATOM     22  C   UNL     1       3.847   4.078  18.120  0.00  0.00    +0.000 A 
ATOM     23  C   UNL     1       3.896   2.716  17.838  0.00  0.00    +0.000 A 
ATOM     24  C   UNL     1       2.703   2.017  17.748  0.00  0.00    +0.000 A 
ATOM     25  N   UNL     1       1.490   2.578  17.935  0.00  0.00    +0.000 NA
ATOM     26  C   UNL     1       1.479   3.906  18.197  0.00  0.00    +0.000 A 
ENDBRANCH   3  21
TORSDOF 2
ENDMDL
MODEL 9
REMARK VINA RESULT:      -6.9      3.422      4.265
REMARK  Name = 
REMARK  2 active torsions:
REMARK  status: ('A' for Active; 'I' for Inactive)
REMARK    1  A    between atoms: N_3  and  C_4
REMARK    2  A    between atoms: N_13  and  C_14
REMARK                            x       y       z     vdW  Elec       q    Type
REMARK                         _______ _______ _______ _____ _____    ______ ____
ROOT
ATOM      1  O   UNL     1      -0.766  12.559  20.289  0.00  0.00    +0.000 OA
ATOM      2  C   UNL     1      -0.274  11.767  21.086  0.00  0.00    +0.000 C 
ATOM      3  N   UNL     1      -0.601  11.716  22.423  0.00  0.00    +0.000 N 
ATOM      4  N   UNL     1       0.672  10.843  20.681  0.00  0.00    +0.000 N 
ATOM      5  C   UNL     1       1.273   9.768  21.480  0.00  0.00    +0.000 C 
ATOM      6  C   UNL     1       1.054   8.387  20.842  0.00  0.00    +0.000 C 
ATOM      7  N   UNL     1       1.492   8.409  19.445  0.00  0.00    +0.000 N 
ATOM      8  C   UNL     1       0.873   9.456  18.616  0.00  0.00    +0.000 C 
ATOM      9  C   UNL     1       1.089  10.835  19.266  0.00  0.00    +0.000 C 
ATOM     10  H   UNL     1       0.055  11.261  23.031  0.00  0.00    +0.000 HD
ENDROOT
BRANCH   7  11
ATOM     11  C   UNL     1       2.398   7.481  18.947  0.00  0.00    +0.000 A 
ATOM     12  C   UNL     1       3.233   7.821  17.858  0.00  0.00    +0.000 A 
ATOM     13  C   UNL     1       4.191   6.956  17.330  0.00  0.00    +0.000 A 
ATOM     14  C   UNL     1       4.379   5.691  17.872  0.00  0.00    +0.000 A 
ATOM     15  C   UNL     1       3.562   5.327  18.945  0.00  0.00    +0.000 A 
ATOM     16  N   UNL     1       3.539   4.147  19.653  0.00  0.00    +0.000 N 
ATOM     17  C   UNL     1       2.567   4.182  20.608  0.00  0.00    +0.000 A 
ATOM     18  C   UNL     1       1.942   5.404  20.512  0.00  0.00    +0.000 A 
ATOM     19  C   UNL     1       2.584   6.170  19.483  0.00  0.00    +0.000 A 
ATOM     20  H   UNL     1       4.153   3.363  19.475  0.00  0.00    +0.000 HD
ENDBRANCH   7  11
BRANCH   3  21
ATOM     21  C   UNL     1      -1.588  12.479  23.079  0.00  0.00    +0.000 A 
ATOM     22  C   UNL     1      -1.418  13.800  23.481  0.00  0.00    +0.000 A 
ATOM     23  C   UNL     1      -2.435  14.448  24.179  0.00  0.00    +0.000 A 
ATOM     24  C   UNL     1      -3.608  13.755  24.430  0.00  0.00    +0.000 A 
ATOM     25  N   UNL     1      -3.833  12.488  24.022  0.00  0.00    +0.000 NA
ATOM     26  C   UNL     1      -2.820  11.886  23.357  0.00  0.00    +0.000 A 
ENDBRANCH   3  21
TORSDOF 2
ENDMDL
