MODEL 1
REMARK VINA RESULT:      -7.2      0.000      0.000
REMARK  Name = 
REMARK  7 active torsions:
REMARK  status: ('A' for Active; 'I' for Inactive)
REMARK    1  A    between atoms: C_1  and  C_2
REMARK    2  A    between atoms: C_7  and  C_8
REMARK    3  A    between atoms: C_12  and  C_13
REMARK    4  A    between atoms: C_17  and  C_19
REMARK    5  A    between atoms: C_19  and  N_20
REMARK    6  A    between atoms: N_20  and  C_21
REMARK    7  A    between atoms: N_20  and  C_22
REMARK                            x       y       z     vdW  Elec       q    Type
REMARK                         _______ _______ _______ _____ _____    ______ ____
ROOT
ATOM      1  C   UNL     1       2.117   6.481  19.818  0.00  0.00    +0.000 A 
ATOM      2  C   UNL     1       1.233   5.655  20.508  0.00  0.00    +0.000 A 
ATOM      3  N   UNL     1       1.514   4.374  20.846  0.00  0.00    +0.000 NA
ATOM      4  C   UNL     1       2.731   3.936  20.461  0.00  0.00    +0.000 A 
ATOM      5  C   UNL     1       3.658   4.731  19.792  0.00  0.00    +0.000 A 
ATOM      6  N   UNL     1       3.341   6.006  19.465  0.00  0.00    +0.000 NA
ENDROOT
BRANCH   5   7
ATOM      7  C   UNL     1       5.007   4.209  19.329  0.00  0.00    +0.000 C 
ATOM      8  C   UNL     1       5.951   5.307  18.797  0.00  0.00    +0.000 C 
ATOM      9  C   UNL     1       5.503   5.825  17.433  0.00  0.00    +0.000 C 
ATOM     10  N   UNL     1       5.389   4.722  16.489  0.00  0.00    +0.000 N 
ATOM     11  C   UNL     1       5.988   4.839  15.242  0.00  0.00    +0.000 C 
ATOM     12  O   UNL     1       6.594   5.861  14.903  0.00  0.00    +0.000 OA
ATOM     13  C   UNL     1       4.476   3.653  16.894  0.00  0.00    +0.000 C 
ATOM     14  C   UNL     1       4.892   3.098  18.257  0.00  0.00    +0.000 C 
BRANCH  11  15
ATOM     15  C   UNL     1       5.931   3.641  14.282  0.00  0.00    +0.000 C 
BRANCH  15  16
ATOM     16  N   UNL     1       5.824   4.063  12.867  0.00  0.00    +0.000 NA
ATOM     17  C   UNL     1       7.109   3.907  12.173  0.00  0.00    +0.000 C 
ATOM     18  C   UNL     1       4.810   3.243  12.198  0.00  0.00    +0.000 C 
ENDBRANCH  15  16
ENDBRANCH  11  15
ENDBRANCH   5   7
BRANCH   1  25
ATOM     19  C   UNL     1       0.985   8.465  21.836  0.00  0.00    +0.000 C 
ATOM     20  C   UNL     1       1.261   8.815  20.397  0.00  0.00    +0.000 A 
ATOM     21  C   UNL     1       0.957  10.126  19.978  0.00  0.00    +0.000 A 
ATOM     22  C   UNL     1       1.222  10.545  18.679  0.00  0.00    +0.000 A 
ATOM     23  C   UNL     1       1.791   9.661  17.774  0.00  0.00    +0.000 A 
ATOM     24  C   UNL     1       2.075   8.354  18.164  0.00  0.00    +0.000 A 
ATOM     25  C   UNL     1       1.818   7.890  19.471  0.00  0.00    +0.000 A 
ENDBRANCH   1  25
TORSDOF 4
ENDMDL
MODEL 2
REMARK VINA RESULT:      -7.1      1.752      3.048
REMARK  Name = 
REMARK  7 active torsions:
REMARK  status: ('A' for Active; 'I' for Inactive)
REMARK    1  A    between atoms: C_1  and  C_2
REMARK    2  A    between atoms: C_7  and  C_8
REMARK    3  A    between atoms: C_12  and  C_13
REMARK    4  A    between atoms: C_17  and  C_19
REMARK    5  A    between atoms: C_19  and  N_20
REMARK    6  A    between atoms: N_20  and  C_21
REMARK    7  A    between atoms: N_20  and  C_22
REMARK                            x       y       z     vdW  Elec       q    Type
REMARK                         _______ _______ _______ _____ _____    ______ ____
ROOT
ATOM      1  C   UNL     1       1.505   8.757  19.675  0.00  0.00    +0.000 A 
ATOM      2  C   UNL     1       1.748   9.481  18.511  0.00  0.00    +0.000 A 
ATOM      3  N   UNL     1       2.432   8.986  17.452  0.00  0.00    +0.000 NA
ATOM      4  C   UNL     1       2.876   7.721  17.598  0.00  0.00    +0.000 A 
ATOM      5  C   UNL     1       2.636   6.949  18.732  0.00  0.00    +0.000 A 
ATOM      6  N   UNL     1       1.953   7.478  19.775  0.00  0.00    +0.000 NA
ENDROOT
BRANCH   5   7
ATOM      7  C   UNL     1       3.178   5.540  18.899  0.00  0.00    +0.000 C 
ATOM      8  C   UNL     1       4.627   5.488  19.425  0.00  0.00    +0.000 C 
ATOM      9  C   UNL     1       5.631   5.921  18.360  0.00  0.00    +0.000 C 
ATOM     10  N   UNL     1       5.473   5.108  17.162  0.00  0.00    +0.000 N 
ATOM     11  C   UNL     1       6.599   4.533  16.586  0.00  0.00    +0.000 C 
ATOM     12  O   UNL     1       7.731   4.709  17.049  0.00  0.00    +0.000 OA
ATOM     13  C   UNL     1       4.137   5.135  16.567  0.00  0.00    +0.000 C 
ATOM     14  C   UNL     1       3.096   4.701  17.600  0.00  0.00    +0.000 C 
BRANCH  11  15
ATOM     15  C   UNL     1       6.416   3.613  15.370  0.00  0.00    +0.000 C 
BRANCH  15  16
ATOM     16  N   UNL     1       6.284   4.375  14.108  0.00  0.00    +0.000 NA
ATOM     17  C   UNL     1       7.521   5.105  13.802  0.00  0.00    +0.000 C 
ATOM     18  C   UNL     1       5.990   3.445  13.015  0.00  0.00    +0.000 C 
ENDBRANCH  15  16
ENDBRANCH  11  15
ENDBRANCH   5   7
BRANCH   1  25
ATOM     19  C   UNL     1      -0.847  10.665  19.331  0.00  0.00    +0.000 C 
ATOM     20  C   UNL     1      -0.345  10.205  20.674  0.00  0.00    +0.000 A 
ATOM     21  C   UNL     1      -0.997  10.708  21.818  0.00  0.00    +0.000 A 
ATOM     22  C   UNL     1      -0.625  10.300  23.095  0.00  0.00    +0.000 A 
ATOM     23  C   UNL     1       0.406   9.387  23.252  0.00  0.00    +0.000 A 
ATOM     24  C   UNL     1       1.079   8.899  22.134  0.00  0.00    +0.000 A 
ATOM     25  C   UNL     1       0.735   9.291  20.822  0.00  0.00    +0.000 A 
ENDBRANCH   1  25
TORSDOF 4
ENDMDL
MODEL 3
REMARK VINA RESULT:      -7.1      0.654      1.535
REMARK  Name = 
REMARK  7 active torsions:
REMARK  status: ('A' for Active; 'I' for Inactive)
REMARK    1  A    between atoms: C_1  and  C_2
REMARK    2  A    between atoms: C_7  and  C_8
REMARK    3  A    between atoms: C_12  and  C_13
REMARK    4  A    between atoms: C_17  and  C_19
REMARK    5  A    between atoms: C_19  and  N_20
REMARK    6  A    between atoms: N_20  and  C_21
REMARK    7  A    between atoms: N_20  and  C_22
REMARK                            x       y       z     vdW  Elec       q    Type
REMARK                         _______ _______ _______ _____ _____    ______ ____
ROOT
ATOM      1  C   UNL     1       2.056   6.432  20.110  0.00  0.00    +0.000 A 
ATOM      2  C   UNL     1       1.265   5.326  20.406  0.00  0.00    +0.000 A 
ATOM      3  N   UNL     1       1.696   4.046  20.297  0.00  0.00    +0.000 NA
ATOM      4  C   UNL     1       2.969   3.907  19.873  0.00  0.00    +0.000 A 
ATOM      5  C   UNL     1       3.807   4.982  19.590  0.00  0.00    +0.000 A 
ATOM      6  N   UNL     1       3.340   6.248  19.703  0.00  0.00    +0.000 NA
ENDROOT
BRANCH   5   7
ATOM      7  C   UNL     1       5.224   4.807  19.073  0.00  0.00    +0.000 C 
ATOM      8  C   UNL     1       5.754   6.021  18.282  0.00  0.00    +0.000 C 
ATOM      9  C   UNL     1       5.096   6.133  16.910  0.00  0.00    +0.000 C 
ATOM     10  N   UNL     1       5.277   4.895  16.164  0.00  0.00    +0.000 N 
ATOM     11  C   UNL     1       5.743   4.960  14.857  0.00  0.00    +0.000 C 
ATOM     12  O   UNL     1       5.986   6.037  14.304  0.00  0.00    +0.000 OA
ATOM     13  C   UNL     1       4.760   3.695  16.822  0.00  0.00    +0.000 C 
ATOM     14  C   UNL     1       5.399   3.539  18.202  0.00  0.00    +0.000 C 
BRANCH  11  15
ATOM     15  C   UNL     1       6.006   3.648  14.104  0.00  0.00    +0.000 C 
BRANCH  15  16
ATOM     16  N   UNL     1       5.951   3.825  12.635  0.00  0.00    +0.000 NA
ATOM     17  C   UNL     1       6.984   3.021  11.969  0.00  0.00    +0.000 C 
ATOM     18  C   UNL     1       4.631   3.412  12.152  0.00  0.00    +0.000 C 
ENDBRANCH  15  16
ENDBRANCH  11  15
ENDBRANCH   5   7
BRANCH   1  25
ATOM     19  C   UNL     1       2.029   8.402  17.784  0.00  0.00    +0.000 C 
ATOM     20  C   UNL     1       1.603   8.766  19.182  0.00  0.00    +0.000 A 
ATOM     21  C   UNL     1       1.192  10.095  19.409  0.00  0.00    +0.000 A 
ATOM     22  C   UNL     1       0.740  10.504  20.660  0.00  0.00    +0.000 A 
ATOM     23  C   UNL     1       0.696   9.595  21.706  0.00  0.00    +0.000 A 
ATOM     24  C   UNL     1       1.123   8.283  21.506  0.00  0.00    +0.000 A 
ATOM     25  C   UNL     1       1.591   7.831  20.254  0.00  0.00    +0.000 A 
ENDBRANCH   1  25
TORSDOF 4
ENDMDL
MODEL 4
REMARK VINA RESULT:      -6.8      4.575      8.678
REMARK  Name = 
REMARK  7 active torsions:
REMARK  status: ('A' for Active; 'I' for Inactive)
REMARK    1  A    between atoms: C_1  and  C_2
REMARK    2  A    between atoms: C_7  and  C_8
REMARK    3  A    between atoms: C_12  and  C_13
REMARK    4  A    between atoms: C_17  and  C_19
REMARK    5  A    between atoms: C_19  and  N_20
REMARK    6  A    between atoms: N_20  and  C_21
REMARK    7  A    between atoms: N_20  and  C_22
REMARK                            x       y       z     vdW  Elec       q    Type
REMARK                         _______ _______ _______ _____ _____    ______ ____
ROOT
ATOM      1  C   UNL     1       2.475   6.875  19.069  0.00  0.00    +0.000 A 
ATOM      2  C   UNL     1       2.130   6.566  20.382  0.00  0.00    +0.000 A 
ATOM      3  N   UNL     1       1.470   7.417  21.202  0.00  0.00    +0.000 NA
ATOM      4  C   UNL     1       1.163   8.613  20.657  0.00  0.00    +0.000 A 
ATOM      5  C   UNL     1       1.464   8.958  19.343  0.00  0.00    +0.000 A 
ATOM      6  N   UNL     1       2.131   8.084  18.552  0.00  0.00    +0.000 NA
ENDROOT
BRANCH   5   7
ATOM      7  C   UNL     1       1.149  10.324  18.758  0.00  0.00    +0.000 C 
ATOM      8  C   UNL     1       0.655  11.350  19.798  0.00  0.00    +0.000 C 
ATOM      9  C   UNL     1      -0.766  11.044  20.264  0.00  0.00    +0.000 C 
ATOM     10  N   UNL     1      -1.665  10.975  19.119  0.00  0.00    +0.000 N 
ATOM     11  C   UNL     1      -2.857  11.686  19.157  0.00  0.00    +0.000 C 
ATOM     12  O   UNL     1      -3.186  12.356  20.142  0.00  0.00    +0.000 OA
ATOM     13  C   UNL     1      -1.296   9.992  18.101  0.00  0.00    +0.000 C 
ATOM     14  C   UNL     1       0.123  10.265  17.600  0.00  0.00    +0.000 C 
BRANCH  11  15
ATOM     15  C   UNL     1      -3.762  11.673  17.917  0.00  0.00    +0.000 C 
BRANCH  15  16
ATOM     16  N   UNL     1      -5.188  11.868  18.263  0.00  0.00    +0.000 NA
ATOM     17  C   UNL     1      -5.914  12.510  17.160  0.00  0.00    +0.000 C 
ATOM     18  C   UNL     1      -5.795  10.565  18.547  0.00  0.00    +0.000 C 
ENDBRANCH  15  16
ENDBRANCH  11  15
ENDBRANCH   5   7
BRANCH   1  25
ATOM     19  C   UNL     1       1.406   4.089  18.451  0.00  0.00    +0.000 C 
ATOM     20  C   UNL     1       2.700   4.620  17.894  0.00  0.00    +0.000 A 
ATOM     21  C   UNL     1       3.448   3.763  17.062  0.00  0.00    +0.000 A 
ATOM     22  C   UNL     1       4.632   4.190  16.470  0.00  0.00    +0.000 A 
ATOM     23  C   UNL     1       5.092   5.478  16.702  0.00  0.00    +0.000 A 
ATOM     24  C   UNL     1       4.378   6.330  17.543  0.00  0.00    +0.000 A 
ATOM     25  C   UNL     1       3.175   5.933  18.165  0.00  0.00    +0.000 A 
ENDBRANCH   1  25
TORSDOF 4
ENDMDL
MODEL 5
REMARK VINA RESULT:      -6.8      4.318      9.131
REMARK  Name = 
REMARK  7 active torsions:
REMARK  status: ('A' for Active; 'I' for Inactive)
REMARK    1  A    between atoms: C_1  and  C_2
REMARK    2  A    between atoms: C_7  and  C_8
REMARK    3  A    between atoms: C_12  and  C_13
REMARK    4  A    between atoms: C_17  and  C_19
REMARK    5  A    between atoms: C_19  and  N_20
REMARK    6  A    between atoms: N_20  and  C_21
REMARK    7  A    between atoms: N_20  and  C_22
REMARK                            x       y       z     vdW  Elec       q    Type
REMARK                         _______ _______ _______ _____ _____    ______ ____
ROOT
ATOM      1  C   UNL     1       2.652   7.023  18.730  0.00  0.00    +0.000 A 
ATOM      2  C   UNL     1       2.372   6.778  20.072  0.00  0.00    +0.000 A 
ATOM      3  N   UNL     1       1.631   7.607  20.845  0.00  0.00    +0.000 NA
ATOM      4  C   UNL     1       1.171   8.711  20.221  0.00  0.00    +0.000 A 
ATOM      5  C   UNL     1       1.403   8.987  18.876  0.00  0.00    +0.000 A 
ATOM      6  N   UNL     1       2.155   8.139  18.134  0.00  0.00    +0.000 NA
ENDROOT
BRANCH   5   7
ATOM      7  C   UNL     1       0.914  10.256  18.199  0.00  0.00    +0.000 C 
ATOM      8  C   UNL     1       1.618  11.536  18.692  0.00  0.00    +0.000 C 
ATOM      9  C   UNL     1       1.169  11.923  20.099  0.00  0.00    +0.000 C 
ATOM     10  N   UNL     1      -0.280  12.064  20.143  0.00  0.00    +0.000 N 
ATOM     11  C   UNL     1      -0.827  13.204  20.717  0.00  0.00    +0.000 C 
ATOM     12  O   UNL     1      -0.120  14.089  21.212  0.00  0.00    +0.000 OA
ATOM     13  C   UNL     1      -1.030  10.877  19.733  0.00  0.00    +0.000 C 
ATOM     14  C   UNL     1      -0.616  10.457  18.322  0.00  0.00    +0.000 C 
BRANCH  11  15
ATOM     15  C   UNL     1      -2.352  13.383  20.689  0.00  0.00    +0.000 C 
BRANCH  15  16
ATOM     16  N   UNL     1      -2.916  13.597  22.040  0.00  0.00    +0.000 NA
ATOM     17  C   UNL     1      -4.316  14.033  21.965  0.00  0.00    +0.000 C 
ATOM     18  C   UNL     1      -2.840  12.343  22.795  0.00  0.00    +0.000 C 
ENDBRANCH  15  16
ENDBRANCH  11  15
ENDBRANCH   5   7
BRANCH   1  25
ATOM     19  C   UNL     1       1.730   4.195  18.069  0.00  0.00    +0.000 C 
ATOM     20  C   UNL     1       3.036   4.772  17.590  0.00  0.00    +0.000 A 
ATOM     21  C   UNL     1       3.867   3.940  16.813  0.00  0.00    +0.000 A 
ATOM     22  C   UNL     1       5.069   4.408  16.293  0.00  0.00    +0.000 A 
ATOM     23  C   UNL     1       5.464   5.714  16.544  0.00  0.00    +0.000 A 
ATOM     24  C   UNL     1       4.667   6.543  17.331  0.00  0.00    +0.000 A 
ATOM     25  C   UNL     1       3.443   6.104  17.879  0.00  0.00    +0.000 A 
ENDBRANCH   1  25
TORSDOF 4
ENDMDL
MODEL 6
REMARK VINA RESULT:      -6.7      3.961      7.883
REMARK  Name = 
REMARK  7 active torsions:
REMARK  status: ('A' for Active; 'I' for Inactive)
REMARK    1  A    between atoms: C_1  and  C_2
REMARK    2  A    between atoms: C_7  and  C_8
REMARK    3  A    between atoms: C_12  and  C_13
REMARK    4  A    between atoms: C_17  and  C_19
REMARK    5  A    between atoms: C_19  and  N_20
REMARK    6  A    between atoms: N_20  and  C_21
REMARK    7  A    between atoms: N_20  and  C_22
REMARK                            x       y       z     vdW  Elec       q    Type
REMARK                         _______ _______ _______ _____ _____    ______ ____
ROOT
ATOM      1  C   UNL     1       2.868   6.185  18.812  0.00  0.00    +0.000 A 
ATOM      2  C   UNL     1       2.309   5.510  19.893  0.00  0.00    +0.000 A 
ATOM      3  N   UNL     1       1.579   6.117  20.859  0.00  0.00    +0.000 NA
ATOM      4  C   UNL     1       1.426   7.449  20.707  0.00  0.00    +0.000 A 
ATOM      5  C   UNL     1       1.944   8.164  19.631  0.00  0.00    +0.000 A 
ATOM      6  N   UNL     1       2.674   7.525  18.686  0.00  0.00    +0.000 NA
ENDROOT
BRANCH   5   7
ATOM      7  C   UNL     1       1.799   9.670  19.496  0.00  0.00    +0.000 C 
ATOM      8  C   UNL     1       0.837  10.298  20.524  0.00  0.00    +0.000 C 
ATOM      9  C   UNL     1      -0.620   9.968  20.210  0.00  0.00    +0.000 C 
ATOM     10  N   UNL     1      -0.948  10.386  18.853  0.00  0.00    +0.000 N 
ATOM     11  C   UNL     1      -2.097  11.136  18.639  0.00  0.00    +0.000 C 
ATOM     12  O   UNL     1      -2.859  11.439  19.563  0.00  0.00    +0.000 OA
ATOM     13  C   UNL     1      -0.110   9.800  17.806  0.00  0.00    +0.000 C 
ATOM     14  C   UNL     1       1.362  10.112  18.078  0.00  0.00    +0.000 C 
BRANCH  11  15
ATOM     15  C   UNL     1      -2.394  11.640  17.219  0.00  0.00    +0.000 C 
BRANCH  15  16
ATOM     16  N   UNL     1      -3.478  10.871  16.568  0.00  0.00    +0.000 NA
ATOM     17  C   UNL     1      -4.754  11.594  16.641  0.00  0.00    +0.000 C 
ATOM     18  C   UNL     1      -3.130  10.646  15.163  0.00  0.00    +0.000 C 
ENDBRANCH  15  16
ENDBRANCH  11  15
ENDBRANCH   5   7
BRANCH   1  25
ATOM     19  C   UNL     1       2.460   3.256  18.074  0.00  0.00    +0.000 C 
ATOM     20  C   UNL     1       3.483   4.142  17.411  0.00  0.00    +0.000 A 
ATOM     21  C   UNL     1       4.294   3.562  16.415  0.00  0.00    +0.000 A 
ATOM     22  C   UNL     1       5.233   4.320  15.723  0.00  0.00    +0.000 A 
ATOM     23  C   UNL     1       5.380   5.667  16.016  0.00  0.00    +0.000 A 
ATOM     24  C   UNL     1       4.604   6.251  17.015  0.00  0.00    +0.000 A 
ATOM     25  C   UNL     1       3.644   5.515  17.743  0.00  0.00    +0.000 A 
ENDBRANCH   1  25
TORSDOF 4
ENDMDL
MODEL 7
REMARK VINA RESULT:      -6.7      0.833      1.115
REMARK  Name = 
REMARK  7 active torsions:
REMARK  status: ('A' for Active; 'I' for Inactive)
REMARK    1  A    between atoms: C_1  and  C_2
REMARK    2  A    between atoms: C_7  and  C_8
REMARK    3  A    between atoms: C_12  and  C_13
REMARK    4  A    between atoms: C_17  and  C_19
REMARK    5  A    between atoms: C_19  and  N_20
REMARK    6  A    between atoms: N_20  and  C_21
REMARK    7  A    between atoms: N_20  and  C_22
REMARK                            x       y       z     vdW  Elec       q    Type
REMARK                         _______ _______ _______ _____ _____    ______ ____
ROOT
ATOM      1  C   UNL     1       2.191   6.206  19.903  0.00  0.00    +0.000 A 
ATOM      2  C   UNL     1       1.524   5.600  20.965  0.00  0.00    +0.000 A 
ATOM      3  N   UNL     1       1.775   4.337  21.384  0.00  0.00    +0.000 NA
ATOM      4  C   UNL     1       2.732   3.685  20.691  0.00  0.00    +0.000 A 
ATOM      5  C   UNL     1       3.444   4.256  19.640  0.00  0.00    +0.000 A 
ATOM      6  N   UNL     1       3.162   5.520  19.243  0.00  0.00    +0.000 NA
ENDROOT
BRANCH   5   7
ATOM      7  C   UNL     1       4.488   3.494  18.843  0.00  0.00    +0.000 C 
ATOM      8  C   UNL     1       5.900   4.110  18.916  0.00  0.00    +0.000 C 
ATOM      9  C   UNL     1       5.996   5.403  18.110  0.00  0.00    +0.000 C 
ATOM     10  N   UNL     1       5.592   5.165  16.730  0.00  0.00    +0.000 N 
ATOM     11  C   UNL     1       6.408   5.620  15.703  0.00  0.00    +0.000 C 
ATOM     12  O   UNL     1       7.454   6.240  15.926  0.00  0.00    +0.000 OA
ATOM     13  C   UNL     1       4.244   4.622  16.565  0.00  0.00    +0.000 C 
ATOM     14  C   UNL     1       4.104   3.319  17.353  0.00  0.00    +0.000 C 
BRANCH  11  15
ATOM     15  C   UNL     1       6.017   5.297  14.254  0.00  0.00    +0.000 C 
BRANCH  15  16
ATOM     16  N   UNL     1       6.984   4.385  13.603  0.00  0.00    +0.000 NA
ATOM     17  C   UNL     1       6.294   3.393  12.770  0.00  0.00    +0.000 C 
ATOM     18  C   UNL     1       7.895   5.170  12.765  0.00  0.00    +0.000 C 
ENDBRANCH  15  16
ENDBRANCH  11  15
ENDBRANCH   5   7
BRANCH   1  25
ATOM     19  C   UNL     1       1.034   8.329  21.758  0.00  0.00    +0.000 C 
ATOM     20  C   UNL     1       1.366   8.586  20.312  0.00  0.00    +0.000 A 
ATOM     21  C   UNL     1       1.103   9.875  19.804  0.00  0.00    +0.000 A 
ATOM     22  C   UNL     1       1.420  10.209  18.492  0.00  0.00    +0.000 A 
ATOM     23  C   UNL     1       2.000   9.262  17.662  0.00  0.00    +0.000 A 
ATOM     24  C   UNL     1       2.244   7.975  18.139  0.00  0.00    +0.000 A 
ATOM     25  C   UNL     1       1.933   7.596  19.463  0.00  0.00    +0.000 A 
ENDBRANCH   1  25
TORSDOF 4
ENDMDL
MODEL 8
REMARK VINA RESULT:      -6.6      5.807      9.603
REMARK  Name = 
REMARK  7 active torsions:
REMARK  status: ('A' for Active; 'I' for Inactive)
REMARK    1  A    between atoms: C_1  and  C_2
REMARK    2  A    between atoms: C_7  and  C_8
REMARK    3  A    between atoms: C_12  and  C_13
REMARK    4  A    between atoms: C_17  and  C_19
REMARK    5  A    between atoms: C_19  and  N_20
REMARK    6  A    between atoms: N_20  and  C_21
REMARK    7  A    between atoms: N_20  and  C_22
REMARK                            x       y       z     vdW  Elec       q    Type
REMARK                         _______ _______ _______ _____ _____    ______ ____
ROOT
ATOM      1  C   UNL     1       0.482  10.394  19.007  0.00  0.00    +0.000 A 
ATOM      2  C   UNL     1      -0.681  10.542  18.254  0.00  0.00    +0.000 A 
ATOM      3  N   UNL     1      -1.408  11.683  18.218  0.00  0.00    +0.000 NA
ATOM      4  C   UNL     1      -0.928  12.691  18.976  0.00  0.00    +0.000 A 
ATOM      5  C   UNL     1       0.242  12.600  19.724  0.00  0.00    +0.000 A 
ATOM      6  N   UNL     1       0.941  11.440  19.742  0.00  0.00    +0.000 NA
ENDROOT
BRANCH   5   7
ATOM      7  C   UNL     1       0.746  13.729  20.606  0.00  0.00    +0.000 C 
ATOM      8  C   UNL     1       0.444  15.136  20.050  0.00  0.00    +0.000 C 
ATOM      9  C   UNL     1       1.321  15.469  18.846  0.00  0.00    +0.000 C 
ATOM     10  N   UNL     1       2.728  15.328  19.196  0.00  0.00    +0.000 N 
ATOM     11  C   UNL     1       3.606  16.357  18.878  0.00  0.00    +0.000 C 
ATOM     12  O   UNL     1       3.231  17.376  18.289  0.00  0.00    +0.000 OA
ATOM     13  C   UNL     1       3.114  14.007  19.690  0.00  0.00    +0.000 C 
ATOM     14  C   UNL     1       2.262  13.634  20.905  0.00  0.00    +0.000 C 
BRANCH  11  15
ATOM     15  C   UNL     1       5.072  16.236  19.320  0.00  0.00    +0.000 C 
BRANCH  15  16
ATOM     16  N   UNL     1       5.808  17.511  19.169  0.00  0.00    +0.000 NA
ATOM     17  C   UNL     1       5.959  18.189  20.463  0.00  0.00    +0.000 C 
ATOM     18  C   UNL     1       7.134  17.236  18.610  0.00  0.00    +0.000 C 
ENDBRANCH  15  16
ENDBRANCH  11  15
ENDBRANCH   5   7
BRANCH   1  25
ATOM     19  C   UNL     1       0.473   8.461  21.364  0.00  0.00    +0.000 C 
ATOM     20  C   UNL     1       1.316   8.260  20.132  0.00  0.00    +0.000 A 
ATOM     21  C   UNL     1       2.150   7.125  20.096  0.00  0.00    +0.000 A 
ATOM     22  C   UNL     1       2.928   6.840  18.978  0.00  0.00    +0.000 A 
ATOM     23  C   UNL     1       2.891   7.687  17.880  0.00  0.00    +0.000 A 
ATOM     24  C   UNL     1       2.091   8.828  17.909  0.00  0.00    +0.000 A 
ATOM     25  C   UNL     1       1.290   9.153  19.025  0.00  0.00    +0.000 A 
ENDBRANCH   1  25
TORSDOF 4
ENDMDL
MODEL 9
REMARK VINA RESULT:      -6.6      4.867      8.962
REMARK  Name = 
REMARK  7 active torsions:
REMARK  status: ('A' for Active; 'I' for Inactive)
REMARK    1  A    between atoms: C_1  and  C_2
REMARK    2  A    between atoms: C_7  and  C_8
REMARK    3  A    between atoms: C_12  and  C_13
REMARK    4  A    between atoms: C_17  and  C_19
REMARK    5  A    between atoms: C_19  and  N_20
REMARK    6  A    between atoms: N_20  and  C_21
REMARK    7  A    between atoms: N_20  and  C_22
REMARK                            x       y       z     vdW  Elec       q    Type
REMARK                         _______ _______ _______ _____ _____    ______ ____
ROOT
ATOM      1  C   UNL     1       2.020   7.105  19.352  0.00  0.00    +0.000 A 
ATOM      2  C   UNL     1       1.926   7.119  20.741  0.00  0.00    +0.000 A 
ATOM      3  N   UNL     1       1.441   8.168  21.448  0.00  0.00    +0.000 NA
ATOM      4  C   UNL     1       1.048   9.224  20.706  0.00  0.00    +0.000 A 
ATOM      5  C   UNL     1       1.099   9.247  19.315  0.00  0.00    +0.000 A 
ATOM      6  N   UNL     1       1.595   8.183  18.641  0.00  0.00    +0.000 NA
ENDROOT
BRANCH   5   7
ATOM      7  C   UNL     1       0.691  10.460  18.496  0.00  0.00    +0.000 C 
ATOM      8  C   UNL     1       0.275  11.676  19.348  0.00  0.00    +0.000 C 
ATOM      9  C   UNL     1      -1.085  11.466  20.008  0.00  0.00    +0.000 C 
ATOM     10  N   UNL     1      -2.090  11.156  19.000  0.00  0.00    +0.000 N 
ATOM     11  C   UNL     1      -3.291  11.853  19.011  0.00  0.00    +0.000 C 
ATOM     12  O   UNL     1      -3.539  12.711  19.865  0.00  0.00    +0.000 OA
ATOM     13  C   UNL     1      -1.797   9.985  18.173  0.00  0.00    +0.000 C 
ATOM     14  C   UNL     1      -0.442  10.156  17.485  0.00  0.00    +0.000 C 
BRANCH  11  15
ATOM     15  C   UNL     1      -4.313  11.578  17.899  0.00  0.00    +0.000 C 
BRANCH  15  16
ATOM     16  N   UNL     1      -5.678  12.007  18.275  0.00  0.00    +0.000 NA
ATOM     17  C   UNL     1      -6.299  12.790  17.199  0.00  0.00    +0.000 C 
ATOM     18  C   UNL     1      -6.497  10.822  18.543  0.00  0.00    +0.000 C 
ENDBRANCH  15  16
ENDBRANCH  11  15
ENDBRANCH   5   7
BRANCH   1  25
ATOM     19  C   UNL     1       4.577   7.226  17.698  0.00  0.00    +0.000 C 
ATOM     20  C   UNL     1       3.702   6.003  17.780  0.00  0.00    +0.000 A 
ATOM     21  C   UNL     1       4.093   4.874  17.033  0.00  0.00    +0.000 A 
ATOM     22  C   UNL     1       3.367   3.689  17.088  0.00  0.00    +0.000 A 
ATOM     23  C   UNL     1       2.235   3.612  17.885  0.00  0.00    +0.000 A 
ATOM     24  C   UNL     1       1.819   4.727  18.611  0.00  0.00    +0.000 A 
ATOM     25  C   UNL     1       2.527   5.948  18.579  0.00  0.00    +0.000 A 
ENDBRANCH   1  25
TORSDOF 4
ENDMDL
