MODEL 1
REMARK VINA RESULT:      -8.3      0.000      0.000
REMARK  Name = 
REMARK  6 active torsions:
REMARK  status: ('A' for Active; 'I' for Inactive)
REMARK    1  A    between atoms: C_1  and  C_2
REMARK    2  A    between atoms: C_2  and  C_3
REMARK    3  A    between atoms: C_4  and  C_5
REMARK    4  A    between atoms: N_11  and  C_12
REMARK    5  A    between atoms: C_12  and  C_13
REMARK    6  A    between atoms: C_25  and  O_26
REMARK                            x       y       z     vdW  Elec       q    Type
REMARK                         _______ _______ _______ _____ _____    ______ ____
ROOT
ATOM      1  C   UNL     1       0.436  10.564  20.733  0.00  0.00    +0.000 A 
ATOM      2  C   UNL     1       0.501   9.492  21.599  0.00  0.00    +0.000 A 
ATOM      3  C   UNL     1      -0.057   9.493  22.989  0.00  0.00    +0.000 C 
ATOM      4  N   UNL     1       1.098   8.330  21.256  0.00  0.00    +0.000 NA
ATOM      5  C   UNL     1       1.615   8.186  20.028  0.00  0.00    +0.000 A 
ATOM      6  N   UNL     1       2.179   6.984  19.699  0.00  0.00    +0.000 N 
ATOM      7  C   UNL     1       2.343   5.941  20.708  0.00  0.00    +0.000 C 
ATOM      8  C   UNL     1       1.966   4.561  20.116  0.00  0.00    +0.000 C 
ATOM      9  N   UNL     1       2.607   4.235  18.817  0.00  0.00    +0.000 NA
ATOM     10  C   UNL     1       2.321   5.356  17.882  0.00  0.00    +0.000 C 
ATOM     11  C   UNL     1       2.753   6.751  18.381  0.00  0.00    +0.000 C 
ATOM     12  N   UNL     1       1.563   9.159  19.114  0.00  0.00    +0.000 NA
ATOM     13  C   UNL     1       0.979  10.297  19.496  0.00  0.00    +0.000 A 
ENDROOT
BRANCH   1  15
ATOM     14  C   UNL     1      -1.636  11.976  20.626  0.00  0.00    +0.000 C 
ATOM     15  C   UNL     1      -0.178  11.892  21.052  0.00  0.00    +0.000 C 
ENDBRANCH   1  15
BRANCH  13  16
ATOM     16  O   UNL     1       0.950  11.228  18.504  0.00  0.00    +0.000 OA
ATOM     17  H   UNL     1       1.522  10.790  17.849  0.00  0.00    +0.000 HD
ENDBRANCH  13  16
BRANCH   9  18
ATOM     18  C   UNL     1       4.048   3.983  19.014  0.00  0.00    +0.000 C 
BRANCH  18  19
ATOM     19  C   UNL     1       4.901   4.543  17.896  0.00  0.00    +0.000 A 
ATOM     20  C   UNL     1       6.040   5.329  18.195  0.00  0.00    +0.000 A 
ATOM     21  C   UNL     1       6.949   5.679  17.193  0.00  0.00    +0.000 A 
ATOM     22  C   UNL     1       6.704   5.207  15.922  0.00  0.00    +0.000 A 
ATOM     23  C   UNL     1       5.574   4.484  15.620  0.00  0.00    +0.000 A 
ATOM     24  C   UNL     1       4.637   4.162  16.572  0.00  0.00    +0.000 A 
ATOM     25  O   UNL     1       5.555   4.069  14.324  0.00  0.00    +0.000 OA
ATOM     26  C   UNL     1       6.914   4.376  13.954  0.00  0.00    +0.000 C 
ATOM     27  O   UNL     1       7.536   5.321  14.850  0.00  0.00    +0.000 OA
ENDBRANCH  18  19
ENDBRANCH   9  18
TORSDOF 4
ENDMDL
MODEL 2
REMARK VINA RESULT:      -8.2      1.230      1.862
REMARK  Name = 
REMARK  6 active torsions:
REMARK  status: ('A' for Active; 'I' for Inactive)
REMARK    1  A    between atoms: C_1  and  C_2
REMARK    2  A    between atoms: C_2  and  C_3
REMARK    3  A    between atoms: C_4  and  C_5
REMARK    4  A    between atoms: N_11  and  C_12
REMARK    5  A    between atoms: C_12  and  C_13
REMARK    6  A    between atoms: C_25  and  O_26
REMARK                            x       y       z     vdW  Elec       q    Type
REMARK                         _______ _______ _______ _____ _____    ______ ____
ROOT
ATOM      1  C   UNL     1      -0.901  11.770  20.211  0.00  0.00    +0.000 A 
ATOM      2  C   UNL     1      -0.599  10.879  21.220  0.00  0.00    +0.000 A 
ATOM      3  C   UNL     1      -1.121  10.977  22.620  0.00  0.00    +0.000 C 
ATOM      4  N   UNL     1       0.223   9.825  21.020  0.00  0.00    +0.000 NA
ATOM      5  C   UNL     1       0.738   9.606  19.803  0.00  0.00    +0.000 A 
ATOM      6  N   UNL     1       1.536   8.509  19.625  0.00  0.00    +0.000 N 
ATOM      7  C   UNL     1       1.932   7.688  20.766  0.00  0.00    +0.000 C 
ATOM      8  C   UNL     1       1.843   6.186  20.400  0.00  0.00    +0.000 C 
ATOM      9  N   UNL     1       2.516   5.804  19.133  0.00  0.00    +0.000 NA
ATOM     10  C   UNL     1       1.986   6.687  18.059  0.00  0.00    +0.000 C 
ATOM     11  C   UNL     1       2.124   8.201  18.329  0.00  0.00    +0.000 C 
ATOM     12  N   UNL     1       0.467  10.396  18.760  0.00  0.00    +0.000 NA
ATOM     13  C   UNL     1      -0.335  11.436  19.001  0.00  0.00    +0.000 A 
ENDROOT
BRANCH   1  15
ATOM     14  C   UNL     1      -3.242  12.669  20.103  0.00  0.00    +0.000 C 
ATOM     15  C   UNL     1      -1.775  12.977  20.362  0.00  0.00    +0.000 C 
ENDBRANCH   1  15
BRANCH  13  16
ATOM     16  O   UNL     1      -0.576  12.178  17.887  0.00  0.00    +0.000 OA
ATOM     17  H   UNL     1      -0.901  12.998  18.301  0.00  0.00    +0.000 HD
ENDBRANCH  13  16
BRANCH   9  18
ATOM     18  C   UNL     1       3.982   5.886  19.294  0.00  0.00    +0.000 C 
BRANCH  18  19
ATOM     19  C   UNL     1       4.736   5.173  18.193  0.00  0.00    +0.000 A 
ATOM     20  C   UNL     1       4.256   3.942  17.682  0.00  0.00    +0.000 A 
ATOM     21  C   UNL     1       4.819   3.377  16.535  0.00  0.00    +0.000 A 
ATOM     22  C   UNL     1       5.831   4.076  15.916  0.00  0.00    +0.000 A 
ATOM     23  C   UNL     1       6.332   5.247  16.437  0.00  0.00    +0.000 A 
ATOM     24  C   UNL     1       5.832   5.806  17.588  0.00  0.00    +0.000 A 
ATOM     25  O   UNL     1       7.287   5.802  15.642  0.00  0.00    +0.000 OA
ATOM     26  C   UNL     1       7.111   4.996  14.459  0.00  0.00    +0.000 C 
ATOM     27  O   UNL     1       6.408   3.763  14.722  0.00  0.00    +0.000 OA
ENDBRANCH  18  19
ENDBRANCH   9  18
TORSDOF 4
ENDMDL
MODEL 3
REMARK VINA RESULT:      -8.0      3.343     10.065
REMARK  Name = 
REMARK  6 active torsions:
REMARK  status: ('A' for Active; 'I' for Inactive)
REMARK    1  A    between atoms: C_1  and  C_2
REMARK    2  A    between atoms: C_2  and  C_3
REMARK    3  A    between atoms: C_4  and  C_5
REMARK    4  A    between atoms: N_11  and  C_12
REMARK    5  A    between atoms: C_12  and  C_13
REMARK    6  A    between atoms: C_25  and  O_26
REMARK                            x       y       z     vdW  Elec       q    Type
REMARK                         _______ _______ _______ _____ _____    ______ ____
ROOT
ATOM      1  C   UNL     1       2.912   5.220  19.232  0.00  0.00    +0.000 A 
ATOM      2  C   UNL     1       2.196   5.202  20.411  0.00  0.00    +0.000 A 
ATOM      3  C   UNL     1       2.058   4.004  21.299  0.00  0.00    +0.000 C 
ATOM      4  N   UNL     1       1.535   6.290  20.863  0.00  0.00    +0.000 NA
ATOM      5  C   UNL     1       1.599   7.439  20.176  0.00  0.00    +0.000 A 
ATOM      6  N   UNL     1       0.951   8.532  20.681  0.00  0.00    +0.000 N 
ATOM      7  C   UNL     1       0.093   8.409  21.856  0.00  0.00    +0.000 C 
ATOM      8  C   UNL     1       0.323   9.604  22.813  0.00  0.00    +0.000 C 
ATOM      9  N   UNL     1       0.264  10.944  22.175  0.00  0.00    +0.000 NA
ATOM     10  C   UNL     1       1.214  10.937  21.030  0.00  0.00    +0.000 C 
ATOM     11  C   UNL     1       0.983   9.816  19.994  0.00  0.00    +0.000 C 
ATOM     12  N   UNL     1       2.301   7.556  19.046  0.00  0.00    +0.000 NA
ATOM     13  C   UNL     1       2.926   6.454  18.623  0.00  0.00    +0.000 A 
ENDROOT
BRANCH   1  15
ATOM     14  C   UNL     1       2.783   3.257  17.674  0.00  0.00    +0.000 C 
ATOM     15  C   UNL     1       3.641   4.048  18.650  0.00  0.00    +0.000 C 
ENDBRANCH   1  15
BRANCH  13  16
ATOM     16  O   UNL     1       3.632   6.661  17.478  0.00  0.00    +0.000 OA
ATOM     17  H   UNL     1       4.303   7.284  17.808  0.00  0.00    +0.000 HD
ENDBRANCH  13  16
BRANCH   9  18
ATOM     18  C   UNL     1      -1.125  11.259  21.788  0.00  0.00    +0.000 C 
BRANCH  18  19
ATOM     19  C   UNL     1      -1.731  12.368  22.621  0.00  0.00    +0.000 A 
ATOM     20  C   UNL     1      -3.046  12.240  23.129  0.00  0.00    +0.000 A 
ATOM     21  C   UNL     1      -3.543  13.152  24.063  0.00  0.00    +0.000 A 
ATOM     22  C   UNL     1      -2.696  14.154  24.483  0.00  0.00    +0.000 A 
ATOM     23  C   UNL     1      -1.435  14.310  23.956  0.00  0.00    +0.000 A 
ATOM     24  C   UNL     1      -0.933  13.457  23.002  0.00  0.00    +0.000 A 
ATOM     25  O   UNL     1      -0.747  15.324  24.547  0.00  0.00    +0.000 OA
ATOM     26  C   UNL     1      -1.615  15.579  25.669  0.00  0.00    +0.000 C 
ATOM     27  O   UNL     1      -2.944  15.049  25.480  0.00  0.00    +0.000 OA
ENDBRANCH  18  19
ENDBRANCH   9  18
TORSDOF 4
ENDMDL
MODEL 4
REMARK VINA RESULT:      -8.0      1.050      1.773
REMARK  Name = 
REMARK  6 active torsions:
REMARK  status: ('A' for Active; 'I' for Inactive)
REMARK    1  A    between atoms: C_1  and  C_2
REMARK    2  A    between atoms: C_2  and  C_3
REMARK    3  A    between atoms: C_4  and  C_5
REMARK    4  A    between atoms: N_11  and  C_12
REMARK    5  A    between atoms: C_12  and  C_13
REMARK    6  A    between atoms: C_25  and  O_26
REMARK                            x       y       z     vdW  Elec       q    Type
REMARK                         _______ _______ _______ _____ _____    ______ ____
ROOT
ATOM      1  C   UNL     1       0.539  10.321  20.418  0.00  0.00    +0.000 A 
ATOM      2  C   UNL     1       0.367   9.270  21.294  0.00  0.00    +0.000 A 
ATOM      3  C   UNL     1      -0.413   9.351  22.570  0.00  0.00    +0.000 C 
ATOM      4  N   UNL     1       0.912   8.054  21.068  0.00  0.00    +0.000 NA
ATOM      5  C   UNL     1       1.613   7.839  19.947  0.00  0.00    +0.000 A 
ATOM      6  N   UNL     1       2.119   6.587  19.731  0.00  0.00    +0.000 N 
ATOM      7  C   UNL     1       2.023   5.559  20.764  0.00  0.00    +0.000 C 
ATOM      8  C   UNL     1       1.634   4.200  20.131  0.00  0.00    +0.000 C 
ATOM      9  N   UNL     1       2.453   3.790  18.962  0.00  0.00    +0.000 NA
ATOM     10  C   UNL     1       2.424   4.907  17.980  0.00  0.00    +0.000 C 
ATOM     11  C   UNL     1       2.883   6.275  18.530  0.00  0.00    +0.000 C 
ATOM     12  N   UNL     1       1.796   8.789  19.026  0.00  0.00    +0.000 NA
ATOM     13  C   UNL     1       1.256   9.981  19.293  0.00  0.00    +0.000 A 
ENDROOT
BRANCH   1  15
ATOM     14  C   UNL     1      -1.405  11.864  20.042  0.00  0.00    +0.000 C 
ATOM     15  C   UNL     1      -0.005  11.703  20.615  0.00  0.00    +0.000 C 
ENDBRANCH   1  15
BRANCH  13  16
ATOM     16  O   UNL     1       1.471  10.886  18.301  0.00  0.00    +0.000 OA
ATOM     17  H   UNL     1       1.886  10.307  17.636  0.00  0.00    +0.000 HD
ENDBRANCH  13  16
BRANCH   9  18
ATOM     18  C   UNL     1       3.815   3.427  19.402  0.00  0.00    +0.000 C 
BRANCH  18  19
ATOM     19  C   UNL     1       4.895   4.017  18.521  0.00  0.00    +0.000 A 
ATOM     20  C   UNL     1       4.906   3.751  17.131  0.00  0.00    +0.000 A 
ATOM     21  C   UNL     1       5.765   4.447  16.276  0.00  0.00    +0.000 A 
ATOM     22  C   UNL     1       6.571   5.412  16.838  0.00  0.00    +0.000 A 
ATOM     23  C   UNL     1       6.598   5.639  18.195  0.00  0.00    +0.000 A 
ATOM     24  C   UNL     1       5.799   4.940  19.067  0.00  0.00    +0.000 A 
ATOM     25  O   UNL     1       7.421   6.670  18.532  0.00  0.00    +0.000 OA
ATOM     26  C   UNL     1       7.668   7.217  17.221  0.00  0.00    +0.000 C 
ATOM     27  O   UNL     1       7.369   6.284  16.161  0.00  0.00    +0.000 OA
ENDBRANCH  18  19
ENDBRANCH   9  18
TORSDOF 4
ENDMDL
MODEL 5
REMARK VINA RESULT:      -7.8      3.479     10.272
REMARK  Name = 
REMARK  6 active torsions:
REMARK  status: ('A' for Active; 'I' for Inactive)
REMARK    1  A    between atoms: C_1  and  C_2
REMARK    2  A    between atoms: C_2  and  C_3
REMARK    3  A    between atoms: C_4  and  C_5
REMARK    4  A    between atoms: N_11  and  C_12
REMARK    5  A    between atoms: C_12  and  C_13
REMARK    6  A    between atoms: C_25  and  O_26
REMARK                            x       y       z     vdW  Elec       q    Type
REMARK                         _______ _______ _______ _____ _____    ______ ____
ROOT
ATOM      1  C   UNL     1       2.917   5.763  19.057  0.00  0.00    +0.000 A 
ATOM      2  C   UNL     1       2.190   5.673  20.226  0.00  0.00    +0.000 A 
ATOM      3  C   UNL     1       2.090   4.438  21.067  0.00  0.00    +0.000 C 
ATOM      4  N   UNL     1       1.482   6.717  20.710  0.00  0.00    +0.000 NA
ATOM      5  C   UNL     1       1.507   7.892  20.066  0.00  0.00    +0.000 A 
ATOM      6  N   UNL     1       0.811   8.939  20.604  0.00  0.00    +0.000 N 
ATOM      7  C   UNL     1      -0.053   8.738  21.764  0.00  0.00    +0.000 C 
ATOM      8  C   UNL     1       0.118   9.905  22.767  0.00  0.00    +0.000 C 
ATOM      9  N   UNL     1       0.013  11.264  22.178  0.00  0.00    +0.000 NA
ATOM     10  C   UNL     1       0.974  11.338  21.045  0.00  0.00    +0.000 C 
ATOM     11  C   UNL     1       0.799  10.248  19.965  0.00  0.00    +0.000 C 
ATOM     12  N   UNL     1       2.216   8.078  18.950  0.00  0.00    +0.000 NA
ATOM     13  C   UNL     1       2.888   7.019  18.494  0.00  0.00    +0.000 A 
ENDROOT
BRANCH   1  15
ATOM     14  C   UNL     1       2.868   3.827  17.461  0.00  0.00    +0.000 C 
ATOM     15  C   UNL     1       3.698   4.643  18.441  0.00  0.00    +0.000 C 
ENDBRANCH   1  15
BRANCH  13  16
ATOM     16  O   UNL     1       3.597   7.296  17.366  0.00  0.00    +0.000 OA
ATOM     17  H   UNL     1       3.792   8.237  17.520  0.00  0.00    +0.000 HD
ENDBRANCH  13  16
BRANCH   9  18
ATOM     18  C   UNL     1      -1.383  11.539  21.786  0.00  0.00    +0.000 C 
BRANCH  18  19
ATOM     19  C   UNL     1      -2.065  12.536  22.698  0.00  0.00    +0.000 A 
ATOM     20  C   UNL     1      -1.307  13.537  23.353  0.00  0.00    +0.000 A 
ATOM     21  C   UNL     1      -1.940  14.584  24.029  0.00  0.00    +0.000 A 
ATOM     22  C   UNL     1      -3.317  14.612  24.007  0.00  0.00    +0.000 A 
ATOM     23  C   UNL     1      -4.056  13.615  23.413  0.00  0.00    +0.000 A 
ATOM     24  C   UNL     1      -3.465  12.548  22.780  0.00  0.00    +0.000 A 
ATOM     25  O   UNL     1      -5.393  13.864  23.456  0.00  0.00    +0.000 OA
ATOM     26  C   UNL     1      -5.365  15.240  23.885  0.00  0.00    +0.000 C 
ATOM     27  O   UNL     1      -4.106  15.614  24.484  0.00  0.00    +0.000 OA
ENDBRANCH  18  19
ENDBRANCH   9  18
TORSDOF 4
ENDMDL
MODEL 6
REMARK VINA RESULT:      -7.6      3.181      9.692
REMARK  Name = 
REMARK  6 active torsions:
REMARK  status: ('A' for Active; 'I' for Inactive)
REMARK    1  A    between atoms: C_1  and  C_2
REMARK    2  A    between atoms: C_2  and  C_3
REMARK    3  A    between atoms: C_4  and  C_5
REMARK    4  A    between atoms: N_11  and  C_12
REMARK    5  A    between atoms: C_12  and  C_13
REMARK    6  A    between atoms: C_25  and  O_26
REMARK                            x       y       z     vdW  Elec       q    Type
REMARK                         _______ _______ _______ _____ _____    ______ ____
ROOT
ATOM      1  C   UNL     1       3.334   4.125  19.348  0.00  0.00    +0.000 A 
ATOM      2  C   UNL     1       3.397   5.223  18.515  0.00  0.00    +0.000 A 
ATOM      3  C   UNL     1       4.066   5.231  17.175  0.00  0.00    +0.000 C 
ATOM      4  N   UNL     1       2.853   6.411  18.857  0.00  0.00    +0.000 NA
ATOM      5  C   UNL     1       2.199   6.533  20.020  0.00  0.00    +0.000 A 
ATOM      6  N   UNL     1       1.628   7.740  20.318  0.00  0.00    +0.000 N 
ATOM      7  C   UNL     1       1.853   8.900  19.460  0.00  0.00    +0.000 C 
ATOM      8  C   UNL     1       0.532   9.684  19.263  0.00  0.00    +0.000 C 
ATOM      9  N   UNL     1      -0.203  10.005  20.512  0.00  0.00    +0.000 NA
ATOM     10  C   UNL     1      -0.399   8.732  21.257  0.00  0.00    +0.000 C 
ATOM     11  C   UNL     1       0.894   7.944  21.560  0.00  0.00    +0.000 C 
ATOM     12  N   UNL     1       2.057   5.512  20.869  0.00  0.00    +0.000 NA
ATOM     13  C   UNL     1       2.622   4.358  20.503  0.00  0.00    +0.000 A 
ENDROOT
BRANCH   1  15
ATOM     14  C   UNL     1       3.010   1.893  18.246  0.00  0.00    +0.000 C 
ATOM     15  C   UNL     1       3.939   2.787  19.055  0.00  0.00    +0.000 C 
ENDBRANCH   1  15
BRANCH  13  16
ATOM     16  O   UNL     1       2.417   3.366  21.411  0.00  0.00    +0.000 OA
ATOM     17  H   UNL     1       1.524   3.082  21.147  0.00  0.00    +0.000 HD
ENDBRANCH  13  16
BRANCH   9  18
ATOM     18  C   UNL     1       0.528  11.032  21.280  0.00  0.00    +0.000 C 
BRANCH  18  19
ATOM     19  C   UNL     1      -0.389  11.941  22.069  0.00  0.00    +0.000 A 
ATOM     20  C   UNL     1      -0.275  13.347  21.946  0.00  0.00    +0.000 A 
ATOM     21  C   UNL     1      -1.239  14.193  22.502  0.00  0.00    +0.000 A 
ATOM     22  C   UNL     1      -2.306  13.602  23.143  0.00  0.00    +0.000 A 
ATOM     23  C   UNL     1      -2.394  12.239  23.306  0.00  0.00    +0.000 A 
ATOM     24  C   UNL     1      -1.440  11.382  22.811  0.00  0.00    +0.000 A 
ATOM     25  O   UNL     1      -3.551  11.863  23.916  0.00  0.00    +0.000 OA
ATOM     26  C   UNL     1      -4.271  13.110  23.851  0.00  0.00    +0.000 C 
ATOM     27  O   UNL     1      -3.408  14.244  23.624  0.00  0.00    +0.000 OA
ENDBRANCH  18  19
ENDBRANCH   9  18
TORSDOF 4
ENDMDL
MODEL 7
REMARK VINA RESULT:      -7.5      3.245      8.588
REMARK  Name = 
REMARK  6 active torsions:
REMARK  status: ('A' for Active; 'I' for Inactive)
REMARK    1  A    between atoms: C_1  and  C_2
REMARK    2  A    between atoms: C_2  and  C_3
REMARK    3  A    between atoms: C_4  and  C_5
REMARK    4  A    between atoms: N_11  and  C_12
REMARK    5  A    between atoms: C_12  and  C_13
REMARK    6  A    between atoms: C_25  and  O_26
REMARK                            x       y       z     vdW  Elec       q    Type
REMARK                         _______ _______ _______ _____ _____    ______ ____
ROOT
ATOM      1  C   UNL     1       2.764   3.873  19.479  0.00  0.00    +0.000 A 
ATOM      2  C   UNL     1       2.977   4.774  18.457  0.00  0.00    +0.000 A 
ATOM      3  C   UNL     1       3.562   4.421  17.125  0.00  0.00    +0.000 C 
ATOM      4  N   UNL     1       2.676   6.085  18.586  0.00  0.00    +0.000 NA
ATOM      5  C   UNL     1       2.120   6.531  19.721  0.00  0.00    +0.000 A 
ATOM      6  N   UNL     1       1.793   7.856  19.805  0.00  0.00    +0.000 N 
ATOM      7  C   UNL     1       2.175   8.783  18.744  0.00  0.00    +0.000 C 
ATOM      8  C   UNL     1       1.008   9.753  18.434  0.00  0.00    +0.000 C 
ATOM      9  N   UNL     1       0.412  10.421  19.619  0.00  0.00    +0.000 NA
ATOM     10  C   UNL     1       0.032   9.360  20.589  0.00  0.00    +0.000 C 
ATOM     11  C   UNL     1       1.177   8.410  21.003  0.00  0.00    +0.000 C 
ATOM     12  N   UNL     1       1.844   5.720  20.746  0.00  0.00    +0.000 NA
ATOM     13  C   UNL     1       2.171   4.435  20.587  0.00  0.00    +0.000 A 
ENDROOT
BRANCH   1  15
ATOM     14  C   UNL     1       4.482   2.116  19.990  0.00  0.00    +0.000 C 
ATOM     15  C   UNL     1       3.101   2.414  19.424  0.00  0.00    +0.000 C 
ENDBRANCH   1  15
BRANCH  13  16
ATOM     16  O   UNL     1       1.841   3.675  21.665  0.00  0.00    +0.000 OA
ATOM     17  H   UNL     1       0.878   3.612  21.536  0.00  0.00    +0.000 HD
ENDBRANCH  13  16
BRANCH   9  18
ATOM     18  C   UNL     1       1.358  11.413  20.169  0.00  0.00    +0.000 C 
BRANCH  18  19
ATOM     19  C   UNL     1       1.237  12.770  19.511  0.00  0.00    +0.000 A 
ATOM     20  C   UNL     1       0.111  13.589  19.769  0.00  0.00    +0.000 A 
ATOM     21  C   UNL     1       0.080  14.918  19.338  0.00  0.00    +0.000 A 
ATOM     22  C   UNL     1       1.193  15.397  18.684  0.00  0.00    +0.000 A 
ATOM     23  C   UNL     1       2.268  14.591  18.389  0.00  0.00    +0.000 A 
ATOM     24  C   UNL     1       2.310  13.268  18.758  0.00  0.00    +0.000 A 
ATOM     25  O   UNL     1       3.281  15.274  17.789  0.00  0.00    +0.000 OA
ATOM     26  C   UNL     1       2.820  16.623  18.006  0.00  0.00    +0.000 C 
ATOM     27  O   UNL     1       1.411  16.689  18.312  0.00  0.00    +0.000 OA
ENDBRANCH  18  19
ENDBRANCH   9  18
TORSDOF 4
ENDMDL
MODEL 8
REMARK VINA RESULT:      -7.4      1.266      1.839
REMARK  Name = 
REMARK  6 active torsions:
REMARK  status: ('A' for Active; 'I' for Inactive)
REMARK    1  A    between atoms: C_1  and  C_2
REMARK    2  A    between atoms: C_2  and  C_3
REMARK    3  A    between atoms: C_4  and  C_5
REMARK    4  A    between atoms: N_11  and  C_12
REMARK    5  A    between atoms: C_12  and  C_13
REMARK    6  A    between atoms: C_25  and  O_26
REMARK                            x       y       z     vdW  Elec       q    Type
REMARK                         _______ _______ _______ _____ _____    ______ ____
ROOT
ATOM      1  C   UNL     1      -0.638  11.146  21.472  0.00  0.00    +0.000 A 
ATOM      2  C   UNL     1      -0.239   9.981  22.094  0.00  0.00    +0.000 A 
ATOM      3  C   UNL     1      -0.651   9.575  23.476  0.00  0.00    +0.000 C 
ATOM      4  N   UNL     1       0.584   9.094  21.492  0.00  0.00    +0.000 NA
ATOM      5  C   UNL     1       1.005   9.323  20.241  0.00  0.00    +0.000 A 
ATOM      6  N   UNL     1       1.807   8.388  19.646  0.00  0.00    +0.000 N 
ATOM      7  C   UNL     1       2.307   7.247  20.408  0.00  0.00    +0.000 C 
ATOM      8  C   UNL     1       2.218   5.956  19.559  0.00  0.00    +0.000 C 
ATOM      9  N   UNL     1       2.796   6.056  18.195  0.00  0.00    +0.000 NA
ATOM     10  C   UNL     1       2.166   7.226  17.525  0.00  0.00    +0.000 C 
ATOM     11  C   UNL     1       2.296   8.564  18.285  0.00  0.00    +0.000 C 
ATOM     12  N   UNL     1       0.638  10.407  19.551  0.00  0.00    +0.000 NA
ATOM     13  C   UNL     1      -0.163  11.266  20.186  0.00  0.00    +0.000 A 
ENDROOT
BRANCH   1  15
ATOM     14  C   UNL     1      -0.737  13.406  22.560  0.00  0.00    +0.000 C 
ATOM     15  C   UNL     1      -1.519  12.190  22.086  0.00  0.00    +0.000 C 
ENDBRANCH   1  15
BRANCH  13  16
ATOM     16  O   UNL     1      -0.505  12.331  19.411  0.00  0.00    +0.000 OA
ATOM     17  H   UNL     1      -1.386  12.043  19.113  0.00  0.00    +0.000 HD
ENDBRANCH  13  16
BRANCH   9  18
ATOM     18  C   UNL     1       4.268   6.144  18.275  0.00  0.00    +0.000 C 
BRANCH  18  19
ATOM     19  C   UNL     1       4.965   5.325  17.210  0.00  0.00    +0.000 A 
ATOM     20  C   UNL     1       4.389   4.116  16.750  0.00  0.00    +0.000 A 
ATOM     21  C   UNL     1       4.907   3.458  15.632  0.00  0.00    +0.000 A 
ATOM     22  C   UNL     1       5.974   4.045  14.989  0.00  0.00    +0.000 A 
ATOM     23  C   UNL     1       6.567   5.194  15.462  0.00  0.00    +0.000 A 
ATOM     24  C   UNL     1       6.110   5.841  16.585  0.00  0.00    +0.000 A 
ATOM     25  O   UNL     1       7.566   5.634  14.650  0.00  0.00    +0.000 OA
ATOM     26  C   UNL     1       7.328   4.795  13.502  0.00  0.00    +0.000 C 
ATOM     27  O   UNL     1       6.527   3.636  13.814  0.00  0.00    +0.000 OA
ENDBRANCH  18  19
ENDBRANCH   9  18
TORSDOF 4
ENDMDL
MODEL 9
REMARK VINA RESULT:      -7.3      2.457      9.405
REMARK  Name = 
REMARK  6 active torsions:
REMARK  status: ('A' for Active; 'I' for Inactive)
REMARK    1  A    between atoms: C_1  and  C_2
REMARK    2  A    between atoms: C_2  and  C_3
REMARK    3  A    between atoms: C_4  and  C_5
REMARK    4  A    between atoms: N_11  and  C_12
REMARK    5  A    between atoms: C_12  and  C_13
REMARK    6  A    between atoms: C_25  and  O_26
REMARK                            x       y       z     vdW  Elec       q    Type
REMARK                         _______ _______ _______ _____ _____    ______ ____
ROOT
ATOM      1  C   UNL     1       4.994   5.346  17.406  0.00  0.00    +0.000 A 
ATOM      2  C   UNL     1       4.280   5.245  18.582  0.00  0.00    +0.000 A 
ATOM      3  C   UNL     1       4.432   4.131  19.571  0.00  0.00    +0.000 C 
ATOM      4  N   UNL     1       3.354   6.162  18.937  0.00  0.00    +0.000 NA
ATOM      5  C   UNL     1       3.138   7.226  18.152  0.00  0.00    +0.000 A 
ATOM      6  N   UNL     1       2.222   8.156  18.559  0.00  0.00    +0.000 N 
ATOM      7  C   UNL     1       1.398   7.918  19.741  0.00  0.00    +0.000 C 
ATOM      8  C   UNL     1       1.294   9.209  20.590  0.00  0.00    +0.000 C 
ATOM      9  N   UNL     1       0.910  10.430  19.837  0.00  0.00    +0.000 NA
ATOM     10  C   UNL     1       1.855  10.570  18.697  0.00  0.00    +0.000 C 
ATOM     11  C   UNL     1       1.941   9.343  17.763  0.00  0.00    +0.000 C 
ATOM     12  N   UNL     1       3.813   7.423  17.016  0.00  0.00    +0.000 NA
ATOM     13  C   UNL     1       4.707   6.487  16.691  0.00  0.00    +0.000 A 
ENDROOT
BRANCH   1  15
ATOM     14  C   UNL     1       7.402   4.641  17.473  0.00  0.00    +0.000 C 
ATOM     15  C   UNL     1       6.010   4.354  16.929  0.00  0.00    +0.000 C 
ENDBRANCH   1  15
BRANCH  13  16
ATOM     16  O   UNL     1       5.362   6.769  15.533  0.00  0.00    +0.000 OA
ATOM     17  H   UNL     1       5.787   5.909  15.368  0.00  0.00    +0.000 HD
ENDBRANCH  13  16
BRANCH   9  18
ATOM     18  C   UNL     1      -0.504  10.345  19.424  0.00  0.00    +0.000 C 
BRANCH  18  19
ATOM     19  C   UNL     1      -1.385  11.355  20.129  0.00  0.00    +0.000 A 
ATOM     20  C   UNL     1      -2.463  11.963  19.442  0.00  0.00    +0.000 A 
ATOM     21  C   UNL     1      -3.404  12.734  20.129  0.00  0.00    +0.000 A 
ATOM     22  C   UNL     1      -3.252  12.851  21.493  0.00  0.00    +0.000 A 
ATOM     23  C   UNL     1      -2.179  12.302  22.156  0.00  0.00    +0.000 A 
ATOM     24  C   UNL     1      -1.212  11.577  21.503  0.00  0.00    +0.000 A 
ATOM     25  O   UNL     1      -2.251  12.488  23.502  0.00  0.00    +0.000 OA
ATOM     26  C   UNL     1      -3.610  12.958  23.606  0.00  0.00    +0.000 C 
ATOM     27  O   UNL     1      -4.133  13.439  22.350  0.00  0.00    +0.000 OA
ENDBRANCH  18  19
ENDBRANCH   9  18
TORSDOF 4
ENDMDL
