MODEL 1
REMARK VINA RESULT:      -8.6      0.000      0.000
REMARK  Name = 
REMARK  5 active torsions:
REMARK  status: ('A' for Active; 'I' for Inactive)
REMARK    1  A    between atoms: C_2  and  C_3
REMARK    2  A    between atoms: C_4  and  C_5
REMARK    3  A    between atoms: N_11  and  C_12
REMARK    4  A    between atoms: C_15  and  S_16
REMARK    5  A    between atoms: S_16  and  C_19
REMARK                            x       y       z     vdW  Elec       q    Type
REMARK                         _______ _______ _______ _____ _____    ______ ____
ROOT
ATOM      1  C   UNL     1       1.710   7.519  20.404  0.00  0.00    +0.000 A 
ATOM      2  C   UNL     1       2.189   7.649  19.094  0.00  0.00    +0.000 A 
ATOM      3  C   UNL     1       2.590   6.526  18.362  0.00  0.00    +0.000 A 
ATOM      4  C   UNL     1       2.502   5.260  18.940  0.00  0.00    +0.000 A 
ATOM      5  C   UNL     1       2.025   5.111  20.244  0.00  0.00    +0.000 A 
ATOM      6  C   UNL     1       1.628   6.241  20.969  0.00  0.00    +0.000 A 
ENDROOT
BRANCH   1   9
ATOM      7  O   UNL     1      -0.855   8.114  21.759  0.00  0.00    +0.000 OA
ATOM      8  C   UNL     1       0.109   8.869  21.753  0.00  0.00    +0.000 C 
ATOM      9  N   UNL     1       1.352   8.622  21.209  0.00  0.00    +0.000 N 
ATOM     10  H   UNL     1       2.094   9.283  21.402  0.00  0.00    +0.000 HD
BRANCH   8  11
ATOM     11  C   UNL     1       0.026  10.210  22.396  0.00  0.00    +0.000 C 
ATOM     12  C   UNL     1      -0.641  11.203  21.783  0.00  0.00    +0.000 C 
BRANCH  12  13
ATOM     13  C   UNL     1      -0.784  12.559  22.325  0.00  0.00    +0.000 A 
ATOM     14  C   UNL     1      -1.738  12.901  23.288  0.00  0.00    +0.000 A 
ATOM     15  C   UNL     1      -1.819  14.213  23.755  0.00  0.00    +0.000 A 
ATOM     16  C   UNL     1      -0.925  15.144  23.257  0.00  0.00    +0.000 A 
ATOM     17  N   UNL     1       0.032  14.854  22.353  0.00  0.00    +0.000 NA
ATOM     18  C   UNL     1       0.085  13.571  21.916  0.00  0.00    +0.000 A 
ENDBRANCH  12  13
ENDBRANCH   8  11
ENDBRANCH   1   9
BRANCH   4  19
ATOM     19  S   UNL     1       3.099   3.844  18.038  0.00  0.00    +0.000 S 
ATOM     20  O   UNL     1       3.370   2.820  19.037  0.00  0.00    +0.000 OA
ATOM     21  O   UNL     1       2.143   3.567  16.976  0.00  0.00    +0.000 OA
BRANCH  19  22
ATOM     22  C   UNL     1       4.633   4.207  17.249  0.00  0.00    +0.000 A 
ATOM     23  C   UNL     1       4.806   3.852  15.903  0.00  0.00    +0.000 A 
ATOM     24  C   UNL     1       6.041   4.065  15.271  0.00  0.00    +0.000 A 
ATOM     25  C   UNL     1       7.113   4.612  15.978  0.00  0.00    +0.000 A 
ATOM     26  C   UNL     1       6.921   4.949  17.308  0.00  0.00    +0.000 A 
ATOM     27  C   UNL     1       5.693   4.765  17.931  0.00  0.00    +0.000 A 
ATOM     28  O   UNL     1       5.678   5.221  19.219  0.00  0.00    +0.000 OA
ATOM     29  C   UNL     1       7.063   5.472  19.542  0.00  0.00    +0.000 C 
ATOM     30  C   UNL     1       7.879   5.563  18.254  0.00  0.00    +0.000 C 
ENDBRANCH  19  22
ENDBRANCH   4  19
TORSDOF 5
ENDMDL
MODEL 2
REMARK VINA RESULT:      -8.6      1.343      1.799
REMARK  Name = 
REMARK  5 active torsions:
REMARK  status: ('A' for Active; 'I' for Inactive)
REMARK    1  A    between atoms: C_2  and  C_3
REMARK    2  A    between atoms: C_4  and  C_5
REMARK    3  A    between atoms: N_11  and  C_12
REMARK    4  A    between atoms: C_15  and  S_16
REMARK    5  A    between atoms: S_16  and  C_19
REMARK                            x       y       z     vdW  Elec       q    Type
REMARK                         _______ _______ _______ _____ _____    ______ ____
ROOT
ATOM      1  C   UNL     1       1.415   8.069  20.185  0.00  0.00    +0.000 A 
ATOM      2  C   UNL     1       1.266   6.894  20.931  0.00  0.00    +0.000 A 
ATOM      3  C   UNL     1       1.813   5.686  20.483  0.00  0.00    +0.000 A 
ATOM      4  C   UNL     1       2.525   5.656  19.284  0.00  0.00    +0.000 A 
ATOM      5  C   UNL     1       2.686   6.819  18.528  0.00  0.00    +0.000 A 
ATOM      6  C   UNL     1       2.133   8.022  18.983  0.00  0.00    +0.000 A 
ENDROOT
BRANCH   1   9
ATOM      7  O   UNL     1       1.587   9.544  22.748  0.00  0.00    +0.000 OA
ATOM      8  C   UNL     1       0.898   9.895  21.799  0.00  0.00    +0.000 C 
ATOM      9  N   UNL     1       0.832   9.300  20.557  0.00  0.00    +0.000 N 
ATOM     10  H   UNL     1       0.324   9.783  19.826  0.00  0.00    +0.000 HD
BRANCH   8  11
ATOM     11  C   UNL     1       0.021  11.096  21.902  0.00  0.00    +0.000 C 
ATOM     12  C   UNL     1      -0.999  11.104  22.776  0.00  0.00    +0.000 C 
BRANCH  12  13
ATOM     13  C   UNL     1      -1.922  12.229  22.959  0.00  0.00    +0.000 A 
ATOM     14  C   UNL     1      -1.706  13.494  22.404  0.00  0.00    +0.000 A 
ATOM     15  C   UNL     1      -2.626  14.519  22.622  0.00  0.00    +0.000 A 
ATOM     16  C   UNL     1      -3.752  14.241  23.376  0.00  0.00    +0.000 A 
ATOM     17  N   UNL     1      -4.020  13.030  23.903  0.00  0.00    +0.000 NA
ATOM     18  C   UNL     1      -3.106  12.054  23.676  0.00  0.00    +0.000 A 
ENDBRANCH  12  13
ENDBRANCH   8  11
ENDBRANCH   1   9
BRANCH   4  19
ATOM     19  S   UNL     1       3.141   4.099  18.673  0.00  0.00    +0.000 S 
ATOM     20  O   UNL     1       3.501   3.322  19.850  0.00  0.00    +0.000 OA
ATOM     21  O   UNL     1       2.150   3.570  17.748  0.00  0.00    +0.000 OA
BRANCH  19  22
ATOM     22  C   UNL     1       4.620   4.333  17.743  0.00  0.00    +0.000 A 
ATOM     23  C   UNL     1       4.661   3.899  16.410  0.00  0.00    +0.000 A 
ATOM     24  C   UNL     1       5.847   4.009  15.669  0.00  0.00    +0.000 A 
ATOM     25  C   UNL     1       7.001   4.532  16.254  0.00  0.00    +0.000 A 
ATOM     26  C   UNL     1       6.940   4.949  17.575  0.00  0.00    +0.000 A 
ATOM     27  C   UNL     1       5.761   4.867  18.304  0.00  0.00    +0.000 A 
ATOM     28  O   UNL     1       5.877   5.390  19.561  0.00  0.00    +0.000 OA
ATOM     29  C   UNL     1       7.296   5.580  19.756  0.00  0.00    +0.000 C 
ATOM     30  C   UNL     1       8.004   5.558  18.403  0.00  0.00    +0.000 C 
ENDBRANCH  19  22
ENDBRANCH   4  19
TORSDOF 5
ENDMDL
MODEL 3
REMARK VINA RESULT:      -8.6      0.681      1.194
REMARK  Name = 
REMARK  5 active torsions:
REMARK  status: ('A' for Active; 'I' for Inactive)
REMARK    1  A    between atoms: C_2  and  C_3
REMARK    2  A    between atoms: C_4  and  C_5
REMARK    3  A    between atoms: N_11  and  C_12
REMARK    4  A    between atoms: C_15  and  S_16
REMARK    5  A    between atoms: S_16  and  C_19
REMARK                            x       y       z     vdW  Elec       q    Type
REMARK                         _______ _______ _______ _____ _____    ______ ____
ROOT
ATOM      1  C   UNL     1       1.538   7.921  20.210  0.00  0.00    +0.000 A 
ATOM      2  C   UNL     1       1.534   6.702  20.901  0.00  0.00    +0.000 A 
ATOM      3  C   UNL     1       2.021   5.536  20.300  0.00  0.00    +0.000 A 
ATOM      4  C   UNL     1       2.527   5.590  19.002  0.00  0.00    +0.000 A 
ATOM      5  C   UNL     1       2.541   6.797  18.299  0.00  0.00    +0.000 A 
ATOM      6  C   UNL     1       2.049   7.958  18.908  0.00  0.00    +0.000 A 
ENDROOT
BRANCH   1   9
ATOM      7  O   UNL     1      -0.770   8.308  22.027  0.00  0.00    +0.000 OA
ATOM      8  C   UNL     1      -0.124   9.224  21.532  0.00  0.00    +0.000 C 
ATOM      9  N   UNL     1       1.002   9.113  20.744  0.00  0.00    +0.000 N 
ATOM     10  H   UNL     1       1.510   9.960  20.521  0.00  0.00    +0.000 HD
BRANCH   8  11
ATOM     11  C   UNL     1      -0.515  10.642  21.770  0.00  0.00    +0.000 C 
ATOM     12  C   UNL     1      -1.301  10.950  22.815  0.00  0.00    +0.000 C 
BRANCH  12  13
ATOM     13  C   UNL     1      -1.745  12.310  23.142  0.00  0.00    +0.000 A 
ATOM     14  C   UNL     1      -3.031  12.603  23.605  0.00  0.00    +0.000 A 
ATOM     15  C   UNL     1      -3.386  13.921  23.893  0.00  0.00    +0.000 A 
ATOM     16  C   UNL     1      -2.431  14.910  23.728  0.00  0.00    +0.000 A 
ATOM     17  N   UNL     1      -1.171  14.671  23.316  0.00  0.00    +0.000 NA
ATOM     18  C   UNL     1      -0.855  13.380  23.042  0.00  0.00    +0.000 A 
ENDBRANCH  12  13
ENDBRANCH   8  11
ENDBRANCH   1   9
BRANCH   4  19
ATOM     19  S   UNL     1       3.062   4.087  18.209  0.00  0.00    +0.000 S 
ATOM     20  O   UNL     1       3.294   3.130  19.282  0.00  0.00    +0.000 OA
ATOM     21  O   UNL     1       2.090   3.770  17.172  0.00  0.00    +0.000 OA
BRANCH  19  22
ATOM     22  C   UNL     1       4.606   4.325  17.393  0.00  0.00    +0.000 A 
ATOM     23  C   UNL     1       4.740   3.914  16.059  0.00  0.00    +0.000 A 
ATOM     24  C   UNL     1       5.978   4.026  15.407  0.00  0.00    +0.000 A 
ATOM     25  C   UNL     1       7.091   4.529  16.084  0.00  0.00    +0.000 A 
ATOM     26  C   UNL     1       6.936   4.923  17.404  0.00  0.00    +0.000 A 
ATOM     27  C   UNL     1       5.707   4.839  18.045  0.00  0.00    +0.000 A 
ATOM     28  O   UNL     1       5.735   5.338  19.316  0.00  0.00    +0.000 OA
ATOM     29  C   UNL     1       7.137   5.513  19.617  0.00  0.00    +0.000 C 
ATOM     30  C   UNL     1       7.942   5.509  18.318  0.00  0.00    +0.000 C 
ENDBRANCH  19  22
ENDBRANCH   4  19
TORSDOF 5
ENDMDL
MODEL 4
REMARK VINA RESULT:      -8.5      5.649      7.633
REMARK  Name = 
REMARK  5 active torsions:
REMARK  status: ('A' for Active; 'I' for Inactive)
REMARK    1  A    between atoms: C_2  and  C_3
REMARK    2  A    between atoms: C_4  and  C_5
REMARK    3  A    between atoms: N_11  and  C_12
REMARK    4  A    between atoms: C_15  and  S_16
REMARK    5  A    between atoms: S_16  and  C_19
REMARK                            x       y       z     vdW  Elec       q    Type
REMARK                         _______ _______ _______ _____ _____    ______ ____
ROOT
ATOM      1  C   UNL     1       5.597   6.740  17.038  0.00  0.00    +0.000 A 
ATOM      2  C   UNL     1       5.712   5.448  16.510  0.00  0.00    +0.000 A 
ATOM      3  C   UNL     1       4.664   4.528  16.631  0.00  0.00    +0.000 A 
ATOM      4  C   UNL     1       3.487   4.907  17.274  0.00  0.00    +0.000 A 
ATOM      5  C   UNL     1       3.353   6.192  17.804  0.00  0.00    +0.000 A 
ATOM      6  C   UNL     1       4.408   7.105  17.681  0.00  0.00    +0.000 A 
ENDROOT
BRANCH   1   9
ATOM      7  O   UNL     1       8.057   6.902  18.681  0.00  0.00    +0.000 OA
ATOM      8  C   UNL     1       7.730   7.739  17.849  0.00  0.00    +0.000 C 
ATOM      9  N   UNL     1       6.644   7.687  17.001  0.00  0.00    +0.000 N 
ATOM     10  H   UNL     1       6.579   8.384  16.270  0.00  0.00    +0.000 HD
BRANCH   8  11
ATOM     11  C   UNL     1       8.548   8.969  17.650  0.00  0.00    +0.000 C 
ATOM     12  C   UNL     1       8.695   9.842  18.660  0.00  0.00    +0.000 C 
BRANCH  12  13
ATOM     13  C   UNL     1       9.475  11.082  18.574  0.00  0.00    +0.000 A 
ATOM     14  C   UNL     1       9.087  12.177  17.796  0.00  0.00    +0.000 A 
ATOM     15  C   UNL     1       9.881  13.324  17.760  0.00  0.00    +0.000 A 
ATOM     16  C   UNL     1      11.035  13.348  18.522  0.00  0.00    +0.000 A 
ATOM     17  N   UNL     1      11.432  12.331  19.311  0.00  0.00    +0.000 NA
ATOM     18  C   UNL     1      10.642  11.229  19.325  0.00  0.00    +0.000 A 
ENDBRANCH  12  13
ENDBRANCH   8  11
ENDBRANCH   1   9
BRANCH   4  19
ATOM     19  S   UNL     1       2.192   3.705  17.505  0.00  0.00    +0.000 S 
ATOM     20  O   UNL     1       0.946   4.398  17.210  0.00  0.00    +0.000 OA
ATOM     21  O   UNL     1       2.549   2.524  16.733  0.00  0.00    +0.000 OA
BRANCH  19  22
ATOM     22  C   UNL     1       2.105   3.195  19.190  0.00  0.00    +0.000 A 
ATOM     23  C   UNL     1       0.965   3.518  19.940  0.00  0.00    +0.000 A 
ATOM     24  C   UNL     1       0.900   3.186  21.302  0.00  0.00    +0.000 A 
ATOM     25  C   UNL     1       1.974   2.552  21.928  0.00  0.00    +0.000 A 
ATOM     26  C   UNL     1       3.093   2.248  21.169  0.00  0.00    +0.000 A 
ATOM     27  C   UNL     1       3.151   2.550  19.815  0.00  0.00    +0.000 A 
ATOM     28  O   UNL     1       4.302   2.112  19.222  0.00  0.00    +0.000 OA
ATOM     29  C   UNL     1       5.167   1.739  20.318  0.00  0.00    +0.000 C 
ATOM     30  C   UNL     1       4.335   1.559  21.586  0.00  0.00    +0.000 C 
ENDBRANCH  19  22
ENDBRANCH   4  19
TORSDOF 5
ENDMDL
MODEL 5
REMARK VINA RESULT:      -8.5      0.874      1.130
REMARK  Name = 
REMARK  5 active torsions:
REMARK  status: ('A' for Active; 'I' for Inactive)
REMARK    1  A    between atoms: C_2  and  C_3
REMARK    2  A    between atoms: C_4  and  C_5
REMARK    3  A    between atoms: N_11  and  C_12
REMARK    4  A    between atoms: C_15  and  S_16
REMARK    5  A    between atoms: S_16  and  C_19
REMARK                            x       y       z     vdW  Elec       q    Type
REMARK                         _______ _______ _______ _____ _____    ______ ____
ROOT
ATOM      1  C   UNL     1       1.610   7.828  20.121  0.00  0.00    +0.000 A 
ATOM      2  C   UNL     1       2.131   7.833  18.821  0.00  0.00    +0.000 A 
ATOM      3  C   UNL     1       2.586   6.651  18.226  0.00  0.00    +0.000 A 
ATOM      4  C   UNL     1       2.511   5.452  18.933  0.00  0.00    +0.000 A 
ATOM      5  C   UNL     1       1.993   5.427  20.230  0.00  0.00    +0.000 A 
ATOM      6  C   UNL     1       1.542   6.615  20.818  0.00  0.00    +0.000 A 
ENDROOT
BRANCH   1   9
ATOM      7  O   UNL     1      -0.775   8.290  21.817  0.00  0.00    +0.000 OA
ATOM      8  C   UNL     1       0.030   9.162  21.511  0.00  0.00    +0.000 C 
ATOM      9  N   UNL     1       1.196   8.999  20.793  0.00  0.00    +0.000 N 
ATOM     10  H   UNL     1       1.831   9.785  20.736  0.00  0.00    +0.000 HD
BRANCH   8  11
ATOM     11  C   UNL     1      -0.184  10.574  21.936  0.00  0.00    +0.000 C 
ATOM     12  C   UNL     1      -1.301  10.907  22.604  0.00  0.00    +0.000 C 
BRANCH  12  13
ATOM     13  C   UNL     1      -1.613  12.263  23.068  0.00  0.00    +0.000 A 
ATOM     14  C   UNL     1      -0.731  13.339  22.932  0.00  0.00    +0.000 A 
ATOM     15  C   UNL     1      -1.094  14.603  23.400  0.00  0.00    +0.000 A 
ATOM     16  C   UNL     1      -2.344  14.757  23.973  0.00  0.00    +0.000 A 
ATOM     17  N   UNL     1      -3.240  13.758  24.095  0.00  0.00    +0.000 NA
ATOM     18  C   UNL     1      -2.858  12.540  23.634  0.00  0.00    +0.000 A 
ENDBRANCH  12  13
ENDBRANCH   8  11
ENDBRANCH   1   9
BRANCH   4  19
ATOM     19  S   UNL     1       3.176   3.966  18.207  0.00  0.00    +0.000 S 
ATOM     20  O   UNL     1       3.469   3.075  19.320  0.00  0.00    +0.000 OA
ATOM     21  O   UNL     1       2.248   3.532  17.173  0.00  0.00    +0.000 OA
BRANCH  19  22
ATOM     22  C   UNL     1       4.708   4.297  17.400  0.00  0.00    +0.000 A 
ATOM     23  C   UNL     1       4.863   3.923  16.057  0.00  0.00    +0.000 A 
ATOM     24  C   UNL     1       6.095   4.110  15.411  0.00  0.00    +0.000 A 
ATOM     25  C   UNL     1       7.181   4.649  16.101  0.00  0.00    +0.000 A 
ATOM     26  C   UNL     1       7.007   5.005  17.429  0.00  0.00    +0.000 A 
ATOM     27  C   UNL     1       5.782   4.847  18.065  0.00  0.00    +0.000 A 
ATOM     28  O   UNL     1       5.785   5.319  19.348  0.00  0.00    +0.000 OA
ATOM     29  C   UNL     1       7.177   5.554  19.655  0.00  0.00    +0.000 C 
ATOM     30  C   UNL     1       7.982   5.617  18.359  0.00  0.00    +0.000 C 
ENDBRANCH  19  22
ENDBRANCH   4  19
TORSDOF 5
ENDMDL
MODEL 6
REMARK VINA RESULT:      -8.4      5.592      8.097
REMARK  Name = 
REMARK  5 active torsions:
REMARK  status: ('A' for Active; 'I' for Inactive)
REMARK    1  A    between atoms: C_2  and  C_3
REMARK    2  A    between atoms: C_4  and  C_5
REMARK    3  A    between atoms: N_11  and  C_12
REMARK    4  A    between atoms: C_15  and  S_16
REMARK    5  A    between atoms: S_16  and  C_19
REMARK                            x       y       z     vdW  Elec       q    Type
REMARK                         _______ _______ _______ _____ _____    ______ ____
ROOT
ATOM      1  C   UNL     1       7.860   8.109  17.753  0.00  0.00    +0.000 A 
ATOM      2  C   UNL     1       8.212   7.068  18.621  0.00  0.00    +0.000 A 
ATOM      3  C   UNL     1       7.392   5.942  18.760  0.00  0.00    +0.000 A 
ATOM      4  C   UNL     1       6.216   5.851  18.017  0.00  0.00    +0.000 A 
ATOM      5  C   UNL     1       5.851   6.878  17.144  0.00  0.00    +0.000 A 
ATOM      6  C   UNL     1       6.676   8.002  17.013  0.00  0.00    +0.000 A 
ENDROOT
BRANCH   1   9
ATOM      7  O   UNL     1       8.934   9.909  19.846  0.00  0.00    +0.000 OA
ATOM      8  C   UNL     1       9.024  10.123  18.643  0.00  0.00    +0.000 C 
ATOM      9  N   UNL     1       8.616   9.294  17.620  0.00  0.00    +0.000 N 
ATOM     10  H   UNL     1       8.882   9.541  16.675  0.00  0.00    +0.000 HD
BRANCH   8  11
ATOM     11  C   UNL     1       9.647  11.381  18.142  0.00  0.00    +0.000 C 
ATOM     12  C   UNL     1       9.050  12.561  18.381  0.00  0.00    +0.000 C 
BRANCH  12  13
ATOM     13  C   UNL     1       9.573  13.857  17.934  0.00  0.00    +0.000 A 
ATOM     14  C   UNL     1       8.870  15.056  18.078  0.00  0.00    +0.000 A 
ATOM     15  C   UNL     1       9.429  16.252  17.626  0.00  0.00    +0.000 A 
ATOM     16  C   UNL     1      10.690  16.215  17.059  0.00  0.00    +0.000 A 
ATOM     17  N   UNL     1      11.419  15.089  16.929  0.00  0.00    +0.000 NA
ATOM     18  C   UNL     1      10.849  13.941  17.375  0.00  0.00    +0.000 A 
ENDBRANCH  12  13
ENDBRANCH   8  11
ENDBRANCH   1   9
BRANCH   4  19
ATOM     19  S   UNL     1       5.131   4.460  18.265  0.00  0.00    +0.000 S 
ATOM     20  O   UNL     1       4.765   3.996  16.935  0.00  0.00    +0.000 OA
ATOM     21  O   UNL     1       5.797   3.543  19.179  0.00  0.00    +0.000 OA
BRANCH  19  22
ATOM     22  C   UNL     1       3.640   4.964  19.059  0.00  0.00    +0.000 A 
ATOM     23  C   UNL     1       3.432   6.328  19.311  0.00  0.00    +0.000 A 
ATOM     24  C   UNL     1       2.287   6.751  20.004  0.00  0.00    +0.000 A 
ATOM     25  C   UNL     1       1.356   5.819  20.466  0.00  0.00    +0.000 A 
ATOM     26  C   UNL     1       1.585   4.476  20.212  0.00  0.00    +0.000 A 
ATOM     27  C   UNL     1       2.703   4.055  19.503  0.00  0.00    +0.000 A 
ATOM     28  O   UNL     1       2.720   2.706  19.292  0.00  0.00    +0.000 OA
ATOM     29  C   UNL     1       1.684   2.181  20.150  0.00  0.00    +0.000 C 
ATOM     30  C   UNL     1       0.745   3.311  20.566  0.00  0.00    +0.000 C 
ENDBRANCH  19  22
ENDBRANCH   4  19
TORSDOF 5
ENDMDL
MODEL 7
REMARK VINA RESULT:      -8.3      1.058      1.115
REMARK  Name = 
REMARK  5 active torsions:
REMARK  status: ('A' for Active; 'I' for Inactive)
REMARK    1  A    between atoms: C_2  and  C_3
REMARK    2  A    between atoms: C_4  and  C_5
REMARK    3  A    between atoms: N_11  and  C_12
REMARK    4  A    between atoms: C_15  and  S_16
REMARK    5  A    between atoms: S_16  and  C_19
REMARK                            x       y       z     vdW  Elec       q    Type
REMARK                         _______ _______ _______ _____ _____    ______ ____
ROOT
ATOM      1  C   UNL     1       1.630   8.309  19.944  0.00  0.00    +0.000 A 
ATOM      2  C   UNL     1       2.207   8.132  18.680  0.00  0.00    +0.000 A 
ATOM      3  C   UNL     1       2.636   6.869  18.258  0.00  0.00    +0.000 A 
ATOM      4  C   UNL     1       2.477   5.770  19.102  0.00  0.00    +0.000 A 
ATOM      5  C   UNL     1       1.901   5.927  20.365  0.00  0.00    +0.000 A 
ATOM      6  C   UNL     1       1.478   7.196  20.780  0.00  0.00    +0.000 A 
ENDROOT
BRANCH   1   9
ATOM      7  O   UNL     1      -0.358  10.230  18.881  0.00  0.00    +0.000 OA
ATOM      8  C   UNL     1       0.352  10.445  19.856  0.00  0.00    +0.000 C 
ATOM      9  N   UNL     1       1.238   9.569  20.446  0.00  0.00    +0.000 N 
ATOM     10  H   UNL     1       1.654   9.838  21.329  0.00  0.00    +0.000 HD
BRANCH   8  11
ATOM     11  C   UNL     1       0.302  11.761  20.555  0.00  0.00    +0.000 C 
ATOM     12  C   UNL     1      -0.481  11.912  21.635  0.00  0.00    +0.000 C 
BRANCH  12  13
ATOM     13  C   UNL     1      -0.606  13.160  22.397  0.00  0.00    +0.000 A 
ATOM     14  C   UNL     1      -1.551  13.346  23.411  0.00  0.00    +0.000 A 
ATOM     15  C   UNL     1      -1.614  14.562  24.091  0.00  0.00    +0.000 A 
ATOM     16  C   UNL     1      -0.712  15.554  23.750  0.00  0.00    +0.000 A 
ATOM     17  N   UNL     1       0.237  15.409  22.804  0.00  0.00    +0.000 NA
ATOM     18  C   UNL     1       0.273  14.217  22.157  0.00  0.00    +0.000 A 
ENDBRANCH  12  13
ENDBRANCH   8  11
ENDBRANCH   1   9
BRANCH   4  19
ATOM     19  S   UNL     1       3.107   4.182  18.597  0.00  0.00    +0.000 S 
ATOM     20  O   UNL     1       3.434   3.473  19.826  0.00  0.00    +0.000 OA
ATOM     21  O   UNL     1       2.142   3.601  17.676  0.00  0.00    +0.000 OA
BRANCH  19  22
ATOM     22  C   UNL     1       4.612   4.364  17.697  0.00  0.00    +0.000 A 
ATOM     23  C   UNL     1       4.669   3.914  16.370  0.00  0.00    +0.000 A 
ATOM     24  C   UNL     1       5.873   3.982  15.653  0.00  0.00    +0.000 A 
ATOM     25  C   UNL     1       7.029   4.477  16.258  0.00  0.00    +0.000 A 
ATOM     26  C   UNL     1       6.951   4.910  17.572  0.00  0.00    +0.000 A 
ATOM     27  C   UNL     1       5.756   4.870  18.277  0.00  0.00    +0.000 A 
ATOM     28  O   UNL     1       5.860   5.403  19.531  0.00  0.00    +0.000 OA
ATOM     29  C   UNL     1       7.279   5.554  19.754  0.00  0.00    +0.000 C 
ATOM     30  C   UNL     1       8.015   5.497  18.417  0.00  0.00    +0.000 C 
ENDBRANCH  19  22
ENDBRANCH   4  19
TORSDOF 5
ENDMDL
MODEL 8
REMARK VINA RESULT:      -8.3      1.497      2.341
REMARK  Name = 
REMARK  5 active torsions:
REMARK  status: ('A' for Active; 'I' for Inactive)
REMARK    1  A    between atoms: C_2  and  C_3
REMARK    2  A    between atoms: C_4  and  C_5
REMARK    3  A    between atoms: N_11  and  C_12
REMARK    4  A    between atoms: C_15  and  S_16
REMARK    5  A    between atoms: S_16  and  C_19
REMARK                            x       y       z     vdW  Elec       q    Type
REMARK                         _______ _______ _______ _____ _____    ______ ____
ROOT
ATOM      1  C   UNL     1       1.341   8.369  20.021  0.00  0.00    +0.000 A 
ATOM      2  C   UNL     1       2.043   8.273  18.814  0.00  0.00    +0.000 A 
ATOM      3  C   UNL     1       2.630   7.065  18.420  0.00  0.00    +0.000 A 
ATOM      4  C   UNL     1       2.503   5.941  19.235  0.00  0.00    +0.000 A 
ATOM      5  C   UNL     1       1.804   6.018  20.441  0.00  0.00    +0.000 A 
ATOM      6  C   UNL     1       1.223   7.231  20.828  0.00  0.00    +0.000 A 
ENDROOT
BRANCH   1   9
ATOM      7  O   UNL     1       1.402   9.535  22.744  0.00  0.00    +0.000 OA
ATOM      8  C   UNL     1       0.792  10.024  21.802  0.00  0.00    +0.000 C 
ATOM      9  N   UNL     1       0.784   9.577  20.497  0.00  0.00    +0.000 N 
ATOM     10  H   UNL     1       0.345  10.163  19.798  0.00  0.00    +0.000 HD
BRANCH   8  11
ATOM     11  C   UNL     1      -0.041  11.246  21.989  0.00  0.00    +0.000 C 
ATOM     12  C   UNL     1      -1.027  11.246  22.902  0.00  0.00    +0.000 C 
BRANCH  12  13
ATOM     13  C   UNL     1      -1.906  12.391  23.168  0.00  0.00    +0.000 A 
ATOM     14  C   UNL     1      -1.508  13.719  22.984  0.00  0.00    +0.000 A 
ATOM     15  C   UNL     1      -2.397  14.758  23.261  0.00  0.00    +0.000 A 
ATOM     16  C   UNL     1      -3.671  14.435  23.695  0.00  0.00    +0.000 A 
ATOM     17  N   UNL     1      -4.108  13.170  23.855  0.00  0.00    +0.000 NA
ATOM     18  C   UNL     1      -3.222  12.181  23.581  0.00  0.00    +0.000 A 
ENDBRANCH  12  13
ENDBRANCH   8  11
ENDBRANCH   1   9
BRANCH   4  19
ATOM     19  S   UNL     1       3.329   4.430  18.774  0.00  0.00    +0.000 S 
ATOM     20  O   UNL     1       3.349   3.605  19.974  0.00  0.00    +0.000 OA
ATOM     21  O   UNL     1       2.678   3.925  17.575  0.00  0.00    +0.000 OA
BRANCH  19  22
ATOM     22  C   UNL     1       5.008   4.743  18.340  0.00  0.00    +0.000 A 
ATOM     23  C   UNL     1       5.884   5.232  19.320  0.00  0.00    +0.000 A 
ATOM     24  C   UNL     1       7.208   5.557  18.985  0.00  0.00    +0.000 A 
ATOM     25  C   UNL     1       7.660   5.414  17.672  0.00  0.00    +0.000 A 
ATOM     26  C   UNL     1       6.775   4.935  16.719  0.00  0.00    +0.000 A 
ATOM     27  C   UNL     1       5.473   4.587  17.051  0.00  0.00    +0.000 A 
ATOM     28  O   UNL     1       4.775   4.070  15.996  0.00  0.00    +0.000 OA
ATOM     29  C   UNL     1       5.592   4.348  14.837  0.00  0.00    +0.000 C 
ATOM     30  C   UNL     1       7.017   4.670  15.283  0.00  0.00    +0.000 C 
ENDBRANCH  19  22
ENDBRANCH   4  19
TORSDOF 5
ENDMDL
MODEL 9
REMARK VINA RESULT:      -8.2      2.386      2.924
REMARK  Name = 
REMARK  5 active torsions:
REMARK  status: ('A' for Active; 'I' for Inactive)
REMARK    1  A    between atoms: C_2  and  C_3
REMARK    2  A    between atoms: C_4  and  C_5
REMARK    3  A    between atoms: N_11  and  C_12
REMARK    4  A    between atoms: C_15  and  S_16
REMARK    5  A    between atoms: S_16  and  C_19
REMARK                            x       y       z     vdW  Elec       q    Type
REMARK                         _______ _______ _______ _____ _____    ______ ____
ROOT
ATOM      1  C   UNL     1       1.592   9.134  19.232  0.00  0.00    +0.000 A 
ATOM      2  C   UNL     1       1.508   8.238  20.306  0.00  0.00    +0.000 A 
ATOM      3  C   UNL     1       1.953   6.918  20.174  0.00  0.00    +0.000 A 
ATOM      4  C   UNL     1       2.497   6.492  18.963  0.00  0.00    +0.000 A 
ATOM      5  C   UNL     1       2.592   7.372  17.883  0.00  0.00    +0.000 A 
ATOM      6  C   UNL     1       2.142   8.691  18.023  0.00  0.00    +0.000 A 
ENDROOT
BRANCH   1   9
ATOM      7  O   UNL     1      -1.177  10.137  18.916  0.00  0.00    +0.000 OA
ATOM      8  C   UNL     1      -0.198  10.858  19.062  0.00  0.00    +0.000 C 
ATOM      9  N   UNL     1       1.102  10.456  19.289  0.00  0.00    +0.000 N 
ATOM     10  H   UNL     1       1.783  11.167  19.528  0.00  0.00    +0.000 HD
BRANCH   8  11
ATOM     11  C   UNL     1      -0.336  12.342  19.022  0.00  0.00    +0.000 C 
ATOM     12  C   UNL     1       0.762  13.110  18.922  0.00  0.00    +0.000 C 
BRANCH  12  13
ATOM     13  C   UNL     1       0.742  14.577  18.877  0.00  0.00    +0.000 A 
ATOM     14  C   UNL     1      -0.421  15.332  19.058  0.00  0.00    +0.000 A 
ATOM     15  C   UNL     1      -0.365  16.724  18.998  0.00  0.00    +0.000 A 
ATOM     16  C   UNL     1       0.862  17.324  18.777  0.00  0.00    +0.000 A 
ATOM     17  N   UNL     1       2.014  16.640  18.630  0.00  0.00    +0.000 NA
ATOM     18  C   UNL     1       1.928  15.287  18.691  0.00  0.00    +0.000 A 
ENDBRANCH  12  13
ENDBRANCH   8  11
ENDBRANCH   1   9
BRANCH   4  19
ATOM     19  S   UNL     1       2.978   4.787  18.772  0.00  0.00    +0.000 S 
ATOM     20  O   UNL     1       3.285   4.306  20.112  0.00  0.00    +0.000 OA
ATOM     21  O   UNL     1       1.938   4.123  18.000  0.00  0.00    +0.000 OA
BRANCH  19  22
ATOM     22  C   UNL     1       4.461   4.657  17.830  0.00  0.00    +0.000 A 
ATOM     23  C   UNL     1       4.403   4.101  16.543  0.00  0.00    +0.000 A 
ATOM     24  C   UNL     1       5.579   3.921  15.799  0.00  0.00    +0.000 A 
ATOM     25  C   UNL     1       6.818   4.273  16.337  0.00  0.00    +0.000 A 
ATOM     26  C   UNL     1       6.852   4.815  17.612  0.00  0.00    +0.000 A 
ATOM     27  C   UNL     1       5.689   5.020  18.342  0.00  0.00    +0.000 A 
ATOM     28  O   UNL     1       5.917   5.626  19.545  0.00  0.00    +0.000 OA
ATOM     29  C   UNL     1       7.349   5.568  19.726  0.00  0.00    +0.000 C 
ATOM     30  C   UNL     1       8.022   5.290  18.384  0.00  0.00    +0.000 C 
ENDBRANCH  19  22
ENDBRANCH   4  19
TORSDOF 5
ENDMDL
