MODEL 1
REMARK VINA RESULT:      -8.1      0.000      0.000
REMARK  Name = 
REMARK  5 active torsions:
REMARK  status: ('A' for Active; 'I' for Inactive)
REMARK    1  A    between atoms: C_1  and  C_2
REMARK    2  A    between atoms: C_2  and  C_3
REMARK    3  A    between atoms: N_10  and  O_11
REMARK    4  A    between atoms: O_11  and  C_12
REMARK    5  A    between atoms: C_12  and  C_13
REMARK                            x       y       z     vdW  Elec       q    Type
REMARK                         _______ _______ _______ _____ _____    ______ ____
ROOT
ATOM      1  C   UNL     1       2.416   3.876  20.563  0.00  0.00    +0.000 C 
ATOM      2  N   UNL     1       3.253   2.686  20.699  0.00  0.00    +0.000 NA
ATOM      3  C   UNL     1       4.302   2.618  19.955  0.00  0.00    +0.000 C 
ATOM      4  N   UNL     1       5.097   1.527  20.076  0.00  0.00    +0.000 N 
ATOM      5  N   UNL     1       4.678   3.528  19.018  0.00  0.00    +0.000 NA
ATOM      6  C   UNL     1       4.029   4.643  18.968  0.00  0.00    +0.000 C 
ATOM      7  N   UNL     1       4.402   5.606  18.083  0.00  0.00    +0.000 N 
ATOM      8  N   UNL     1       2.984   4.956  19.783  0.00  0.00    +0.000 N 
ATOM      9  H   UNL     1       4.613   0.734  20.473  0.00  0.00    +0.000 HD
ATOM     10  H   UNL     1       5.625   1.333  19.238  0.00  0.00    +0.000 HD
ATOM     11  H   UNL     1       5.013   5.249  17.356  0.00  0.00    +0.000 HD
ATOM     12  H   UNL     1       3.623   6.151  17.735  0.00  0.00    +0.000 HD
ENDROOT
BRANCH   1  14
ATOM     13  C   UNL     1       0.940   2.597  18.851  0.00  0.00    +0.000 C 
ATOM     14  C   UNL     1       1.006   3.443  20.117  0.00  0.00    +0.000 C 
ENDBRANCH   1  14
BRANCH   8  15
ATOM     15  O   UNL     1       2.122   5.983  19.361  0.00  0.00    +0.000 OA
BRANCH  15  16
ATOM     16  C   UNL     1       1.970   6.910  20.458  0.00  0.00    +0.000 C 
BRANCH  16  17
ATOM     17  C   UNL     1       1.534   8.294  19.990  0.00  0.00    +0.000 A 
ATOM     18  C   UNL     1       1.841   8.717  18.682  0.00  0.00    +0.000 A 
ATOM     19  C   UNL     1       1.432   9.963  18.216  0.00  0.00    +0.000 A 
ATOM     20  C   UNL     1       0.704  10.810  19.041  0.00  0.00    +0.000 A 
ATOM     21  C   UNL     1       0.385  10.434  20.351  0.00  0.00    +0.000 A 
ATOM     22  C   UNL     1      -0.350  11.317  21.161  0.00  0.00    +0.000 A 
ATOM     23  C   UNL     1      -0.674  10.984  22.472  0.00  0.00    +0.000 A 
ATOM     24  C   UNL     1      -0.265   9.762  22.990  0.00  0.00    +0.000 A 
ATOM     25  C   UNL     1       0.460   8.869  22.193  0.00  0.00    +0.000 A 
ATOM     26  C   UNL     1       0.804   9.171  20.853  0.00  0.00    +0.000 A 
ENDBRANCH  16  17
ENDBRANCH  15  16
ENDBRANCH   8  15
TORSDOF 4
ENDMDL
MODEL 2
REMARK VINA RESULT:      -7.8      1.329      1.520
REMARK  Name = 
REMARK  5 active torsions:
REMARK  status: ('A' for Active; 'I' for Inactive)
REMARK    1  A    between atoms: C_1  and  C_2
REMARK    2  A    between atoms: C_2  and  C_3
REMARK    3  A    between atoms: N_10  and  O_11
REMARK    4  A    between atoms: O_11  and  C_12
REMARK    5  A    between atoms: C_12  and  C_13
REMARK                            x       y       z     vdW  Elec       q    Type
REMARK                         _______ _______ _______ _____ _____    ______ ____
ROOT
ATOM      1  C   UNL     1       3.268   3.679  20.340  0.00  0.00    +0.000 C 
ATOM      2  N   UNL     1       3.835   2.401  19.914  0.00  0.00    +0.000 NA
ATOM      3  C   UNL     1       3.480   1.957  18.758  0.00  0.00    +0.000 C 
ATOM      4  N   UNL     1       4.005   0.780  18.341  0.00  0.00    +0.000 N 
ATOM      5  N   UNL     1       2.586   2.543  17.918  0.00  0.00    +0.000 NA
ATOM      6  C   UNL     1       2.170   3.728  18.213  0.00  0.00    +0.000 C 
ATOM      7  N   UNL     1       1.316   4.376  17.376  0.00  0.00    +0.000 N 
ATOM      8  N   UNL     1       2.557   4.421  19.320  0.00  0.00    +0.000 N 
ATOM      9  H   UNL     1       4.341   0.210  19.104  0.00  0.00    +0.000 HD
ATOM     10  H   UNL     1       3.414   0.302  17.675  0.00  0.00    +0.000 HD
ATOM     11  H   UNL     1       0.879   3.750  16.707  0.00  0.00    +0.000 HD
ATOM     12  H   UNL     1       0.663   4.980  17.860  0.00  0.00    +0.000 HD
ENDROOT
BRANCH   1  14
ATOM     13  C   UNL     1       1.301   2.483  21.543  0.00  0.00    +0.000 C 
ATOM     14  C   UNL     1       2.468   3.458  21.639  0.00  0.00    +0.000 C 
ENDBRANCH   1  14
BRANCH   8  15
ATOM     15  O   UNL     1       1.738   5.485  19.735  0.00  0.00    +0.000 OA
BRANCH  15  16
ATOM     16  C   UNL     1       2.590   6.620  20.000  0.00  0.00    +0.000 C 
BRANCH  16  17
ATOM     17  C   UNL     1       1.962   7.934  19.549  0.00  0.00    +0.000 A 
ATOM     18  C   UNL     1       2.100   8.348  18.209  0.00  0.00    +0.000 A 
ATOM     19  C   UNL     1       1.516   9.528  17.758  0.00  0.00    +0.000 A 
ATOM     20  C   UNL     1       0.776  10.315  18.632  0.00  0.00    +0.000 A 
ATOM     21  C   UNL     1       0.621   9.946  19.973  0.00  0.00    +0.000 A 
ATOM     22  C   UNL     1      -0.132  10.767  20.830  0.00  0.00    +0.000 A 
ATOM     23  C   UNL     1      -0.297  10.441  22.172  0.00  0.00    +0.000 A 
ATOM     24  C   UNL     1       0.291   9.287  22.674  0.00  0.00    +0.000 A 
ATOM     25  C   UNL     1       1.036   8.454  21.830  0.00  0.00    +0.000 A 
ATOM     26  C   UNL     1       1.220   8.752  20.458  0.00  0.00    +0.000 A 
ENDBRANCH  16  17
ENDBRANCH  15  16
ENDBRANCH   8  15
TORSDOF 4
ENDMDL
MODEL 3
REMARK VINA RESULT:      -7.5      1.436      2.046
REMARK  Name = 
REMARK  5 active torsions:
REMARK  status: ('A' for Active; 'I' for Inactive)
REMARK    1  A    between atoms: C_1  and  C_2
REMARK    2  A    between atoms: C_2  and  C_3
REMARK    3  A    between atoms: N_10  and  O_11
REMARK    4  A    between atoms: O_11  and  C_12
REMARK    5  A    between atoms: C_12  and  C_13
REMARK                            x       y       z     vdW  Elec       q    Type
REMARK                         _______ _______ _______ _____ _____    ______ ____
ROOT
ATOM      1  C   UNL     1       4.530   4.688  19.357  0.00  0.00    +0.000 C 
ATOM      2  N   UNL     1       5.893   4.201  19.159  0.00  0.00    +0.000 NA
ATOM      3  C   UNL     1       6.556   4.696  18.172  0.00  0.00    +0.000 C 
ATOM      4  N   UNL     1       7.827   4.265  17.980  0.00  0.00    +0.000 N 
ATOM      5  N   UNL     1       6.087   5.593  17.264  0.00  0.00    +0.000 NA
ATOM      6  C   UNL     1       4.936   6.131  17.490  0.00  0.00    +0.000 C 
ATOM      7  N   UNL     1       4.449   7.073  16.638  0.00  0.00    +0.000 N 
ATOM      8  N   UNL     1       4.157   5.845  18.569  0.00  0.00    +0.000 N 
ATOM      9  H   UNL     1       8.002   3.367  18.407  0.00  0.00    +0.000 HD
ATOM     10  H   UNL     1       8.129   4.353  17.021  0.00  0.00    +0.000 HD
ATOM     11  H   UNL     1       4.937   7.081  15.749  0.00  0.00    +0.000 HD
ATOM     12  H   UNL     1       3.440   7.051  16.553  0.00  0.00    +0.000 HD
ENDROOT
BRANCH   1  14
ATOM     13  C   UNL     1       2.896   3.052  20.539  0.00  0.00    +0.000 C 
ATOM     14  C   UNL     1       3.556   3.499  19.241  0.00  0.00    +0.000 C 
ENDBRANCH   1  14
BRANCH   8  15
ATOM     15  O   UNL     1       2.790   6.164  18.481  0.00  0.00    +0.000 OA
BRANCH  15  16
ATOM     16  C   UNL     1       2.421   6.858  19.693  0.00  0.00    +0.000 C 
BRANCH  16  17
ATOM     17  C   UNL     1       1.781   8.213  19.413  0.00  0.00    +0.000 A 
ATOM     18  C   UNL     1       1.847   8.761  18.116  0.00  0.00    +0.000 A 
ATOM     19  C   UNL     1       1.249   9.981  17.821  0.00  0.00    +0.000 A 
ATOM     20  C   UNL     1       0.567  10.678  18.810  0.00  0.00    +0.000 A 
ATOM     21  C   UNL     1       0.484  10.175  20.114  0.00  0.00    +0.000 A 
ATOM     22  C   UNL     1      -0.212  10.908  21.091  0.00  0.00    +0.000 A 
ATOM     23  C   UNL     1      -0.304  10.448  22.401  0.00  0.00    +0.000 A 
ATOM     24  C   UNL     1       0.300   9.247  22.749  0.00  0.00    +0.000 A 
ATOM     25  C   UNL     1       0.989   8.501  21.784  0.00  0.00    +0.000 A 
ATOM     26  C   UNL     1       1.099   8.936  20.441  0.00  0.00    +0.000 A 
ENDBRANCH  16  17
ENDBRANCH  15  16
ENDBRANCH   8  15
TORSDOF 4
ENDMDL
MODEL 4
REMARK VINA RESULT:      -7.2      3.684      7.159
REMARK  Name = 
REMARK  5 active torsions:
REMARK  status: ('A' for Active; 'I' for Inactive)
REMARK    1  A    between atoms: C_1  and  C_2
REMARK    2  A    between atoms: C_2  and  C_3
REMARK    3  A    between atoms: N_10  and  O_11
REMARK    4  A    between atoms: O_11  and  C_12
REMARK    5  A    between atoms: C_12  and  C_13
REMARK                            x       y       z     vdW  Elec       q    Type
REMARK                         _______ _______ _______ _____ _____    ______ ____
ROOT
ATOM      1  C   UNL     1       1.029  10.302  19.895  0.00  0.00    +0.000 C 
ATOM      2  N   UNL     1       0.967  11.747  20.104  0.00  0.00    +0.000 NA
ATOM      3  C   UNL     1       0.450  12.160  21.208  0.00  0.00    +0.000 C 
ATOM      4  N   UNL     1       0.395  13.497  21.425  0.00  0.00    +0.000 N 
ATOM      5  N   UNL     1      -0.091  11.376  22.179  0.00  0.00    +0.000 NA
ATOM      6  C   UNL     1       0.065  10.099  22.078  0.00  0.00    +0.000 C 
ATOM      7  N   UNL     1      -0.412   9.277  23.052  0.00  0.00    +0.000 N 
ATOM      8  N   UNL     1       0.722   9.488  21.054  0.00  0.00    +0.000 N 
ATOM      9  H   UNL     1       0.443  14.032  20.569  0.00  0.00    +0.000 HD
ATOM     10  H   UNL     1      -0.348  13.760  22.056  0.00  0.00    +0.000 HD
ATOM     11  H   UNL     1      -1.082   9.741  23.656  0.00  0.00    +0.000 HD
ATOM     12  H   UNL     1      -0.726   8.382  22.699  0.00  0.00    +0.000 HD
ENDROOT
BRANCH   1  14
ATOM     13  C   UNL     1      -1.244  10.382  18.642  0.00  0.00    +0.000 C 
ATOM     14  C   UNL     1       0.216   9.947  18.635  0.00  0.00    +0.000 C 
ENDBRANCH   1  14
BRANCH   8  15
ATOM     15  O   UNL     1       0.463   8.122  20.844  0.00  0.00    +0.000 OA
BRANCH  15  16
ATOM     16  C   UNL     1       1.690   7.399  21.081  0.00  0.00    +0.000 C 
BRANCH  16  17
ATOM     17  C   UNL     1       2.164   6.640  19.847  0.00  0.00    +0.000 A 
ATOM     18  C   UNL     1       2.860   7.325  18.831  0.00  0.00    +0.000 A 
ATOM     19  C   UNL     1       3.331   6.656  17.706  0.00  0.00    +0.000 A 
ATOM     20  C   UNL     1       3.124   5.289  17.573  0.00  0.00    +0.000 A 
ATOM     21  C   UNL     1       2.430   4.571  18.553  0.00  0.00    +0.000 A 
ATOM     22  C   UNL     1       2.236   3.189  18.385  0.00  0.00    +0.000 A 
ATOM     23  C   UNL     1       1.540   2.443  19.331  0.00  0.00    +0.000 A 
ATOM     24  C   UNL     1       1.028   3.073  20.458  0.00  0.00    +0.000 A 
ATOM     25  C   UNL     1       1.221   4.447  20.644  0.00  0.00    +0.000 A 
ATOM     26  C   UNL     1       1.929   5.236  19.705  0.00  0.00    +0.000 A 
ENDBRANCH  16  17
ENDBRANCH  15  16
ENDBRANCH   8  15
TORSDOF 4
ENDMDL
MODEL 5
REMARK VINA RESULT:      -7.2      3.404      7.126
REMARK  Name = 
REMARK  5 active torsions:
REMARK  status: ('A' for Active; 'I' for Inactive)
REMARK    1  A    between atoms: C_1  and  C_2
REMARK    2  A    between atoms: C_2  and  C_3
REMARK    3  A    between atoms: N_10  and  O_11
REMARK    4  A    between atoms: O_11  and  C_12
REMARK    5  A    between atoms: C_12  and  C_13
REMARK                            x       y       z     vdW  Elec       q    Type
REMARK                         _______ _______ _______ _____ _____    ______ ____
ROOT
ATOM      1  C   UNL     1       0.162   9.288  20.731  0.00  0.00    +0.000 C 
ATOM      2  N   UNL     1      -0.879  10.313  20.684  0.00  0.00    +0.000 NA
ATOM      3  C   UNL     1      -0.822  11.163  19.718  0.00  0.00    +0.000 C 
ATOM      4  N   UNL     1      -1.785  12.114  19.651  0.00  0.00    +0.000 N 
ATOM      5  N   UNL     1       0.145  11.227  18.765  0.00  0.00    +0.000 NA
ATOM      6  C   UNL     1       1.000  10.261  18.710  0.00  0.00    +0.000 C 
ATOM      7  N   UNL     1       1.954  10.253  17.740  0.00  0.00    +0.000 N 
ATOM      8  N   UNL     1       1.002   9.193  19.555  0.00  0.00    +0.000 N 
ATOM      9  H   UNL     1      -2.239  12.273  20.539  0.00  0.00    +0.000 HD
ATOM     10  H   UNL     1      -1.479  12.947  19.169  0.00  0.00    +0.000 HD
ATOM     11  H   UNL     1       2.061  11.158  17.295  0.00  0.00    +0.000 HD
ATOM     12  H   UNL     1       2.826   9.837  18.042  0.00  0.00    +0.000 HD
ENDROOT
BRANCH   1  14
ATOM     13  C   UNL     1       0.084   9.536  23.315  0.00  0.00    +0.000 C 
ATOM     14  C   UNL     1       0.936   9.427  22.056  0.00  0.00    +0.000 C 
ENDBRANCH   1  14
BRANCH   8  15
ATOM     15  O   UNL     1       2.195   8.456  19.660  0.00  0.00    +0.000 OA
BRANCH  15  16
ATOM     16  C   UNL     1       1.840   7.078  19.909  0.00  0.00    +0.000 C 
BRANCH  16  17
ATOM     17  C   UNL     1       2.523   6.120  18.939  0.00  0.00    +0.000 A 
ATOM     18  C   UNL     1       3.528   6.600  18.076  0.00  0.00    +0.000 A 
ATOM     19  C   UNL     1       4.191   5.747  17.200  0.00  0.00    +0.000 A 
ATOM     20  C   UNL     1       3.870   4.395  17.170  0.00  0.00    +0.000 A 
ATOM     21  C   UNL     1       2.871   3.877  18.003  0.00  0.00    +0.000 A 
ATOM     22  C   UNL     1       2.570   2.506  17.945  0.00  0.00    +0.000 A 
ATOM     23  C   UNL     1       1.575   1.957  18.747  0.00  0.00    +0.000 A 
ATOM     24  C   UNL     1       0.868   2.775  19.619  0.00  0.00    +0.000 A 
ATOM     25  C   UNL     1       1.164   4.142  19.695  0.00  0.00    +0.000 A 
ATOM     26  C   UNL     1       2.173   4.734  18.897  0.00  0.00    +0.000 A 
ENDBRANCH  16  17
ENDBRANCH  15  16
ENDBRANCH   8  15
TORSDOF 4
ENDMDL
MODEL 6
REMARK VINA RESULT:      -7.2      1.141      1.430
REMARK  Name = 
REMARK  5 active torsions:
REMARK  status: ('A' for Active; 'I' for Inactive)
REMARK    1  A    between atoms: C_1  and  C_2
REMARK    2  A    between atoms: C_2  and  C_3
REMARK    3  A    between atoms: N_10  and  O_11
REMARK    4  A    between atoms: O_11  and  C_12
REMARK    5  A    between atoms: C_12  and  C_13
REMARK                            x       y       z     vdW  Elec       q    Type
REMARK                         _______ _______ _______ _____ _____    ______ ____
ROOT
ATOM      1  C   UNL     1       2.671   5.110  20.095  0.00  0.00    +0.000 C 
ATOM      2  N   UNL     1       3.684   4.059  20.034  0.00  0.00    +0.000 NA
ATOM      3  C   UNL     1       4.600   4.177  19.136  0.00  0.00    +0.000 C 
ATOM      4  N   UNL     1       5.556   3.218  19.073  0.00  0.00    +0.000 N 
ATOM      5  N   UNL     1       4.683   5.164  18.205  0.00  0.00    +0.000 NA
ATOM      6  C   UNL     1       3.878   6.167  18.317  0.00  0.00    +0.000 C 
ATOM      7  N   UNL     1       3.959   7.204  17.441  0.00  0.00    +0.000 N 
ATOM      8  N   UNL     1       2.942   6.289  19.299  0.00  0.00    +0.000 N 
ATOM      9  H   UNL     1       5.263   2.348  19.494  0.00  0.00    +0.000 HD
ATOM     10  H   UNL     1       5.966   3.135  18.153  0.00  0.00    +0.000 HD
ATOM     11  H   UNL     1       4.492   6.969  16.610  0.00  0.00    +0.000 HD
ATOM     12  H   UNL     1       3.063   7.634  17.247  0.00  0.00    +0.000 HD
ENDROOT
BRANCH   1  14
ATOM     13  C   UNL     1       1.015   3.166  20.568  0.00  0.00    +0.000 C 
ATOM     14  C   UNL     1       1.287   4.480  19.845  0.00  0.00    +0.000 C 
ENDBRANCH   1  14
BRANCH   8  15
ATOM     15  O   UNL     1       1.882   7.184  19.072  0.00  0.00    +0.000 OA
BRANCH  15  16
ATOM     16  C   UNL     1       1.744   8.011  20.247  0.00  0.00    +0.000 C 
BRANCH  16  17
ATOM     17  C   UNL     1       0.894   9.250  19.987  0.00  0.00    +0.000 A 
ATOM     18  C   UNL     1       0.819   9.784  18.686  0.00  0.00    +0.000 A 
ATOM     19  C   UNL     1       0.030  10.896  18.410  0.00  0.00    +0.000 A 
ATOM     20  C   UNL     1      -0.706  11.495  19.425  0.00  0.00    +0.000 A 
ATOM     21  C   UNL     1      -0.653  11.003  20.734  0.00  0.00    +0.000 A 
ATOM     22  C   UNL     1      -1.408  11.636  21.737  0.00  0.00    +0.000 A 
ATOM     23  C   UNL     1      -1.371  11.185  23.053  0.00  0.00    +0.000 A 
ATOM     24  C   UNL     1      -0.577  10.094  23.381  0.00  0.00    +0.000 A 
ATOM     25  C   UNL     1       0.173   9.448  22.391  0.00  0.00    +0.000 A 
ATOM     26  C   UNL     1       0.156   9.876  21.041  0.00  0.00    +0.000 A 
ENDBRANCH  16  17
ENDBRANCH  15  16
ENDBRANCH   8  15
TORSDOF 4
ENDMDL
MODEL 7
REMARK VINA RESULT:      -7.2      1.229      2.326
REMARK  Name = 
REMARK  5 active torsions:
REMARK  status: ('A' for Active; 'I' for Inactive)
REMARK    1  A    between atoms: C_1  and  C_2
REMARK    2  A    between atoms: C_2  and  C_3
REMARK    3  A    between atoms: N_10  and  O_11
REMARK    4  A    between atoms: O_11  and  C_12
REMARK    5  A    between atoms: C_12  and  C_13
REMARK                            x       y       z     vdW  Elec       q    Type
REMARK                         _______ _______ _______ _____ _____    ______ ____
ROOT
ATOM      1  C   UNL     1       3.786   4.500  18.261  0.00  0.00    +0.000 C 
ATOM      2  N   UNL     1       3.977   3.129  17.793  0.00  0.00    +0.000 NA
ATOM      3  C   UNL     1       3.698   2.182  18.620  0.00  0.00    +0.000 C 
ATOM      4  N   UNL     1       3.857   0.903  18.199  0.00  0.00    +0.000 N 
ATOM      5  N   UNL     1       3.289   2.339  19.906  0.00  0.00    +0.000 NA
ATOM      6  C   UNL     1       2.991   3.532  20.302  0.00  0.00    +0.000 C 
ATOM      7  N   UNL     1       2.526   3.732  21.565  0.00  0.00    +0.000 N 
ATOM      8  N   UNL     1       3.078   4.641  19.517  0.00  0.00    +0.000 N 
ATOM      9  H   UNL     1       4.496   0.827  17.421  0.00  0.00    +0.000 HD
ATOM     10  H   UNL     1       4.025   0.260  18.959  0.00  0.00    +0.000 HD
ATOM     11  H   UNL     1       2.700   2.938  22.172  0.00  0.00    +0.000 HD
ATOM     12  H   UNL     1       2.811   4.621  21.958  0.00  0.00    +0.000 HD
ENDROOT
BRANCH   1  14
ATOM     13  C   UNL     1       5.234   6.383  17.210  0.00  0.00    +0.000 C 
ATOM     14  C   UNL     1       5.139   5.236  18.209  0.00  0.00    +0.000 C 
ENDBRANCH   1  14
BRANCH   8  15
ATOM     15  O   UNL     1       3.135   5.888  20.165  0.00  0.00    +0.000 OA
BRANCH  15  16
ATOM     16  C   UNL     1       1.787   6.399  20.255  0.00  0.00    +0.000 C 
BRANCH  16  17
ATOM     17  C   UNL     1       1.665   7.812  19.694  0.00  0.00    +0.000 A 
ATOM     18  C   UNL     1       2.161   8.095  18.406  0.00  0.00    +0.000 A 
ATOM     19  C   UNL     1       2.039   9.367  17.854  0.00  0.00    +0.000 A 
ATOM     20  C   UNL     1       1.415  10.379  18.571  0.00  0.00    +0.000 A 
ATOM     21  C   UNL     1       0.916  10.144  19.858  0.00  0.00    +0.000 A 
ATOM     22  C   UNL     1       0.293  11.192  20.556  0.00  0.00    +0.000 A 
ATOM     23  C   UNL     1      -0.203  11.000  21.842  0.00  0.00    +0.000 A 
ATOM     24  C   UNL     1      -0.081   9.755  22.445  0.00  0.00    +0.000 A 
ATOM     25  C   UNL     1       0.530   8.699  21.757  0.00  0.00    +0.000 A 
ATOM     26  C   UNL     1       1.041   8.856  20.446  0.00  0.00    +0.000 A 
ENDBRANCH  16  17
ENDBRANCH  15  16
ENDBRANCH   8  15
TORSDOF 4
ENDMDL
MODEL 8
REMARK VINA RESULT:      -7.1      1.985      3.231
REMARK  Name = 
REMARK  5 active torsions:
REMARK  status: ('A' for Active; 'I' for Inactive)
REMARK    1  A    between atoms: C_1  and  C_2
REMARK    2  A    between atoms: C_2  and  C_3
REMARK    3  A    between atoms: N_10  and  O_11
REMARK    4  A    between atoms: O_11  and  C_12
REMARK    5  A    between atoms: C_12  and  C_13
REMARK                            x       y       z     vdW  Elec       q    Type
REMARK                         _______ _______ _______ _____ _____    ______ ____
ROOT
ATOM      1  C   UNL     1       4.931   5.176  18.858  0.00  0.00    +0.000 C 
ATOM      2  N   UNL     1       6.267   4.583  18.870  0.00  0.00    +0.000 NA
ATOM      3  C   UNL     1       6.989   4.743  17.816  0.00  0.00    +0.000 C 
ATOM      4  N   UNL     1       8.236   4.211  17.813  0.00  0.00    +0.000 N 
ATOM      5  N   UNL     1       6.606   5.369  16.672  0.00  0.00    +0.000 NA
ATOM      6  C   UNL     1       5.484   6.007  16.682  0.00  0.00    +0.000 C 
ATOM      7  N   UNL     1       5.083   6.694  15.578  0.00  0.00    +0.000 N 
ATOM      8  N   UNL     1       4.655   6.079  17.760  0.00  0.00    +0.000 N 
ATOM      9  H   UNL     1       8.341   3.462  18.483  0.00  0.00    +0.000 HD
ATOM     10  H   UNL     1       8.572   4.007  16.883  0.00  0.00    +0.000 HD
ATOM     11  H   UNL     1       5.598   6.424  14.746  0.00  0.00    +0.000 HD
ATOM     12  H   UNL     1       4.078   6.700  15.455  0.00  0.00    +0.000 HD
ENDROOT
BRANCH   1  14
ATOM     13  C   UNL     1       4.399   2.768  19.672  0.00  0.00    +0.000 C 
ATOM     14  C   UNL     1       3.889   4.054  19.035  0.00  0.00    +0.000 C 
ENDBRANCH   1  14
BRANCH   8  15
ATOM     15  O   UNL     1       3.315   6.430  17.522  0.00  0.00    +0.000 OA
BRANCH  15  16
ATOM     16  C   UNL     1       3.153   7.820  17.881  0.00  0.00    +0.000 C 
BRANCH  16  17
ATOM     17  C   UNL     1       2.205   8.006  19.061  0.00  0.00    +0.000 A 
ATOM     18  C   UNL     1       2.075   6.982  20.019  0.00  0.00    +0.000 A 
ATOM     19  C   UNL     1       1.241   7.133  21.122  0.00  0.00    +0.000 A 
ATOM     20  C   UNL     1       0.525   8.310  21.297  0.00  0.00    +0.000 A 
ATOM     21  C   UNL     1       0.618   9.350  20.364  0.00  0.00    +0.000 A 
ATOM     22  C   UNL     1      -0.123  10.527  20.570  0.00  0.00    +0.000 A 
ATOM     23  C   UNL     1      -0.068  11.577  19.659  0.00  0.00    +0.000 A 
ATOM     24  C   UNL     1       0.731  11.461  18.528  0.00  0.00    +0.000 A 
ATOM     25  C   UNL     1       1.481  10.299  18.315  0.00  0.00    +0.000 A 
ATOM     26  C   UNL     1       1.454   9.213  19.223  0.00  0.00    +0.000 A 
ENDBRANCH  16  17
ENDBRANCH  15  16
ENDBRANCH   8  15
TORSDOF 4
ENDMDL
MODEL 9
REMARK VINA RESULT:      -7.1      3.923      6.615
REMARK  Name = 
REMARK  5 active torsions:
REMARK  status: ('A' for Active; 'I' for Inactive)
REMARK    1  A    between atoms: C_1  and  C_2
REMARK    2  A    between atoms: C_2  and  C_3
REMARK    3  A    between atoms: N_10  and  O_11
REMARK    4  A    between atoms: O_11  and  C_12
REMARK    5  A    between atoms: C_12  and  C_13
REMARK                            x       y       z     vdW  Elec       q    Type
REMARK                         _______ _______ _______ _____ _____    ______ ____
ROOT
ATOM      1  C   UNL     1       6.769   5.256  15.810  0.00  0.00    +0.000 C 
ATOM      2  N   UNL     1       7.817   5.859  14.989  0.00  0.00    +0.000 NA
ATOM      3  C   UNL     1       7.925   5.443  13.775  0.00  0.00    +0.000 C 
ATOM      4  N   UNL     1       8.883   6.000  12.995  0.00  0.00    +0.000 N 
ATOM      5  N   UNL     1       7.186   4.458  13.200  0.00  0.00    +0.000 NA
ATOM      6  C   UNL     1       6.175   4.000  13.859  0.00  0.00    +0.000 C 
ATOM      7  N   UNL     1       5.375   3.051  13.303  0.00  0.00    +0.000 N 
ATOM      8  N   UNL     1       5.814   4.431  15.099  0.00  0.00    +0.000 N 
ATOM      9  H   UNL     1       9.626   6.423  13.534  0.00  0.00    +0.000 HD
ATOM     10  H   UNL     1       9.186   5.388  12.251  0.00  0.00    +0.000 HD
ATOM     11  H   UNL     1       5.806   2.601  12.502  0.00  0.00    +0.000 HD
ATOM     12  H   UNL     1       4.992   2.405  13.981  0.00  0.00    +0.000 HD
ENDROOT
BRANCH   1  14
ATOM     13  C   UNL     1       7.410   5.364  18.324  0.00  0.00    +0.000 C 
ATOM     14  C   UNL     1       7.423   4.569  17.024  0.00  0.00    +0.000 C 
ENDBRANCH   1  14
BRANCH   8  15
ATOM     15  O   UNL     1       4.984   3.587  15.859  0.00  0.00    +0.000 OA
BRANCH  15  16
ATOM     16  C   UNL     1       3.913   4.391  16.398  0.00  0.00    +0.000 C 
BRANCH  16  17
ATOM     17  C   UNL     1       3.254   3.742  17.611  0.00  0.00    +0.000 A 
ATOM     18  C   UNL     1       3.177   2.338  17.694  0.00  0.00    +0.000 A 
ATOM     19  C   UNL     1       2.608   1.714  18.800  0.00  0.00    +0.000 A 
ATOM     20  C   UNL     1       2.111   2.477  19.849  0.00  0.00    +0.000 A 
ATOM     21  C   UNL     1       2.160   3.875  19.804  0.00  0.00    +0.000 A 
ATOM     22  C   UNL     1       1.644   4.616  20.881  0.00  0.00    +0.000 A 
ATOM     23  C   UNL     1       1.662   6.007  20.867  0.00  0.00    +0.000 A 
ATOM     24  C   UNL     1       2.195   6.675  19.772  0.00  0.00    +0.000 A 
ATOM     25  C   UNL     1       2.721   5.950  18.696  0.00  0.00    +0.000 A 
ATOM     26  C   UNL     1       2.724   4.534  18.678  0.00  0.00    +0.000 A 
ENDBRANCH  16  17
ENDBRANCH  15  16
ENDBRANCH   8  15
TORSDOF 4
ENDMDL
