MODEL 1
REMARK VINA RESULT:      -9.4      0.000      0.000
REMARK  Name = 
REMARK  5 active torsions:
REMARK  status: ('A' for Active; 'I' for Inactive)
REMARK    1  A    between atoms: C_1  and  N_2
REMARK    2  A    between atoms: N_2  and  C_3
REMARK    3  A    between atoms: C_3  and  C_4
REMARK    4  A    between atoms: C_17  and  C_18
REMARK    5  A    between atoms: C_21  and  C_22
REMARK                            x       y       z     vdW  Elec       q    Type
REMARK                         _______ _______ _______ _____ _____    ______ ____
ROOT
ATOM      1  C   UNL     1       8.170   5.350  19.755  0.00  0.00    +0.000 C 
ATOM      2  N   UNL     1       7.786   5.677  18.397  0.00  0.00    +0.000 N 
ATOM      3  C   UNL     1       7.837   6.965  17.980  0.00  0.00    +0.000 A 
ATOM      4  N   UNL     1       7.402   7.501  16.858  0.00  0.00    +0.000 NA
ATOM      5  N   UNL     1       7.686   8.845  16.919  0.00  0.00    +0.000 NA
ATOM      6  C   UNL     1       8.278   9.042  18.077  0.00  0.00    +0.000 A 
ATOM      7  O   UNL     1       8.404   7.891  18.810  0.00  0.00    +0.000 OA
ENDROOT
BRANCH   6   8
ATOM      8  C   UNL     1       8.865  10.256  18.624  0.00  0.00    +0.000 A 
ATOM      9  C   UNL     1       9.382  10.248  19.923  0.00  0.00    +0.000 A 
ATOM     10  C   UNL     1       9.829  11.431  20.525  0.00  0.00    +0.000 A 
ATOM     11  C   UNL     1       9.827  12.664  19.844  0.00  0.00    +0.000 A 
ATOM     12  C   UNL     1       9.395  12.630  18.507  0.00  0.00    +0.000 A 
ATOM     13  C   UNL     1       8.896  11.459  17.916  0.00  0.00    +0.000 A 
BRANCH  11  14
ATOM     14  C   UNL     1      10.275  13.917  20.525  0.00  0.00    +0.000 A 
ATOM     15  C   UNL     1       9.605  14.328  21.703  0.00  0.00    +0.000 A 
ATOM     16  C   UNL     1       9.925  15.512  22.378  0.00  0.00    +0.000 A 
ATOM     17  C   UNL     1      10.959  16.313  21.921  0.00  0.00    +0.000 A 
ATOM     18  C   UNL     1      11.656  15.938  20.777  0.00  0.00    +0.000 A 
ATOM     19  C   UNL     1      11.311  14.770  20.073  0.00  0.00    +0.000 A 
ATOM     20 CL   UNL     1      12.192  14.531  18.598  0.00  0.00    +0.000 Cl
ENDBRANCH  11  14
ENDBRANCH   6   8
BRANCH   2  21
ATOM     21  C   UNL     1       6.885   4.777  17.684  0.00  0.00    +0.000 C 
BRANCH  21  22
ATOM     22  C   UNL     1       5.463   4.817  18.213  0.00  0.00    +0.000 A 
ATOM     23  C   UNL     1       4.532   5.702  17.654  0.00  0.00    +0.000 A 
ATOM     24  C   UNL     1       3.191   5.667  18.041  0.00  0.00    +0.000 A 
ATOM     25  C   UNL     1       2.762   4.753  19.000  0.00  0.00    +0.000 A 
ATOM     26  C   UNL     1       3.662   3.844  19.562  0.00  0.00    +0.000 A 
ATOM     27  C   UNL     1       5.017   3.892  19.173  0.00  0.00    +0.000 A 
ATOM     28  C   UNL     1       3.203   2.831  20.573  0.00  0.00    +0.000 C 
ATOM     29  C   UNL     1       1.683   2.718  20.572  0.00  0.00    +0.000 C 
ATOM     30  C   UNL     1       1.088   4.113  20.520  0.00  0.00    +0.000 C 
ATOM     31  O   UNL     1       1.425   4.782  19.301  0.00  0.00    +0.000 OA
ENDBRANCH  21  22
ENDBRANCH   2  21
TORSDOF 4
ENDMDL
MODEL 2
REMARK VINA RESULT:      -9.3      2.088      2.765
REMARK  Name = 
REMARK  5 active torsions:
REMARK  status: ('A' for Active; 'I' for Inactive)
REMARK    1  A    between atoms: C_1  and  N_2
REMARK    2  A    between atoms: N_2  and  C_3
REMARK    3  A    between atoms: C_3  and  C_4
REMARK    4  A    between atoms: C_17  and  C_18
REMARK    5  A    between atoms: C_21  and  C_22
REMARK                            x       y       z     vdW  Elec       q    Type
REMARK                         _______ _______ _______ _____ _____    ______ ____
ROOT
ATOM      1  C   UNL     1       5.346   6.742  15.644  0.00  0.00    +0.000 C 
ATOM      2  N   UNL     1       5.957   6.097  16.788  0.00  0.00    +0.000 N 
ATOM      3  C   UNL     1       6.893   6.761  17.509  0.00  0.00    +0.000 A 
ATOM      4  N   UNL     1       7.670   6.325  18.478  0.00  0.00    +0.000 NA
ATOM      5  N   UNL     1       8.449   7.386  18.877  0.00  0.00    +0.000 NA
ATOM      6  C   UNL     1       8.093   8.404  18.124  0.00  0.00    +0.000 A 
ATOM      7  O   UNL     1       7.110   8.081  17.225  0.00  0.00    +0.000 OA
ENDROOT
BRANCH   6   8
ATOM      8  C   UNL     1       8.530   9.792  18.173  0.00  0.00    +0.000 A 
ATOM      9  C   UNL     1       7.801  10.769  17.490  0.00  0.00    +0.000 A 
ATOM     10  C   UNL     1       8.270  12.086  17.406  0.00  0.00    +0.000 A 
ATOM     11  C   UNL     1       9.458  12.499  18.040  0.00  0.00    +0.000 A 
ATOM     12  C   UNL     1      10.122  11.524  18.803  0.00  0.00    +0.000 A 
ATOM     13  C   UNL     1       9.687  10.190  18.846  0.00  0.00    +0.000 A 
BRANCH  11  14
ATOM     14  C   UNL     1       9.954  13.903  17.902  0.00  0.00    +0.000 A 
ATOM     15  C   UNL     1      11.089  14.148  17.092  0.00  0.00    +0.000 A 
ATOM     16  C   UNL     1      11.650  15.421  16.945  0.00  0.00    +0.000 A 
ATOM     17  C   UNL     1      11.069  16.512  17.574  0.00  0.00    +0.000 A 
ATOM     18  C   UNL     1       9.941  16.319  18.364  0.00  0.00    +0.000 A 
ATOM     19  C   UNL     1       9.399  15.035  18.548  0.00  0.00    +0.000 A 
ATOM     20 CL   UNL     1       8.080  14.963  19.672  0.00  0.00    +0.000 Cl
ENDBRANCH  11  14
ENDBRANCH   6   8
BRANCH   2  21
ATOM     21  C   UNL     1       5.976   4.640  16.848  0.00  0.00    +0.000 C 
BRANCH  21  22
ATOM     22  C   UNL     1       4.760   4.057  17.544  0.00  0.00    +0.000 A 
ATOM     23  C   UNL     1       4.191   2.864  17.078  0.00  0.00    +0.000 A 
ATOM     24  C   UNL     1       3.151   2.247  17.776  0.00  0.00    +0.000 A 
ATOM     25  C   UNL     1       2.657   2.819  18.946  0.00  0.00    +0.000 A 
ATOM     26  C   UNL     1       3.217   3.998  19.447  0.00  0.00    +0.000 A 
ATOM     27  C   UNL     1       4.260   4.619  18.731  0.00  0.00    +0.000 A 
ATOM     28  C   UNL     1       2.714   4.604  20.727  0.00  0.00    +0.000 C 
ATOM     29  C   UNL     1       1.864   3.604  21.502  0.00  0.00    +0.000 C 
ATOM     30  C   UNL     1       0.927   2.905  20.535  0.00  0.00    +0.000 C 
ATOM     31  O   UNL     1       1.650   2.131  19.571  0.00  0.00    +0.000 OA
ENDBRANCH  21  22
ENDBRANCH   2  21
TORSDOF 4
ENDMDL
MODEL 3
REMARK VINA RESULT:      -9.2      1.834      2.337
REMARK  Name = 
REMARK  5 active torsions:
REMARK  status: ('A' for Active; 'I' for Inactive)
REMARK    1  A    between atoms: C_1  and  N_2
REMARK    2  A    between atoms: N_2  and  C_3
REMARK    3  A    between atoms: C_3  and  C_4
REMARK    4  A    between atoms: C_17  and  C_18
REMARK    5  A    between atoms: C_21  and  C_22
REMARK                            x       y       z     vdW  Elec       q    Type
REMARK                         _______ _______ _______ _____ _____    ______ ____
ROOT
ATOM      1  C   UNL     1       5.143   6.890  15.697  0.00  0.00    +0.000 C 
ATOM      2  N   UNL     1       5.788   6.129  16.748  0.00  0.00    +0.000 N 
ATOM      3  C   UNL     1       6.782   6.698  17.472  0.00  0.00    +0.000 A 
ATOM      4  N   UNL     1       7.591   6.155  18.357  0.00  0.00    +0.000 NA
ATOM      5  N   UNL     1       8.426   7.153  18.803  0.00  0.00    +0.000 NA
ATOM      6  C   UNL     1       8.069   8.243  18.160  0.00  0.00    +0.000 A 
ATOM      7  O   UNL     1       7.032   8.030  17.291  0.00  0.00    +0.000 OA
ENDROOT
BRANCH   6   8
ATOM      8  C   UNL     1       8.558   9.607  18.303  0.00  0.00    +0.000 A 
ATOM      9  C   UNL     1       9.470   9.909  19.319  0.00  0.00    +0.000 A 
ATOM     10  C   UNL     1       9.853  11.233  19.568  0.00  0.00    +0.000 A 
ATOM     11  C   UNL     1       9.386  12.307  18.785  0.00  0.00    +0.000 A 
ATOM     12  C   UNL     1       8.548  11.969  17.710  0.00  0.00    +0.000 A 
ATOM     13  C   UNL     1       8.117  10.651  17.488  0.00  0.00    +0.000 A 
BRANCH  11  14
ATOM     14  C   UNL     1       9.783  13.714  19.099  0.00  0.00    +0.000 A 
ATOM     15  C   UNL     1      11.158  14.013  19.259  0.00  0.00    +0.000 A 
ATOM     16  C   UNL     1      11.617  15.291  19.601  0.00  0.00    +0.000 A 
ATOM     17  C   UNL     1      10.716  16.332  19.756  0.00  0.00    +0.000 A 
ATOM     18  C   UNL     1       9.357  16.087  19.590  0.00  0.00    +0.000 A 
ATOM     19  C   UNL     1       8.889  14.796  19.287  0.00  0.00    +0.000 A 
ATOM     20 CL   UNL     1       7.161  14.645  19.252  0.00  0.00    +0.000 Cl
ENDBRANCH  11  14
ENDBRANCH   6   8
BRANCH   2  21
ATOM     21  C   UNL     1       5.758   4.672  16.682  0.00  0.00    +0.000 C 
BRANCH  21  22
ATOM     22  C   UNL     1       4.601   4.065  17.455  0.00  0.00    +0.000 A 
ATOM     23  C   UNL     1       4.053   2.841  17.049  0.00  0.00    +0.000 A 
ATOM     24  C   UNL     1       3.073   2.207  17.815  0.00  0.00    +0.000 A 
ATOM     25  C   UNL     1       2.619   2.792  18.994  0.00  0.00    +0.000 A 
ATOM     26  C   UNL     1       3.160   4.002  19.437  0.00  0.00    +0.000 A 
ATOM     27  C   UNL     1       4.142   4.641  18.652  0.00  0.00    +0.000 A 
ATOM     28  C   UNL     1       2.702   4.624  20.726  0.00  0.00    +0.000 C 
ATOM     29  C   UNL     1       1.929   3.616  21.568  0.00  0.00    +0.000 C 
ATOM     30  C   UNL     1       0.970   2.859  20.668  0.00  0.00    +0.000 C 
ATOM     31  O   UNL     1       1.670   2.086  19.687  0.00  0.00    +0.000 OA
ENDBRANCH  21  22
ENDBRANCH   2  21
TORSDOF 4
ENDMDL
MODEL 4
REMARK VINA RESULT:      -9.1      0.664      1.110
REMARK  Name = 
REMARK  5 active torsions:
REMARK  status: ('A' for Active; 'I' for Inactive)
REMARK    1  A    between atoms: C_1  and  N_2
REMARK    2  A    between atoms: N_2  and  C_3
REMARK    3  A    between atoms: C_3  and  C_4
REMARK    4  A    between atoms: C_17  and  C_18
REMARK    5  A    between atoms: C_21  and  C_22
REMARK                            x       y       z     vdW  Elec       q    Type
REMARK                         _______ _______ _______ _____ _____    ______ ____
ROOT
ATOM      1  C   UNL     1       8.063   5.259  19.971  0.00  0.00    +0.000 C 
ATOM      2  N   UNL     1       7.760   5.480  18.572  0.00  0.00    +0.000 N 
ATOM      3  C   UNL     1       7.809   6.737  18.068  0.00  0.00    +0.000 A 
ATOM      4  N   UNL     1       7.436   7.181  16.886  0.00  0.00    +0.000 NA
ATOM      5  N   UNL     1       7.685   8.534  16.869  0.00  0.00    +0.000 NA
ATOM      6  C   UNL     1       8.197   8.827  18.045  0.00  0.00    +0.000 A 
ATOM      7  O   UNL     1       8.301   7.734  18.865  0.00  0.00    +0.000 OA
ENDROOT
BRANCH   6   8
ATOM      8  C   UNL     1       8.720  10.091  18.540  0.00  0.00    +0.000 A 
ATOM      9  C   UNL     1       8.232  11.292  18.016  0.00  0.00    +0.000 A 
ATOM     10  C   UNL     1       8.809  12.517  18.373  0.00  0.00    +0.000 A 
ATOM     11  C   UNL     1       9.863  12.605  19.304  0.00  0.00    +0.000 A 
ATOM     12  C   UNL     1      10.271  11.396  19.891  0.00  0.00    +0.000 A 
ATOM     13  C   UNL     1       9.734  10.160  19.498  0.00  0.00    +0.000 A 
BRANCH  11  14
ATOM     14  C   UNL     1      10.484  13.924  19.636  0.00  0.00    +0.000 A 
ATOM     15  C   UNL     1      10.355  14.425  20.954  0.00  0.00    +0.000 A 
ATOM     16  C   UNL     1      10.861  15.671  21.341  0.00  0.00    +0.000 A 
ATOM     17  C   UNL     1      11.556  16.450  20.429  0.00  0.00    +0.000 A 
ATOM     18  C   UNL     1      11.723  15.988  19.128  0.00  0.00    +0.000 A 
ATOM     19  C   UNL     1      11.180  14.755  18.725  0.00  0.00    +0.000 A 
ATOM     20 CL   UNL     1      11.366  14.404  17.036  0.00  0.00    +0.000 Cl
ENDBRANCH  11  14
ENDBRANCH   6   8
BRANCH   2  21
ATOM     21  C   UNL     1       6.927   4.509  17.870  0.00  0.00    +0.000 C 
BRANCH  21  22
ATOM     22  C   UNL     1       5.473   4.550  18.303  0.00  0.00    +0.000 A 
ATOM     23  C   UNL     1       4.537   5.269  17.548  0.00  0.00    +0.000 A 
ATOM     24  C   UNL     1       3.177   5.218  17.858  0.00  0.00    +0.000 A 
ATOM     25  C   UNL     1       2.732   4.453  18.935  0.00  0.00    +0.000 A 
ATOM     26  C   UNL     1       3.639   3.709  19.695  0.00  0.00    +0.000 A 
ATOM     27  C   UNL     1       5.012   3.774  19.381  0.00  0.00    +0.000 A 
ATOM     28  C   UNL     1       3.165   2.854  20.836  0.00  0.00    +0.000 C 
ATOM     29  C   UNL     1       1.656   2.649  20.769  0.00  0.00    +0.000 C 
ATOM     30  C   UNL     1       0.995   3.976  20.445  0.00  0.00    +0.000 C 
ATOM     31  O   UNL     1       1.379   4.450  19.150  0.00  0.00    +0.000 OA
ENDBRANCH  21  22
ENDBRANCH   2  21
TORSDOF 4
ENDMDL
MODEL 5
REMARK VINA RESULT:      -9.0      6.699      8.449
REMARK  Name = 
REMARK  5 active torsions:
REMARK  status: ('A' for Active; 'I' for Inactive)
REMARK    1  A    between atoms: C_1  and  N_2
REMARK    2  A    between atoms: N_2  and  C_3
REMARK    3  A    between atoms: C_3  and  C_4
REMARK    4  A    between atoms: C_17  and  C_18
REMARK    5  A    between atoms: C_21  and  C_22
REMARK                            x       y       z     vdW  Elec       q    Type
REMARK                         _______ _______ _______ _____ _____    ______ ____
ROOT
ATOM      1  C   UNL     1       2.595   4.118  21.267  0.00  0.00    +0.000 C 
ATOM      2  N   UNL     1       2.959   4.586  19.945  0.00  0.00    +0.000 N 
ATOM      3  C   UNL     1       2.558   5.814  19.537  0.00  0.00    +0.000 A 
ATOM      4  N   UNL     1       2.646   6.373  18.348  0.00  0.00    +0.000 NA
ATOM      5  N   UNL     1       2.089   7.626  18.451  0.00  0.00    +0.000 NA
ATOM      6  C   UNL     1       1.696   7.751  19.701  0.00  0.00    +0.000 A 
ATOM      7  O   UNL     1       1.957   6.635  20.452  0.00  0.00    +0.000 OA
ENDROOT
BRANCH   6   8
ATOM      8  C   UNL     1       1.119   8.900  20.382  0.00  0.00    +0.000 A 
ATOM      9  C   UNL     1       0.909   8.850  21.763  0.00  0.00    +0.000 A 
ATOM     10  C   UNL     1       0.233   9.883  22.424  0.00  0.00    +0.000 A 
ATOM     11  C   UNL     1      -0.218  11.035  21.748  0.00  0.00    +0.000 A 
ATOM     12  C   UNL     1       0.091  11.108  20.380  0.00  0.00    +0.000 A 
ATOM     13  C   UNL     1       0.719  10.052  19.701  0.00  0.00    +0.000 A 
BRANCH  11  14
ATOM     14  C   UNL     1      -0.970  12.104  22.474  0.00  0.00    +0.000 A 
ATOM     15  C   UNL     1      -2.210  11.777  23.075  0.00  0.00    +0.000 A 
ATOM     16  C   UNL     1      -3.003  12.726  23.730  0.00  0.00    +0.000 A 
ATOM     17  C   UNL     1      -2.565  14.035  23.846  0.00  0.00    +0.000 A 
ATOM     18  C   UNL     1      -1.344  14.396  23.287  0.00  0.00    +0.000 A 
ATOM     19  C   UNL     1      -0.563  13.456  22.591  0.00  0.00    +0.000 A 
ATOM     20 CL   UNL     1       0.859  14.111  21.843  0.00  0.00    +0.000 Cl
ENDBRANCH  11  14
ENDBRANCH   6   8
BRANCH   2  21
ATOM     21  C   UNL     1       3.269   3.605  18.911  0.00  0.00    +0.000 C 
BRANCH  21  22
ATOM     22  C   UNL     1       4.404   4.038  18.002  0.00  0.00    +0.000 A 
ATOM     23  C   UNL     1       5.644   4.393  18.550  0.00  0.00    +0.000 A 
ATOM     24  C   UNL     1       6.736   4.674  17.728  0.00  0.00    +0.000 A 
ATOM     25  C   UNL     1       6.603   4.612  16.342  0.00  0.00    +0.000 A 
ATOM     26  C   UNL     1       5.386   4.241  15.765  0.00  0.00    +0.000 A 
ATOM     27  C   UNL     1       4.285   3.968  16.603  0.00  0.00    +0.000 A 
ATOM     28  C   UNL     1       5.242   4.138  14.273  0.00  0.00    +0.000 C 
ATOM     29  C   UNL     1       6.609   4.116  13.598  0.00  0.00    +0.000 C 
ATOM     30  C   UNL     1       7.488   5.174  14.238  0.00  0.00    +0.000 C 
ATOM     31  O   UNL     1       7.735   4.886  15.619  0.00  0.00    +0.000 OA
ENDBRANCH  21  22
ENDBRANCH   2  21
TORSDOF 4
ENDMDL
MODEL 6
REMARK VINA RESULT:      -8.9      1.796      2.480
REMARK  Name = 
REMARK  5 active torsions:
REMARK  status: ('A' for Active; 'I' for Inactive)
REMARK    1  A    between atoms: C_1  and  N_2
REMARK    2  A    between atoms: N_2  and  C_3
REMARK    3  A    between atoms: C_3  and  C_4
REMARK    4  A    between atoms: C_17  and  C_18
REMARK    5  A    between atoms: C_21  and  C_22
REMARK                            x       y       z     vdW  Elec       q    Type
REMARK                         _______ _______ _______ _____ _____    ______ ____
ROOT
ATOM      1  C   UNL     1       5.215   7.034  15.574  0.00  0.00    +0.000 C 
ATOM      2  N   UNL     1       5.858   6.270  16.624  0.00  0.00    +0.000 N 
ATOM      3  C   UNL     1       6.827   6.848  17.373  0.00  0.00    +0.000 A 
ATOM      4  N   UNL     1       7.633   6.308  18.263  0.00  0.00    +0.000 NA
ATOM      5  N   UNL     1       8.440   7.315  18.738  0.00  0.00    +0.000 NA
ATOM      6  C   UNL     1       8.071   8.408  18.106  0.00  0.00    +0.000 A 
ATOM      7  O   UNL     1       7.053   8.188  17.216  0.00  0.00    +0.000 OA
ENDROOT
BRANCH   6   8
ATOM      8  C   UNL     1       8.529   9.779  18.278  0.00  0.00    +0.000 A 
ATOM      9  C   UNL     1       7.992  10.791  17.477  0.00  0.00    +0.000 A 
ATOM     10  C   UNL     1       8.507  12.093  17.525  0.00  0.00    +0.000 A 
ATOM     11  C   UNL     1       9.544  12.455  18.408  0.00  0.00    +0.000 A 
ATOM     12  C   UNL     1      10.001  11.446  19.272  0.00  0.00    +0.000 A 
ATOM     13  C   UNL     1       9.527  10.127  19.191  0.00  0.00    +0.000 A 
BRANCH  11  14
ATOM     14  C   UNL     1      10.099  13.843  18.410  0.00  0.00    +0.000 A 
ATOM     15  C   UNL     1       9.416  14.849  19.136  0.00  0.00    +0.000 A 
ATOM     16  C   UNL     1       9.836  16.184  19.153  0.00  0.00    +0.000 A 
ATOM     17  C   UNL     1      10.984  16.558  18.474  0.00  0.00    +0.000 A 
ATOM     18  C   UNL     1      11.697  15.599  17.763  0.00  0.00    +0.000 A 
ATOM     19  C   UNL     1      11.256  14.265  17.709  0.00  0.00    +0.000 A 
ATOM     20 CL   UNL     1      12.188  13.238  16.667  0.00  0.00    +0.000 Cl
ENDBRANCH  11  14
ENDBRANCH   6   8
BRANCH   2  21
ATOM     21  C   UNL     1       5.859   4.813  16.535  0.00  0.00    +0.000 C 
BRANCH  21  22
ATOM     22  C   UNL     1       4.966   4.154  17.570  0.00  0.00    +0.000 A 
ATOM     23  C   UNL     1       5.516   3.674  18.766  0.00  0.00    +0.000 A 
ATOM     24  C   UNL     1       4.697   3.178  19.782  0.00  0.00    +0.000 A 
ATOM     25  C   UNL     1       3.315   3.145  19.613  0.00  0.00    +0.000 A 
ATOM     26  C   UNL     1       2.734   3.635  18.440  0.00  0.00    +0.000 A 
ATOM     27  C   UNL     1       3.569   4.126  17.415  0.00  0.00    +0.000 A 
ATOM     28  C   UNL     1       1.242   3.635  18.263  0.00  0.00    +0.000 C 
ATOM     29  C   UNL     1       0.539   3.411  19.597  0.00  0.00    +0.000 C 
ATOM     30  C   UNL     1       1.248   2.296  20.343  0.00  0.00    +0.000 C 
ATOM     31  O   UNL     1       2.593   2.658  20.672  0.00  0.00    +0.000 OA
ENDBRANCH  21  22
ENDBRANCH   2  21
TORSDOF 4
ENDMDL
MODEL 7
REMARK VINA RESULT:      -8.9      1.104      1.676
REMARK  Name = 
REMARK  5 active torsions:
REMARK  status: ('A' for Active; 'I' for Inactive)
REMARK    1  A    between atoms: C_1  and  N_2
REMARK    2  A    between atoms: N_2  and  C_3
REMARK    3  A    between atoms: C_3  and  C_4
REMARK    4  A    between atoms: C_17  and  C_18
REMARK    5  A    between atoms: C_21  and  C_22
REMARK                            x       y       z     vdW  Elec       q    Type
REMARK                         _______ _______ _______ _____ _____    ______ ____
ROOT
ATOM      1  C   UNL     1       7.538   5.145  19.905  0.00  0.00    +0.000 C 
ATOM      2  N   UNL     1       7.443   5.350  18.474  0.00  0.00    +0.000 N 
ATOM      3  C   UNL     1       7.633   6.590  17.962  0.00  0.00    +0.000 A 
ATOM      4  N   UNL     1       7.453   7.027  16.733  0.00  0.00    +0.000 NA
ATOM      5  N   UNL     1       7.780   8.362  16.730  0.00  0.00    +0.000 NA
ATOM      6  C   UNL     1       8.141   8.654  17.961  0.00  0.00    +0.000 A 
ATOM      7  O   UNL     1       8.068   7.576  18.804  0.00  0.00    +0.000 OA
ENDROOT
BRANCH   6   8
ATOM      8  C   UNL     1       8.663   9.899  18.504  0.00  0.00    +0.000 A 
ATOM      9  C   UNL     1       8.510  11.085  17.780  0.00  0.00    +0.000 A 
ATOM     10  C   UNL     1       9.118  12.271  18.210  0.00  0.00    +0.000 A 
ATOM     11  C   UNL     1       9.862  12.341  19.405  0.00  0.00    +0.000 A 
ATOM     12  C   UNL     1       9.919  11.161  20.166  0.00  0.00    +0.000 A 
ATOM     13  C   UNL     1       9.358   9.957  19.714  0.00  0.00    +0.000 A 
BRANCH  11  14
ATOM     14  C   UNL     1      10.530  13.612  19.819  0.00  0.00    +0.000 A 
ATOM     15  C   UNL     1      11.618  14.092  19.049  0.00  0.00    +0.000 A 
ATOM     16  C   UNL     1      12.333  15.245  19.391  0.00  0.00    +0.000 A 
ATOM     17  C   UNL     1      11.960  15.990  20.499  0.00  0.00    +0.000 A 
ATOM     18  C   UNL     1      10.885  15.565  21.273  0.00  0.00    +0.000 A 
ATOM     19  C   UNL     1      10.190  14.384  20.957  0.00  0.00    +0.000 A 
ATOM     20 CL   UNL     1       8.970  13.936  22.106  0.00  0.00    +0.000 Cl
ENDBRANCH  11  14
ENDBRANCH   6   8
BRANCH   2  21
ATOM     21  C   UNL     1       6.661   4.410  17.678  0.00  0.00    +0.000 C 
BRANCH  21  22
ATOM     22  C   UNL     1       5.200   4.359  18.085  0.00  0.00    +0.000 A 
ATOM     23  C   UNL     1       4.213   4.846  17.217  0.00  0.00    +0.000 A 
ATOM     24  C   UNL     1       2.858   4.696  17.518  0.00  0.00    +0.000 A 
ATOM     25  C   UNL     1       2.469   4.064  18.697  0.00  0.00    +0.000 A 
ATOM     26  C   UNL     1       3.428   3.549  19.573  0.00  0.00    +0.000 A 
ATOM     27  C   UNL     1       4.795   3.714  19.266  0.00  0.00    +0.000 A 
ATOM     28  C   UNL     1       3.017   2.836  20.831  0.00  0.00    +0.000 C 
ATOM     29  C   UNL     1       1.541   2.459  20.781  0.00  0.00    +0.000 C 
ATOM     30  C   UNL     1       0.753   3.640  20.247  0.00  0.00    +0.000 C 
ATOM     31  O   UNL     1       1.118   3.947  18.897  0.00  0.00    +0.000 OA
ENDBRANCH  21  22
ENDBRANCH   2  21
TORSDOF 4
ENDMDL
MODEL 8
REMARK VINA RESULT:      -8.9      8.356     11.443
REMARK  Name = 
REMARK  5 active torsions:
REMARK  status: ('A' for Active; 'I' for Inactive)
REMARK    1  A    between atoms: C_1  and  N_2
REMARK    2  A    between atoms: N_2  and  C_3
REMARK    3  A    between atoms: C_3  and  C_4
REMARK    4  A    between atoms: C_17  and  C_18
REMARK    5  A    between atoms: C_21  and  C_22
REMARK                            x       y       z     vdW  Elec       q    Type
REMARK                         _______ _______ _______ _____ _____    ______ ____
ROOT
ATOM      1  C   UNL     1      -0.072  13.695  20.921  0.00  0.00    +0.000 C 
ATOM      2  N   UNL     1      -0.359  12.901  22.098  0.00  0.00    +0.000 N 
ATOM      3  C   UNL     1      -0.164  11.560  22.064  0.00  0.00    +0.000 A 
ATOM      4  N   UNL     1      -0.491  10.642  22.950  0.00  0.00    +0.000 NA
ATOM      5  N   UNL     1      -0.081   9.432  22.443  0.00  0.00    +0.000 NA
ATOM      6  C   UNL     1       0.474   9.691  21.279  0.00  0.00    +0.000 A 
ATOM      7  O   UNL     1       0.453  11.025  20.967  0.00  0.00    +0.000 OA
ENDROOT
BRANCH   6   8
ATOM      8  C   UNL     1       1.150   8.795  20.353  0.00  0.00    +0.000 A 
ATOM      9  C   UNL     1       1.591   7.546  20.801  0.00  0.00    +0.000 A 
ATOM     10  C   UNL     1       2.362   6.719  19.975  0.00  0.00    +0.000 A 
ATOM     11  C   UNL     1       2.686   7.076  18.651  0.00  0.00    +0.000 A 
ATOM     12  C   UNL     1       2.150   8.290  18.190  0.00  0.00    +0.000 A 
ATOM     13  C   UNL     1       1.423   9.148  19.030  0.00  0.00    +0.000 A 
BRANCH  11  14
ATOM     14  C   UNL     1       3.543   6.190  17.805  0.00  0.00    +0.000 A 
ATOM     15  C   UNL     1       4.706   6.734  17.208  0.00  0.00    +0.000 A 
ATOM     16  C   UNL     1       5.538   5.992  16.363  0.00  0.00    +0.000 A 
ATOM     17  C   UNL     1       5.260   4.657  16.113  0.00  0.00    +0.000 A 
ATOM     18  C   UNL     1       4.138   4.076  16.694  0.00  0.00    +0.000 A 
ATOM     19  C   UNL     1       3.276   4.830  17.511  0.00  0.00    +0.000 A 
ATOM     20 CL   UNL     1       1.857   3.983  18.037  0.00  0.00    +0.000 Cl
ENDBRANCH  11  14
ENDBRANCH   6   8
BRANCH   2  21
ATOM     21  C   UNL     1      -1.310  13.414  23.080  0.00  0.00    +0.000 C 
BRANCH  21  22
ATOM     22  C   UNL     1      -2.754  13.291  22.629  0.00  0.00    +0.000 A 
ATOM     23  C   UNL     1      -3.051  13.108  21.272  0.00  0.00    +0.000 A 
ATOM     24  C   UNL     1      -4.361  12.869  20.852  0.00  0.00    +0.000 A 
ATOM     25  C   UNL     1      -5.396  12.820  21.783  0.00  0.00    +0.000 A 
ATOM     26  C   UNL     1      -5.130  12.979  23.146  0.00  0.00    +0.000 A 
ATOM     27  C   UNL     1      -3.805  13.229  23.560  0.00  0.00    +0.000 A 
ATOM     28  C   UNL     1      -6.235  12.893  24.160  0.00  0.00    +0.000 C 
ATOM     29  C   UNL     1      -7.484  12.270  23.548  0.00  0.00    +0.000 C 
ATOM     30  C   UNL     1      -7.713  12.878  22.177  0.00  0.00    +0.000 C 
ATOM     31  O   UNL     1      -6.644  12.562  21.278  0.00  0.00    +0.000 OA
ENDBRANCH  21  22
ENDBRANCH   2  21
TORSDOF 4
ENDMDL
MODEL 9
REMARK VINA RESULT:      -8.9      8.280     11.990
REMARK  Name = 
REMARK  5 active torsions:
REMARK  status: ('A' for Active; 'I' for Inactive)
REMARK    1  A    between atoms: C_1  and  N_2
REMARK    2  A    between atoms: N_2  and  C_3
REMARK    3  A    between atoms: C_3  and  C_4
REMARK    4  A    between atoms: C_17  and  C_18
REMARK    5  A    between atoms: C_21  and  C_22
REMARK                            x       y       z     vdW  Elec       q    Type
REMARK                         _______ _______ _______ _____ _____    ______ ____
ROOT
ATOM      1  C   UNL     1      -2.142  11.940  18.823  0.00  0.00    +0.000 C 
ATOM      2  N   UNL     1      -1.287  12.420  19.889  0.00  0.00    +0.000 N 
ATOM      3  C   UNL     1      -0.354  11.595  20.421  0.00  0.00    +0.000 A 
ATOM      4  N   UNL     1       0.415  11.768  21.476  0.00  0.00    +0.000 NA
ATOM      5  N   UNL     1       1.185  10.635  21.602  0.00  0.00    +0.000 NA
ATOM      6  C   UNL     1       0.835   9.843  20.611  0.00  0.00    +0.000 A 
ATOM      7  O   UNL     1      -0.144  10.384  19.820  0.00  0.00    +0.000 OA
ENDROOT
BRANCH   6   8
ATOM      8  C   UNL     1       1.386   8.556  20.214  0.00  0.00    +0.000 A 
ATOM      9  C   UNL     1       1.988   8.420  18.960  0.00  0.00    +0.000 A 
ATOM     10  C   UNL     1       2.405   7.166  18.496  0.00  0.00    +0.000 A 
ATOM     11  C   UNL     1       2.286   6.001  19.279  0.00  0.00    +0.000 A 
ATOM     12  C   UNL     1       1.768   6.177  20.574  0.00  0.00    +0.000 A 
ATOM     13  C   UNL     1       1.299   7.421  21.024  0.00  0.00    +0.000 A 
BRANCH  11  14
ATOM     14  C   UNL     1       2.705   4.670  18.743  0.00  0.00    +0.000 A 
ATOM     15  C   UNL     1       3.762   4.617  17.802  0.00  0.00    +0.000 A 
ATOM     16  C   UNL     1       4.186   3.422  17.210  0.00  0.00    +0.000 A 
ATOM     17  C   UNL     1       3.594   2.222  17.570  0.00  0.00    +0.000 A 
ATOM     18  C   UNL     1       2.564   2.225  18.505  0.00  0.00    +0.000 A 
ATOM     19  C   UNL     1       2.107   3.429  19.070  0.00  0.00    +0.000 A 
ATOM     20 CL   UNL     1       0.728   3.259  20.110  0.00  0.00    +0.000 Cl
ENDBRANCH  11  14
ENDBRANCH   6   8
BRANCH   2  21
ATOM     21  C   UNL     1      -1.750  13.529  20.717  0.00  0.00    +0.000 C 
BRANCH  21  22
ATOM     22  C   UNL     1      -2.921  13.158  21.608  0.00  0.00    +0.000 A 
ATOM     23  C   UNL     1      -2.690  12.667  22.900  0.00  0.00    +0.000 A 
ATOM     24  C   UNL     1      -3.751  12.437  23.778  0.00  0.00    +0.000 A 
ATOM     25  C   UNL     1      -5.061  12.686  23.374  0.00  0.00    +0.000 A 
ATOM     26  C   UNL     1      -5.322  13.195  22.099  0.00  0.00    +0.000 A 
ATOM     27  C   UNL     1      -4.246  13.415  21.215  0.00  0.00    +0.000 A 
ATOM     28  C   UNL     1      -6.729  13.499  21.666  0.00  0.00    +0.000 C 
ATOM     29  C   UNL     1      -7.668  13.534  22.865  0.00  0.00    +0.000 C 
ATOM     30  C   UNL     1      -7.354  12.356  23.768  0.00  0.00    +0.000 C 
ATOM     31  O   UNL     1      -6.032  12.448  24.311  0.00  0.00    +0.000 OA
ENDBRANCH  21  22
ENDBRANCH   2  21
TORSDOF 4
ENDMDL
