MODEL 1
REMARK VINA RESULT:      -8.1      0.000      0.000
REMARK  Name = 
REMARK  9 active torsions:
REMARK  status: ('A' for Active; 'I' for Inactive)
REMARK    1  A    between atoms: C_1  and  O_2
REMARK    2  A    between atoms: O_2  and  C_3
REMARK    3  A    between atoms: C_6  and  C_7
REMARK    4  A    between atoms: C_7  and  N_8
REMARK    5  A    between atoms: C_9  and  C_11
REMARK    6  A    between atoms: C_13  and  C_14
REMARK    7  A    between atoms: C_24  and  C_25
REMARK    8  A    between atoms: C_32  and  O_33
REMARK    9  A    between atoms: O_33  and  C_34
REMARK                            x       y       z     vdW  Elec       q    Type
REMARK                         _______ _______ _______ _____ _____    ______ ____
ROOT
ATOM      1  C   UNL     1       0.987   8.612  20.354  0.00  0.00    +0.000 A 
ATOM      2  C   UNL     1       1.694   7.398  20.422  0.00  0.00    +0.000 A 
ATOM      3  C   UNL     1       2.491   6.954  19.357  0.00  0.00    +0.000 A 
ATOM      4  C   UNL     1       2.517   7.793  18.249  0.00  0.00    +0.000 A 
ATOM      5  N   UNL     1       1.876   8.986  18.158  0.00  0.00    +0.000 NA
ATOM      6  C   UNL     1       1.113   9.408  19.208  0.00  0.00    +0.000 A 
ENDROOT
BRANCH   3   7
ATOM      7  C   UNL     1       3.241   5.679  19.415  0.00  0.00    +0.000 A 
ATOM      8  C   UNL     1       4.524   5.556  18.848  0.00  0.00    +0.000 A 
ATOM      9  C   UNL     1       5.211   4.341  18.876  0.00  0.00    +0.000 A 
ATOM     10  F   UNL     1       6.422   4.264  18.309  0.00  0.00    +0.000 F 
ATOM     11  C   UNL     1       4.660   3.220  19.470  0.00  0.00    +0.000 A 
ATOM     12  C   UNL     1       3.406   3.328  20.044  0.00  0.00    +0.000 A 
ATOM     13  F   UNL     1       2.855   2.257  20.627  0.00  0.00    +0.000 F 
ATOM     14  C   UNL     1       2.697   4.533  20.021  0.00  0.00    +0.000 A 
ENDBRANCH   3   7
BRANCH   6  15
ATOM     15  C   UNL     1       0.514  10.743  18.994  0.00  0.00    +0.000 A 
ATOM     16  C   UNL     1      -0.856  10.958  18.784  0.00  0.00    +0.000 A 
ATOM     17  C   UNL     1      -1.351  12.238  18.531  0.00  0.00    +0.000 A 
ATOM     18  C   UNL     1      -0.465  13.298  18.545  0.00  0.00    +0.000 A 
ATOM     19  N   UNL     1       0.849  13.165  18.803  0.00  0.00    +0.000 NA
ATOM     20  C   UNL     1       1.299  11.900  19.020  0.00  0.00    +0.000 A 
ENDBRANCH   6  15
BRANCH   1  22
ATOM     21  N   UNL     1       0.274  10.099  22.150  0.00  0.00    +0.000 N 
ATOM     22  C   UNL     1       0.044   8.928  21.461  0.00  0.00    +0.000 C 
ATOM     23  O   UNL     1      -0.870   8.161  21.727  0.00  0.00    +0.000 OA
ATOM     24  H   UNL     1       0.986  10.749  21.845  0.00  0.00    +0.000 HD
BRANCH  21  25
ATOM     25  C   UNL     1      -0.648  10.554  23.169  0.00  0.00    +0.000 C 
BRANCH  25  29
ATOM     26  C   UNL     1      -2.492  14.259  21.909  0.00  0.00    +0.000 A 
ATOM     27  C   UNL     1      -1.098  14.100  21.876  0.00  0.00    +0.000 A 
ATOM     28  C   UNL     1      -0.499  12.906  22.283  0.00  0.00    +0.000 A 
ATOM     29  C   UNL     1      -1.279  11.863  22.784  0.00  0.00    +0.000 A 
ATOM     30  C   UNL     1      -2.663  12.054  22.890  0.00  0.00    +0.000 A 
ATOM     31  C   UNL     1      -3.281  13.244  22.471  0.00  0.00    +0.000 A 
BRANCH  26  33
ATOM     32  C   UNL     1      -3.161  16.488  22.331  0.00  0.00    +0.000 C 
ATOM     33  O   UNL     1      -3.085  15.392  21.417  0.00  0.00    +0.000 OA
ENDBRANCH  26  33
BRANCH  31  34
ATOM     34  O   UNL     1      -4.635  13.205  22.666  0.00  0.00    +0.000 OA
ATOM     35  C   UNL     1      -5.479  12.782  21.606  0.00  0.00    +0.000 C 
ENDBRANCH  31  34
ENDBRANCH  25  29
ENDBRANCH  21  25
ENDBRANCH   1  22
TORSDOF 7
ENDMDL
MODEL 2
REMARK VINA RESULT:      -8.0      0.310      1.438
REMARK  Name = 
REMARK  9 active torsions:
REMARK  status: ('A' for Active; 'I' for Inactive)
REMARK    1  A    between atoms: C_1  and  O_2
REMARK    2  A    between atoms: O_2  and  C_3
REMARK    3  A    between atoms: C_6  and  C_7
REMARK    4  A    between atoms: C_7  and  N_8
REMARK    5  A    between atoms: C_9  and  C_11
REMARK    6  A    between atoms: C_13  and  C_14
REMARK    7  A    between atoms: C_24  and  C_25
REMARK    8  A    between atoms: C_32  and  O_33
REMARK    9  A    between atoms: O_33  and  C_34
REMARK                            x       y       z     vdW  Elec       q    Type
REMARK                         _______ _______ _______ _____ _____    ______ ____
ROOT
ATOM      1  C   UNL     1       0.987   8.625  20.327  0.00  0.00    +0.000 A 
ATOM      2  C   UNL     1       1.690   7.408  20.379  0.00  0.00    +0.000 A 
ATOM      3  C   UNL     1       2.485   6.974  19.308  0.00  0.00    +0.000 A 
ATOM      4  C   UNL     1       2.511   7.827  18.210  0.00  0.00    +0.000 A 
ATOM      5  N   UNL     1       1.873   9.022  18.134  0.00  0.00    +0.000 NA
ATOM      6  C   UNL     1       1.114   9.433  19.190  0.00  0.00    +0.000 A 
ENDROOT
BRANCH   3   7
ATOM      7  C   UNL     1       3.231   5.697  19.350  0.00  0.00    +0.000 A 
ATOM      8  C   UNL     1       2.685   4.548  19.953  0.00  0.00    +0.000 A 
ATOM      9  C   UNL     1       3.407   3.356  20.020  0.00  0.00    +0.000 A 
ATOM     10  F   UNL     1       2.857   2.291  20.618  0.00  0.00    +0.000 F 
ATOM     11  C   UNL     1       4.680   3.259  19.486  0.00  0.00    +0.000 A 
ATOM     12  C   UNL     1       5.225   4.375  18.878  0.00  0.00    +0.000 A 
ATOM     13  F   UNL     1       6.454   4.302  18.352  0.00  0.00    +0.000 F 
ATOM     14  C   UNL     1       4.522   5.581  18.806  0.00  0.00    +0.000 A 
ENDBRANCH   3   7
BRANCH   6  15
ATOM     15  C   UNL     1       0.517  10.773  18.992  0.00  0.00    +0.000 A 
ATOM     16  C   UNL     1      -0.853  10.995  18.793  0.00  0.00    +0.000 A 
ATOM     17  C   UNL     1      -1.345  12.278  18.555  0.00  0.00    +0.000 A 
ATOM     18  C   UNL     1      -0.455  13.336  18.574  0.00  0.00    +0.000 A 
ATOM     19  N   UNL     1       0.860  13.195  18.825  0.00  0.00    +0.000 NA
ATOM     20  C   UNL     1       1.307  11.927  19.026  0.00  0.00    +0.000 A 
ENDBRANCH   6  15
BRANCH   1  22
ATOM     21  N   UNL     1       0.294  10.082  22.155  0.00  0.00    +0.000 N 
ATOM     22  C   UNL     1       0.047   8.930  21.439  0.00  0.00    +0.000 C 
ATOM     23  O   UNL     1      -0.880   8.172  21.686  0.00  0.00    +0.000 OA
ATOM     24  H   UNL     1       1.017  10.727  21.866  0.00  0.00    +0.000 HD
BRANCH  21  25
ATOM     25  C   UNL     1      -0.623  10.528  23.183  0.00  0.00    +0.000 C 
BRANCH  25  29
ATOM     26  C   UNL     1      -2.507  14.221  21.947  0.00  0.00    +0.000 A 
ATOM     27  C   UNL     1      -1.114  14.061  21.872  0.00  0.00    +0.000 A 
ATOM     28  C   UNL     1      -0.502  12.871  22.271  0.00  0.00    +0.000 A 
ATOM     29  C   UNL     1      -1.266  11.833  22.805  0.00  0.00    +0.000 A 
ATOM     30  C   UNL     1      -2.646  12.025  22.954  0.00  0.00    +0.000 A 
ATOM     31  C   UNL     1      -3.278  13.211  22.543  0.00  0.00    +0.000 A 
BRANCH  26  33
ATOM     32  C   UNL     1      -2.247  16.283  20.819  0.00  0.00    +0.000 C 
ATOM     33  O   UNL     1      -3.115  15.349  21.464  0.00  0.00    +0.000 OA
ENDBRANCH  26  33
BRANCH  31  34
ATOM     34  O   UNL     1      -4.625  13.173  22.781  0.00  0.00    +0.000 OA
ATOM     35  C   UNL     1      -5.506  12.801  21.733  0.00  0.00    +0.000 C 
ENDBRANCH  31  34
ENDBRANCH  25  29
ENDBRANCH  21  25
ENDBRANCH   1  22
TORSDOF 7
ENDMDL
MODEL 3
REMARK VINA RESULT:      -8.0      1.013      1.013
REMARK  Name = 
REMARK  9 active torsions:
REMARK  status: ('A' for Active; 'I' for Inactive)
REMARK    1  A    between atoms: C_1  and  O_2
REMARK    2  A    between atoms: O_2  and  C_3
REMARK    3  A    between atoms: C_6  and  C_7
REMARK    4  A    between atoms: C_7  and  N_8
REMARK    5  A    between atoms: C_9  and  C_11
REMARK    6  A    between atoms: C_13  and  C_14
REMARK    7  A    between atoms: C_24  and  C_25
REMARK    8  A    between atoms: C_32  and  O_33
REMARK    9  A    between atoms: O_33  and  C_34
REMARK                            x       y       z     vdW  Elec       q    Type
REMARK                         _______ _______ _______ _____ _____    ______ ____
ROOT
ATOM      1  C   UNL     1       1.417   8.875  20.365  0.00  0.00    +0.000 A 
ATOM      2  C   UNL     1       1.957   7.575  20.346  0.00  0.00    +0.000 A 
ATOM      3  C   UNL     1       2.282   6.934  19.142  0.00  0.00    +0.000 A 
ATOM      4  C   UNL     1       2.022   7.672  17.992  0.00  0.00    +0.000 A 
ATOM      5  N   UNL     1       1.533   8.937  17.970  0.00  0.00    +0.000 NA
ATOM      6  C   UNL     1       1.234   9.550  19.151  0.00  0.00    +0.000 A 
ENDROOT
BRANCH   3   7
ATOM      7  C   UNL     1       2.851   5.569  19.107  0.00  0.00    +0.000 A 
ATOM      8  C   UNL     1       3.547   5.092  17.980  0.00  0.00    +0.000 A 
ATOM      9  C   UNL     1       4.051   3.791  17.940  0.00  0.00    +0.000 A 
ATOM     10  F   UNL     1       4.691   3.372  16.842  0.00  0.00    +0.000 F 
ATOM     11  C   UNL     1       3.893   2.929  19.011  0.00  0.00    +0.000 A 
ATOM     12  C   UNL     1       3.224   3.387  20.131  0.00  0.00    +0.000 A 
ATOM     13  F   UNL     1       3.063   2.571  21.180  0.00  0.00    +0.000 F 
ATOM     14  C   UNL     1       2.705   4.683  20.189  0.00  0.00    +0.000 A 
ENDBRANCH   3   7
BRANCH   6  15
ATOM     15  C   UNL     1       0.757  10.940  18.982  0.00  0.00    +0.000 A 
ATOM     16  C   UNL     1      -0.559  11.277  18.634  0.00  0.00    +0.000 A 
ATOM     17  C   UNL     1      -0.930  12.607  18.434  0.00  0.00    +0.000 A 
ATOM     18  C   UNL     1       0.018  13.591  18.640  0.00  0.00    +0.000 A 
ATOM     19  N   UNL     1       1.279  13.336  19.038  0.00  0.00    +0.000 NA
ATOM     20  C   UNL     1       1.611  12.027  19.197  0.00  0.00    +0.000 A 
ENDBRANCH   6  15
BRANCH   1  22
ATOM     21  N   UNL     1      -0.376   9.756  21.762  0.00  0.00    +0.000 N 
ATOM     22  C   UNL     1       0.957   9.415  21.672  0.00  0.00    +0.000 C 
ATOM     23  O   UNL     1       1.747   9.548  22.595  0.00  0.00    +0.000 OA
ATOM     24  H   UNL     1      -1.016   9.550  21.007  0.00  0.00    +0.000 HD
BRANCH  21  25
ATOM     25  C   UNL     1      -0.949  10.184  23.020  0.00  0.00    +0.000 C 
BRANCH  25  29
ATOM     26  C   UNL     1      -2.446  14.225  22.633  0.00  0.00    +0.000 A 
ATOM     27  C   UNL     1      -1.150  13.892  22.207  0.00  0.00    +0.000 A 
ATOM     28  C   UNL     1      -0.663  12.589  22.332  0.00  0.00    +0.000 A 
ATOM     29  C   UNL     1      -1.443  11.602  22.935  0.00  0.00    +0.000 A 
ATOM     30  C   UNL     1      -2.705  11.956  23.431  0.00  0.00    +0.000 A 
ATOM     31  C   UNL     1      -3.214  13.258  23.300  0.00  0.00    +0.000 A 
BRANCH  26  33
ATOM     32  C   UNL     1      -3.617  15.664  21.166  0.00  0.00    +0.000 C 
ATOM     33  O   UNL     1      -2.959  15.478  22.420  0.00  0.00    +0.000 OA
ENDBRANCH  26  33
BRANCH  31  34
ATOM     34  O   UNL     1      -4.461  13.371  23.853  0.00  0.00    +0.000 OA
ATOM     35  C   UNL     1      -5.601  13.051  23.069  0.00  0.00    +0.000 C 
ENDBRANCH  31  34
ENDBRANCH  25  29
ENDBRANCH  21  25
ENDBRANCH   1  22
TORSDOF 7
ENDMDL
MODEL 4
REMARK VINA RESULT:      -7.9      1.055      1.629
REMARK  Name = 
REMARK  9 active torsions:
REMARK  status: ('A' for Active; 'I' for Inactive)
REMARK    1  A    between atoms: C_1  and  O_2
REMARK    2  A    between atoms: O_2  and  C_3
REMARK    3  A    between atoms: C_6  and  C_7
REMARK    4  A    between atoms: C_7  and  N_8
REMARK    5  A    between atoms: C_9  and  C_11
REMARK    6  A    between atoms: C_13  and  C_14
REMARK    7  A    between atoms: C_24  and  C_25
REMARK    8  A    between atoms: C_32  and  O_33
REMARK    9  A    between atoms: O_33  and  C_34
REMARK                            x       y       z     vdW  Elec       q    Type
REMARK                         _______ _______ _______ _____ _____    ______ ____
ROOT
ATOM      1  C   UNL     1       1.412   9.036  20.283  0.00  0.00    +0.000 A 
ATOM      2  C   UNL     1       1.947   7.736  20.227  0.00  0.00    +0.000 A 
ATOM      3  C   UNL     1       2.264   7.127  19.004  0.00  0.00    +0.000 A 
ATOM      4  C   UNL     1       2.002   7.896  17.876  0.00  0.00    +0.000 A 
ATOM      5  N   UNL     1       1.518   9.164  17.890  0.00  0.00    +0.000 NA
ATOM      6  C   UNL     1       1.226   9.746  19.089  0.00  0.00    +0.000 A 
ENDROOT
BRANCH   3   7
ATOM      7  C   UNL     1       2.827   5.761  18.930  0.00  0.00    +0.000 A 
ATOM      8  C   UNL     1       2.724   4.864  20.011  0.00  0.00    +0.000 A 
ATOM      9  C   UNL     1       3.287   3.589  19.948  0.00  0.00    +0.000 A 
ATOM     10  F   UNL     1       3.180   2.775  21.005  0.00  0.00    +0.000 F 
ATOM     11  C   UNL     1       3.958   3.158  18.817  0.00  0.00    +0.000 A 
ATOM     12  C   UNL     1       4.057   4.022  17.741  0.00  0.00    +0.000 A 
ATOM     13  F   UNL     1       4.699   3.624  16.636  0.00  0.00    +0.000 F 
ATOM     14  C   UNL     1       3.506   5.306  17.786  0.00  0.00    +0.000 A 
ENDBRANCH   3   7
BRANCH   6  15
ATOM     15  C   UNL     1       0.754  11.142  18.961  0.00  0.00    +0.000 A 
ATOM     16  C   UNL     1      -0.564  11.493  18.638  0.00  0.00    +0.000 A 
ATOM     17  C   UNL     1      -0.932  12.829  18.475  0.00  0.00    +0.000 A 
ATOM     18  C   UNL     1       0.024  13.803  18.693  0.00  0.00    +0.000 A 
ATOM     19  N   UNL     1       1.288  13.533  19.069  0.00  0.00    +0.000 NA
ATOM     20  C   UNL     1       1.616  12.219  19.192  0.00  0.00    +0.000 A 
ENDBRANCH   6  15
BRANCH   1  22
ATOM     21  N   UNL     1      -0.375   9.871  21.717  0.00  0.00    +0.000 N 
ATOM     22  C   UNL     1       0.960   9.542  21.607  0.00  0.00    +0.000 C 
ATOM     23  O   UNL     1       1.757   9.659  22.526  0.00  0.00    +0.000 OA
ATOM     24  H   UNL     1      -1.020   9.679  20.962  0.00  0.00    +0.000 HD
BRANCH  21  25
ATOM     25  C   UNL     1      -0.940  10.266  22.989  0.00  0.00    +0.000 C 
BRANCH  25  29
ATOM     26  C   UNL     1      -2.550  14.270  22.683  0.00  0.00    +0.000 A 
ATOM     27  C   UNL     1      -1.247  13.982  22.249  0.00  0.00    +0.000 A 
ATOM     28  C   UNL     1      -0.723  12.691  22.347  0.00  0.00    +0.000 A 
ATOM     29  C   UNL     1      -1.474  11.671  22.932  0.00  0.00    +0.000 A 
ATOM     30  C   UNL     1      -2.743  11.979  23.437  0.00  0.00    +0.000 A 
ATOM     31  C   UNL     1      -3.289  13.269  23.332  0.00  0.00    +0.000 A 
BRANCH  26  33
ATOM     32  C   UNL     1      -3.535  15.792  21.164  0.00  0.00    +0.000 C 
ATOM     33  O   UNL     1      -3.098  15.512  22.495  0.00  0.00    +0.000 OA
ENDBRANCH  26  33
BRANCH  31  34
ATOM     34  O   UNL     1      -4.538  13.336  23.889  0.00  0.00    +0.000 OA
ATOM     35  C   UNL     1      -5.677  13.114  23.072  0.00  0.00    +0.000 C 
ENDBRANCH  31  34
ENDBRANCH  25  29
ENDBRANCH  21  25
ENDBRANCH   1  22
TORSDOF 7
ENDMDL
MODEL 5
REMARK VINA RESULT:      -7.9      1.202      1.385
REMARK  Name = 
REMARK  9 active torsions:
REMARK  status: ('A' for Active; 'I' for Inactive)
REMARK    1  A    between atoms: C_1  and  O_2
REMARK    2  A    between atoms: O_2  and  C_3
REMARK    3  A    between atoms: C_6  and  C_7
REMARK    4  A    between atoms: C_7  and  N_8
REMARK    5  A    between atoms: C_9  and  C_11
REMARK    6  A    between atoms: C_13  and  C_14
REMARK    7  A    between atoms: C_24  and  C_25
REMARK    8  A    between atoms: C_32  and  O_33
REMARK    9  A    between atoms: O_33  and  C_34
REMARK                            x       y       z     vdW  Elec       q    Type
REMARK                         _______ _______ _______ _____ _____    ______ ____
ROOT
ATOM      1  C   UNL     1       1.350   9.055  20.265  0.00  0.00    +0.000 A 
ATOM      2  C   UNL     1       1.878   7.754  20.172  0.00  0.00    +0.000 A 
ATOM      3  C   UNL     1       2.178   7.172  18.932  0.00  0.00    +0.000 A 
ATOM      4  C   UNL     1       1.906   7.968  17.825  0.00  0.00    +0.000 A 
ATOM      5  N   UNL     1       1.428   9.237  17.875  0.00  0.00    +0.000 NA
ATOM      6  C   UNL     1       1.152   9.792  19.090  0.00  0.00    +0.000 A 
ENDROOT
BRANCH   3   7
ATOM      7  C   UNL     1       2.734   5.806  18.819  0.00  0.00    +0.000 A 
ATOM      8  C   UNL     1       4.115   5.562  18.954  0.00  0.00    +0.000 A 
ATOM      9  C   UNL     1       4.637   4.276  18.812  0.00  0.00    +0.000 A 
ATOM     10  F   UNL     1       5.958   4.092  18.931  0.00  0.00    +0.000 F 
ATOM     11  C   UNL     1       3.817   3.195  18.545  0.00  0.00    +0.000 A 
ATOM     12  C   UNL     1       2.457   3.415  18.423  0.00  0.00    +0.000 A 
ATOM     13  F   UNL     1       1.644   2.383  18.168  0.00  0.00    +0.000 F 
ATOM     14  C   UNL     1       1.913   4.696  18.554  0.00  0.00    +0.000 A 
ENDBRANCH   3   7
BRANCH   6  15
ATOM     15  C   UNL     1       0.685  11.193  19.000  0.00  0.00    +0.000 A 
ATOM     16  C   UNL     1       1.495  12.304  19.272  0.00  0.00    +0.000 A 
ATOM     17  C   UNL     1       0.978  13.599  19.224  0.00  0.00    +0.000 A 
ATOM     18  C   UNL     1      -0.343  13.764  18.848  0.00  0.00    +0.000 A 
ATOM     19  N   UNL     1      -1.152  12.742  18.512  0.00  0.00    +0.000 NA
ATOM     20  C   UNL     1      -0.620  11.494  18.596  0.00  0.00    +0.000 A 
ENDBRANCH   6  15
BRANCH   1  22
ATOM     21  N   UNL     1      -0.418   9.855  21.741  0.00  0.00    +0.000 N 
ATOM     22  C   UNL     1       0.915   9.531  21.606  0.00  0.00    +0.000 C 
ATOM     23  O   UNL     1       1.725   9.630  22.515  0.00  0.00    +0.000 OA
ATOM     24  H   UNL     1      -1.073   9.677  20.992  0.00  0.00    +0.000 HD
BRANCH  21  25
ATOM     25  C   UNL     1      -0.966  10.222  23.030  0.00  0.00    +0.000 C 
BRANCH  25  29
ATOM     26  C   UNL     1      -2.658  14.197  22.805  0.00  0.00    +0.000 A 
ATOM     27  C   UNL     1      -1.339  13.950  22.391  0.00  0.00    +0.000 A 
ATOM     28  C   UNL     1      -0.789  12.669  22.464  0.00  0.00    +0.000 A 
ATOM     29  C   UNL     1      -1.529  11.615  23.002  0.00  0.00    +0.000 A 
ATOM     30  C   UNL     1      -2.816  11.881  23.487  0.00  0.00    +0.000 A 
ATOM     31  C   UNL     1      -3.389  13.162  23.408  0.00  0.00    +0.000 A 
BRANCH  26  33
ATOM     32  C   UNL     1      -3.772  15.687  21.345  0.00  0.00    +0.000 C 
ATOM     33  O   UNL     1      -3.229  15.431  22.641  0.00  0.00    +0.000 OA
ENDBRANCH  26  33
BRANCH  31  34
ATOM     34  O   UNL     1      -4.650  13.185  23.939  0.00  0.00    +0.000 OA
ATOM     35  C   UNL     1      -5.768  13.006  23.083  0.00  0.00    +0.000 C 
ENDBRANCH  31  34
ENDBRANCH  25  29
ENDBRANCH  21  25
ENDBRANCH   1  22
TORSDOF 7
ENDMDL
MODEL 6
REMARK VINA RESULT:      -7.9      0.727      2.205
REMARK  Name = 
REMARK  9 active torsions:
REMARK  status: ('A' for Active; 'I' for Inactive)
REMARK    1  A    between atoms: C_1  and  O_2
REMARK    2  A    between atoms: O_2  and  C_3
REMARK    3  A    between atoms: C_6  and  C_7
REMARK    4  A    between atoms: C_7  and  N_8
REMARK    5  A    between atoms: C_9  and  C_11
REMARK    6  A    between atoms: C_13  and  C_14
REMARK    7  A    between atoms: C_24  and  C_25
REMARK    8  A    between atoms: C_32  and  O_33
REMARK    9  A    between atoms: O_33  and  C_34
REMARK                            x       y       z     vdW  Elec       q    Type
REMARK                         _______ _______ _______ _____ _____    ______ ____
ROOT
ATOM      1  C   UNL     1       0.983   8.629  20.324  0.00  0.00    +0.000 A 
ATOM      2  C   UNL     1       1.689   7.413  20.373  0.00  0.00    +0.000 A 
ATOM      3  C   UNL     1       2.485   6.984  19.301  0.00  0.00    +0.000 A 
ATOM      4  C   UNL     1       2.510   7.839  18.205  0.00  0.00    +0.000 A 
ATOM      5  N   UNL     1       1.870   9.034  18.132  0.00  0.00    +0.000 NA
ATOM      6  C   UNL     1       1.109   9.441  19.189  0.00  0.00    +0.000 A 
ENDROOT
BRANCH   3   7
ATOM      7  C   UNL     1       3.233   5.708  19.340  0.00  0.00    +0.000 A 
ATOM      8  C   UNL     1       2.686   4.554  19.933  0.00  0.00    +0.000 A 
ATOM      9  C   UNL     1       3.410   3.363  19.997  0.00  0.00    +0.000 A 
ATOM     10  F   UNL     1       2.859   2.294  20.586  0.00  0.00    +0.000 F 
ATOM     11  C   UNL     1       4.686   3.272  19.471  0.00  0.00    +0.000 A 
ATOM     12  C   UNL     1       5.233   4.392  18.872  0.00  0.00    +0.000 A 
ATOM     13  F   UNL     1       6.464   4.325  18.352  0.00  0.00    +0.000 F 
ATOM     14  C   UNL     1       4.527   5.597  18.803  0.00  0.00    +0.000 A 
ENDBRANCH   3   7
BRANCH   6  15
ATOM     15  C   UNL     1       0.510  10.779  18.995  0.00  0.00    +0.000 A 
ATOM     16  C   UNL     1      -0.862  11.001  18.807  0.00  0.00    +0.000 A 
ATOM     17  C   UNL     1      -1.356  12.284  18.572  0.00  0.00    +0.000 A 
ATOM     18  C   UNL     1      -0.467  13.341  18.581  0.00  0.00    +0.000 A 
ATOM     19  N   UNL     1       0.851  13.202  18.820  0.00  0.00    +0.000 NA
ATOM     20  C   UNL     1       1.300  11.934  19.019  0.00  0.00    +0.000 A 
ENDBRANCH   6  15
BRANCH   1  22
ATOM     21  N   UNL     1       0.264  10.100  22.131  0.00  0.00    +0.000 N 
ATOM     22  C   UNL     1       0.042   8.930  21.436  0.00  0.00    +0.000 C 
ATOM     23  O   UNL     1      -0.863   8.153  21.703  0.00  0.00    +0.000 OA
ATOM     24  H   UNL     1       0.968  10.758  21.825  0.00  0.00    +0.000 HD
BRANCH  21  25
ATOM     25  C   UNL     1      -0.658  10.541  23.156  0.00  0.00    +0.000 C 
BRANCH  25  29
ATOM     26  C   UNL     1      -2.388  14.408  22.280  0.00  0.00    +0.000 A 
ATOM     27  C   UNL     1      -3.194  13.332  22.687  0.00  0.00    +0.000 A 
ATOM     28  C   UNL     1      -2.639  12.083  22.969  0.00  0.00    +0.000 A 
ATOM     29  C   UNL     1      -1.271  11.866  22.799  0.00  0.00    +0.000 A 
ATOM     30  C   UNL     1      -0.482  12.918  22.317  0.00  0.00    +0.000 A 
ATOM     31  C   UNL     1      -1.023  14.185  22.043  0.00  0.00    +0.000 A 
BRANCH  26  33
ATOM     32  C   UNL     1      -3.548  16.227  23.249  0.00  0.00    +0.000 C 
ATOM     33  O   UNL     1      -2.918  15.658  22.100  0.00  0.00    +0.000 OA
ENDBRANCH  26  33
BRANCH  31  34
ATOM     34  O   UNL     1      -0.069  15.054  21.587  0.00  0.00    +0.000 OA
ATOM     35  C   UNL     1       0.618  15.881  22.514  0.00  0.00    +0.000 C 
ENDBRANCH  31  34
ENDBRANCH  25  29
ENDBRANCH  21  25
ENDBRANCH   1  22
TORSDOF 7
ENDMDL
MODEL 7
REMARK VINA RESULT:      -7.9      0.753      1.707
REMARK  Name = 
REMARK  9 active torsions:
REMARK  status: ('A' for Active; 'I' for Inactive)
REMARK    1  A    between atoms: C_1  and  O_2
REMARK    2  A    between atoms: O_2  and  C_3
REMARK    3  A    between atoms: C_6  and  C_7
REMARK    4  A    between atoms: C_7  and  N_8
REMARK    5  A    between atoms: C_9  and  C_11
REMARK    6  A    between atoms: C_13  and  C_14
REMARK    7  A    between atoms: C_24  and  C_25
REMARK    8  A    between atoms: C_32  and  O_33
REMARK    9  A    between atoms: O_33  and  C_34
REMARK                            x       y       z     vdW  Elec       q    Type
REMARK                         _______ _______ _______ _____ _____    ______ ____
ROOT
ATOM      1  C   UNL     1       0.984   8.641  20.304  0.00  0.00    +0.000 A 
ATOM      2  C   UNL     1       1.705   7.434  20.369  0.00  0.00    +0.000 A 
ATOM      3  C   UNL     1       2.496   6.996  19.297  0.00  0.00    +0.000 A 
ATOM      4  C   UNL     1       2.502   7.831  18.186  0.00  0.00    +0.000 A 
ATOM      5  N   UNL     1       1.848   9.017  18.098  0.00  0.00    +0.000 NA
ATOM      6  C   UNL     1       1.091   9.434  19.154  0.00  0.00    +0.000 A 
ENDROOT
BRANCH   3   7
ATOM      7  C   UNL     1       3.259   5.729  19.352  0.00  0.00    +0.000 A 
ATOM      8  C   UNL     1       4.581   5.647  18.873  0.00  0.00    +0.000 A 
ATOM      9  C   UNL     1       5.283   4.441  18.895  0.00  0.00    +0.000 A 
ATOM     10  F   UNL     1       6.532   4.404  18.414  0.00  0.00    +0.000 F 
ATOM     11  C   UNL     1       4.709   3.287  19.398  0.00  0.00    +0.000 A 
ATOM     12  C   UNL     1       3.416   3.354  19.885  0.00  0.00    +0.000 A 
ATOM     13  F   UNL     1       2.841   2.250  20.379  0.00  0.00    +0.000 F 
ATOM     14  C   UNL     1       2.692   4.549  19.865  0.00  0.00    +0.000 A 
ENDBRANCH   3   7
BRANCH   6  15
ATOM     15  C   UNL     1       0.476  10.762  18.941  0.00  0.00    +0.000 A 
ATOM     16  C   UNL     1      -0.894  10.960  18.717  0.00  0.00    +0.000 A 
ATOM     17  C   UNL     1      -1.404  12.234  18.466  0.00  0.00    +0.000 A 
ATOM     18  C   UNL     1      -0.533  13.307  18.497  0.00  0.00    +0.000 A 
ATOM     19  N   UNL     1       0.780  13.190  18.771  0.00  0.00    +0.000 NA
ATOM     20  C   UNL     1       1.245  11.930  18.984  0.00  0.00    +0.000 A 
ENDBRANCH   6  15
BRANCH   1  22
ATOM     21  N   UNL     1       0.280  10.122  22.108  0.00  0.00    +0.000 N 
ATOM     22  C   UNL     1       0.049   8.951  21.419  0.00  0.00    +0.000 C 
ATOM     23  O   UNL     1      -0.859   8.180  21.691  0.00  0.00    +0.000 OA
ATOM     24  H   UNL     1       0.986  10.775  21.798  0.00  0.00    +0.000 HD
BRANCH  21  25
ATOM     25  C   UNL     1      -0.635  10.571  23.136  0.00  0.00    +0.000 C 
BRANCH  25  29
ATOM     26  C   UNL     1      -2.433  14.394  22.204  0.00  0.00    +0.000 A 
ATOM     27  C   UNL     1      -3.222  13.307  22.613  0.00  0.00    +0.000 A 
ATOM     28  C   UNL     1      -2.645  12.071  22.913  0.00  0.00    +0.000 A 
ATOM     29  C   UNL     1      -1.271  11.880  22.760  0.00  0.00    +0.000 A 
ATOM     30  C   UNL     1      -0.498  12.943  22.275  0.00  0.00    +0.000 A 
ATOM     31  C   UNL     1      -1.062  14.197  21.983  0.00  0.00    +0.000 A 
BRANCH  26  33
ATOM     32  C   UNL     1      -4.175  15.650  21.213  0.00  0.00    +0.000 C 
ATOM     33  O   UNL     1      -2.986  15.632  22.006  0.00  0.00    +0.000 OA
ENDBRANCH  26  33
BRANCH  31  34
ATOM     34  O   UNL     1      -0.120  15.080  21.529  0.00  0.00    +0.000 OA
ATOM     35  C   UNL     1       0.536  15.934  22.453  0.00  0.00    +0.000 C 
ENDBRANCH  31  34
ENDBRANCH  25  29
ENDBRANCH  21  25
ENDBRANCH   1  22
TORSDOF 7
ENDMDL
MODEL 8
REMARK VINA RESULT:      -7.8      2.557      4.288
REMARK  Name = 
REMARK  9 active torsions:
REMARK  status: ('A' for Active; 'I' for Inactive)
REMARK    1  A    between atoms: C_1  and  O_2
REMARK    2  A    between atoms: O_2  and  C_3
REMARK    3  A    between atoms: C_6  and  C_7
REMARK    4  A    between atoms: C_7  and  N_8
REMARK    5  A    between atoms: C_9  and  C_11
REMARK    6  A    between atoms: C_13  and  C_14
REMARK    7  A    between atoms: C_24  and  C_25
REMARK    8  A    between atoms: C_32  and  O_33
REMARK    9  A    between atoms: O_33  and  C_34
REMARK                            x       y       z     vdW  Elec       q    Type
REMARK                         _______ _______ _______ _____ _____    ______ ____
ROOT
ATOM      1  C   UNL     1       1.482   8.946  18.952  0.00  0.00    +0.000 A 
ATOM      2  C   UNL     1       2.178   8.031  18.141  0.00  0.00    +0.000 A 
ATOM      3  C   UNL     1       2.745   6.864  18.674  0.00  0.00    +0.000 A 
ATOM      4  C   UNL     1       2.573   6.695  20.043  0.00  0.00    +0.000 A 
ATOM      5  N   UNL     1       1.882   7.537  20.852  0.00  0.00    +0.000 NA
ATOM      6  C   UNL     1       1.327   8.662  20.316  0.00  0.00    +0.000 A 
ENDROOT
BRANCH   3   7
ATOM      7  C   UNL     1       3.479   5.893  17.832  0.00  0.00    +0.000 A 
ATOM      8  C   UNL     1       3.286   4.505  17.974  0.00  0.00    +0.000 A 
ATOM      9  C   UNL     1       4.007   3.594  17.202  0.00  0.00    +0.000 A 
ATOM     10  F   UNL     1       3.805   2.282  17.381  0.00  0.00    +0.000 F 
ATOM     11  C   UNL     1       4.928   4.022  16.263  0.00  0.00    +0.000 A 
ATOM     12  C   UNL     1       5.120   5.382  16.101  0.00  0.00    +0.000 A 
ATOM     13  F   UNL     1       6.004   5.819  15.195  0.00  0.00    +0.000 F 
ATOM     14  C   UNL     1       4.414   6.312  16.869  0.00  0.00    +0.000 A 
ENDBRANCH   3   7
BRANCH   6  15
ATOM     15  C   UNL     1       0.563   9.461  21.298  0.00  0.00    +0.000 A 
ATOM     16  C   UNL     1      -0.241   8.902  22.302  0.00  0.00    +0.000 A 
ATOM     17  C   UNL     1      -0.982   9.712  23.163  0.00  0.00    +0.000 A 
ATOM     18  C   UNL     1      -0.863  11.084  23.037  0.00  0.00    +0.000 A 
ATOM     19  N   UNL     1      -0.058  11.680  22.137  0.00  0.00    +0.000 NA
ATOM     20  C   UNL     1       0.628  10.859  21.299  0.00  0.00    +0.000 A 
ENDBRANCH   6  15
BRANCH   1  22
ATOM     21  N   UNL     1      -0.286  10.342  18.021  0.00  0.00    +0.000 N 
ATOM     22  C   UNL     1       1.051  10.229  18.336  0.00  0.00    +0.000 C 
ATOM     23  O   UNL     1       1.867  11.114  18.124  0.00  0.00    +0.000 OA
ATOM     24  H   UNL     1      -0.945   9.625  18.291  0.00  0.00    +0.000 HD
BRANCH  21  25
ATOM     25  C   UNL     1      -0.829  11.588  17.521  0.00  0.00    +0.000 C 
BRANCH  25  29
ATOM     26  C   UNL     1      -5.142  11.463  17.830  0.00  0.00    +0.000 A 
ATOM     27  C   UNL     1      -4.497  11.170  16.618  0.00  0.00    +0.000 A 
ATOM     28  C   UNL     1      -3.105  11.210  16.514  0.00  0.00    +0.000 A 
ATOM     29  C   UNL     1      -2.330  11.598  17.607  0.00  0.00    +0.000 A 
ATOM     30  C   UNL     1      -2.980  11.968  18.792  0.00  0.00    +0.000 A 
ATOM     31  C   UNL     1      -4.379  11.918  18.916  0.00  0.00    +0.000 A 
BRANCH  26  33
ATOM     32  C   UNL     1      -7.255  12.522  17.752  0.00  0.00    +0.000 C 
ATOM     33  O   UNL     1      -6.499  11.327  17.958  0.00  0.00    +0.000 OA
ENDBRANCH  26  33
BRANCH  31  34
ATOM     34  O   UNL     1      -4.790  12.319  20.158  0.00  0.00    +0.000 OA
ATOM     35  C   UNL     1      -4.014  13.267  20.875  0.00  0.00    +0.000 C 
ENDBRANCH  31  34
ENDBRANCH  25  29
ENDBRANCH  21  25
ENDBRANCH   1  22
TORSDOF 7
ENDMDL
MODEL 9
REMARK VINA RESULT:      -7.8      1.471      1.825
REMARK  Name = 
REMARK  9 active torsions:
REMARK  status: ('A' for Active; 'I' for Inactive)
REMARK    1  A    between atoms: C_1  and  O_2
REMARK    2  A    between atoms: O_2  and  C_3
REMARK    3  A    between atoms: C_6  and  C_7
REMARK    4  A    between atoms: C_7  and  N_8
REMARK    5  A    between atoms: C_9  and  C_11
REMARK    6  A    between atoms: C_13  and  C_14
REMARK    7  A    between atoms: C_24  and  C_25
REMARK    8  A    between atoms: C_32  and  O_33
REMARK    9  A    between atoms: O_33  and  C_34
REMARK                            x       y       z     vdW  Elec       q    Type
REMARK                         _______ _______ _______ _____ _____    ______ ____
ROOT
ATOM      1  C   UNL     1       0.993   9.360  21.038  0.00  0.00    +0.000 A 
ATOM      2  C   UNL     1       1.381   8.010  21.115  0.00  0.00    +0.000 A 
ATOM      3  C   UNL     1       1.861   7.321  19.992  0.00  0.00    +0.000 A 
ATOM      4  C   UNL     1       1.911   8.065  18.819  0.00  0.00    +0.000 A 
ATOM      5  N   UNL     1       1.577   9.376  18.711  0.00  0.00    +0.000 NA
ATOM      6  C   UNL     1       1.123  10.034  19.816  0.00  0.00    +0.000 A 
ENDROOT
BRANCH   3   7
ATOM      7  C   UNL     1       2.273   5.901  20.059  0.00  0.00    +0.000 A 
ATOM      8  C   UNL     1       3.502   5.467  19.525  0.00  0.00    +0.000 A 
ATOM      9  C   UNL     1       3.869   4.121  19.561  0.00  0.00    +0.000 A 
ATOM     10  F   UNL     1       5.039   3.750  19.026  0.00  0.00    +0.000 F 
ATOM     11  C   UNL     1       3.043   3.169  20.130  0.00  0.00    +0.000 A 
ATOM     12  C   UNL     1       1.839   3.580  20.671  0.00  0.00    +0.000 A 
ATOM     13  F   UNL     1       1.026   2.675  21.230  0.00  0.00    +0.000 F 
ATOM     14  C   UNL     1       1.448   4.922  20.640  0.00  0.00    +0.000 A 
ENDBRANCH   3   7
BRANCH   6  15
ATOM     15  C   UNL     1       0.843  11.466  19.568  0.00  0.00    +0.000 A 
ATOM     16  C   UNL     1      -0.174  11.926  18.719  0.00  0.00    +0.000 A 
ATOM     17  C   UNL     1      -0.349  13.290  18.483  0.00  0.00    +0.000 A 
ATOM     18  C   UNL     1       0.471  14.181  19.149  0.00  0.00    +0.000 A 
ATOM     19  N   UNL     1       1.420  13.805  20.026  0.00  0.00    +0.000 NA
ATOM     20  C   UNL     1       1.580  12.467  20.210  0.00  0.00    +0.000 A 
ENDBRANCH   6  15
BRANCH   1  22
ATOM     21  N   UNL     1      -0.796  10.700  22.013  0.00  0.00    +0.000 N 
ATOM     22  C   UNL     1       0.350   9.966  22.235  0.00  0.00    +0.000 C 
ATOM     23  O   UNL     1       0.843   9.811  23.342  0.00  0.00    +0.000 OA
ATOM     24  H   UNL     1      -1.221  10.732  21.096  0.00  0.00    +0.000 HD
BRANCH  21  25
ATOM     25  C   UNL     1      -1.560  11.236  23.119  0.00  0.00    +0.000 C 
BRANCH  25  29
ATOM     26  C   UNL     1      -4.706  13.831  21.675  0.00  0.00    +0.000 A 
ATOM     27  C   UNL     1      -3.580  13.553  20.884  0.00  0.00    +0.000 A 
ATOM     28  C   UNL     1      -2.563  12.717  21.347  0.00  0.00    +0.000 A 
ATOM     29  C   UNL     1      -2.622  12.183  22.634  0.00  0.00    +0.000 A 
ATOM     30  C   UNL     1      -3.707  12.527  23.452  0.00  0.00    +0.000 A 
ATOM     31  C   UNL     1      -4.746  13.354  22.995  0.00  0.00    +0.000 A 
BRANCH  26  33
ATOM     32  C   UNL     1      -6.624  13.874  20.293  0.00  0.00    +0.000 C 
ATOM     33  O   UNL     1      -5.750  14.570  21.184  0.00  0.00    +0.000 OA
ENDBRANCH  26  33
BRANCH  31  34
ATOM     34  O   UNL     1      -5.697  13.550  23.959  0.00  0.00    +0.000 OA
ATOM     35  C   UNL     1      -6.856  12.731  23.970  0.00  0.00    +0.000 C 
ENDBRANCH  31  34
ENDBRANCH  25  29
ENDBRANCH  21  25
ENDBRANCH   1  22
TORSDOF 7
ENDMDL
