MODEL 1
REMARK VINA RESULT:      -7.7      0.000      0.000
REMARK  Name = 
REMARK  6 active torsions:
REMARK  status: ('A' for Active; 'I' for Inactive)
REMARK    1  A    between atoms: C_1  and  C_2
REMARK    2  A    between atoms: C_2  and  C_3
REMARK    3  A    between atoms: C_3  and  C_4
REMARK    4  A    between atoms: C_6  and  C_7
REMARK    5  A    between atoms: C_10  and  C_11
REMARK    6  A    between atoms: C_18  and  C_19
REMARK                            x       y       z     vdW  Elec       q    Type
REMARK                         _______ _______ _______ _____ _____    ______ ____
ROOT
ATOM      1  C   UNL     1       6.872   5.250  15.388  0.00  0.00    +0.000 A 
ATOM      2  C   UNL     1       5.773   4.702  16.018  0.00  0.00    +0.000 A 
ATOM      3  C   UNL     1       5.390   5.247  17.231  0.00  0.00    +0.000 A 
ATOM      4  N   UNL     1       6.054   6.285  17.782  0.00  0.00    +0.000 NA
ATOM      5  C   UNL     1       7.110   6.755  17.095  0.00  0.00    +0.000 A 
ATOM      6  N   UNL     1       7.551   6.289  15.912  0.00  0.00    +0.000 NA
ENDROOT
BRANCH   3   7
ATOM      7  C   UNL     1       4.223   4.749  17.987  0.00  0.00    +0.000 A 
ATOM      8  C   UNL     1       4.000   5.109  19.329  0.00  0.00    +0.000 A 
ATOM      9  C   UNL     1       2.908   4.612  20.046  0.00  0.00    +0.000 A 
ATOM     10  C   UNL     1       1.993   3.746  19.438  0.00  0.00    +0.000 A 
ATOM     11  C   UNL     1       2.196   3.384  18.100  0.00  0.00    +0.000 A 
ATOM     12  C   UNL     1       3.292   3.883  17.387  0.00  0.00    +0.000 A 
BRANCH  10  13
ATOM     13  C   UNL     1       0.799   3.221  20.196  0.00  0.00    +0.000 C 
ATOM     14  F   UNL     1      -0.042   4.203  20.626  0.00  0.00    +0.000 F 
ATOM     15  F   UNL     1       0.036   2.379  19.446  0.00  0.00    +0.000 F 
ATOM     16  F   UNL     1       1.153   2.521  21.308  0.00  0.00    +0.000 F 
ENDBRANCH  10  13
ENDBRANCH   3   7
BRANCH   5  17
ATOM     17  C   UNL     1       7.832   7.856  17.675  0.00  0.00    +0.000 C 
ATOM     18  N   UNL     1       8.417   8.747  18.146  0.00  0.00    +0.000 NA
ENDBRANCH   5  17
BRANCH   1  19
ATOM     19  C   UNL     1       7.337   4.710  14.060  0.00  0.00    +0.000 C 
BRANCH  19  21
ATOM     20  C   UNL     1       6.658   3.450  11.992  0.00  0.00    +0.000 C 
ATOM     21  C   UNL     1       6.266   3.837  13.407  0.00  0.00    +0.000 C 
ENDBRANCH  19  21
ENDBRANCH   1  19
TORSDOF 5
ENDMDL
MODEL 2
REMARK VINA RESULT:      -7.5      0.528      1.226
REMARK  Name = 
REMARK  6 active torsions:
REMARK  status: ('A' for Active; 'I' for Inactive)
REMARK    1  A    between atoms: C_1  and  C_2
REMARK    2  A    between atoms: C_2  and  C_3
REMARK    3  A    between atoms: C_3  and  C_4
REMARK    4  A    between atoms: C_6  and  C_7
REMARK    5  A    between atoms: C_10  and  C_11
REMARK    6  A    between atoms: C_18  and  C_19
REMARK                            x       y       z     vdW  Elec       q    Type
REMARK                         _______ _______ _______ _____ _____    ______ ____
ROOT
ATOM      1  C   UNL     1       6.901   5.201  15.379  0.00  0.00    +0.000 A 
ATOM      2  C   UNL     1       5.812   4.633  16.010  0.00  0.00    +0.000 A 
ATOM      3  C   UNL     1       5.420   5.174  17.223  0.00  0.00    +0.000 A 
ATOM      4  N   UNL     1       6.066   6.225  17.771  0.00  0.00    +0.000 NA
ATOM      5  C   UNL     1       7.112   6.713  17.082  0.00  0.00    +0.000 A 
ATOM      6  N   UNL     1       7.561   6.253  15.900  0.00  0.00    +0.000 NA
ENDROOT
BRANCH   3   7
ATOM      7  C   UNL     1       4.263   4.656  17.980  0.00  0.00    +0.000 A 
ATOM      8  C   UNL     1       4.063   3.277  18.177  0.00  0.00    +0.000 A 
ATOM      9  C   UNL     1       2.952   2.792  18.872  0.00  0.00    +0.000 A 
ATOM     10  C   UNL     1       2.007   3.675  19.407  0.00  0.00    +0.000 A 
ATOM     11  C   UNL     1       2.196   5.052  19.227  0.00  0.00    +0.000 A 
ATOM     12  C   UNL     1       3.310   5.531  18.528  0.00  0.00    +0.000 A 
BRANCH  10  13
ATOM     13  C   UNL     1       0.815   3.165  20.178  0.00  0.00    +0.000 C 
ATOM     14  F   UNL     1       1.155   2.491  21.312  0.00  0.00    +0.000 F 
ATOM     15  F   UNL     1      -0.016   4.167  20.574  0.00  0.00    +0.000 F 
ATOM     16  F   UNL     1       0.051   2.305  19.449  0.00  0.00    +0.000 F 
ENDBRANCH  10  13
ENDBRANCH   3   7
BRANCH   5  17
ATOM     17  C   UNL     1       7.814   7.828  17.660  0.00  0.00    +0.000 C 
ATOM     18  N   UNL     1       8.382   8.731  18.128  0.00  0.00    +0.000 NA
ENDBRANCH   5  17
BRANCH   1  19
ATOM     19  C   UNL     1       7.374   4.667  14.051  0.00  0.00    +0.000 C 
BRANCH  19  21
ATOM     20  C   UNL     1       6.737   3.392  11.978  0.00  0.00    +0.000 C 
ATOM     21  C   UNL     1       6.262   3.913  13.324  0.00  0.00    +0.000 C 
ENDBRANCH  19  21
ENDBRANCH   1  19
TORSDOF 5
ENDMDL
MODEL 3
REMARK VINA RESULT:      -7.2      4.043      5.085
REMARK  Name = 
REMARK  6 active torsions:
REMARK  status: ('A' for Active; 'I' for Inactive)
REMARK    1  A    between atoms: C_1  and  C_2
REMARK    2  A    between atoms: C_2  and  C_3
REMARK    3  A    between atoms: C_3  and  C_4
REMARK    4  A    between atoms: C_6  and  C_7
REMARK    5  A    between atoms: C_10  and  C_11
REMARK    6  A    between atoms: C_18  and  C_19
REMARK                            x       y       z     vdW  Elec       q    Type
REMARK                         _______ _______ _______ _____ _____    ______ ____
ROOT
ATOM      1  C   UNL     1       5.124   5.384  16.724  0.00  0.00    +0.000 A 
ATOM      2  C   UNL     1       4.293   6.438  17.045  0.00  0.00    +0.000 A 
ATOM      3  C   UNL     1       3.561   6.344  18.216  0.00  0.00    +0.000 A 
ATOM      4  N   UNL     1       3.657   5.268  19.027  0.00  0.00    +0.000 NA
ATOM      5  C   UNL     1       4.495   4.292  18.633  0.00  0.00    +0.000 A 
ATOM      6  N   UNL     1       5.243   4.300  17.515  0.00  0.00    +0.000 NA
ENDROOT
BRANCH   3   7
ATOM      7  C   UNL     1       2.650   7.416  18.666  0.00  0.00    +0.000 A 
ATOM      8  C   UNL     1       2.151   7.462  19.980  0.00  0.00    +0.000 A 
ATOM      9  C   UNL     1       1.268   8.464  20.392  0.00  0.00    +0.000 A 
ATOM     10  C   UNL     1       0.865   9.465  19.501  0.00  0.00    +0.000 A 
ATOM     11  C   UNL     1       1.360   9.439  18.191  0.00  0.00    +0.000 A 
ATOM     12  C   UNL     1       2.242   8.431  17.784  0.00  0.00    +0.000 A 
BRANCH  10  13
ATOM     13  C   UNL     1      -0.070  10.565  19.940  0.00  0.00    +0.000 C 
ATOM     14  F   UNL     1      -0.945  10.948  18.969  0.00  0.00    +0.000 F 
ATOM     15  F   UNL     1      -0.832  10.204  21.009  0.00  0.00    +0.000 F 
ATOM     16  F   UNL     1       0.592  11.695  20.312  0.00  0.00    +0.000 F 
ENDBRANCH  10  13
ENDBRANCH   3   7
BRANCH   5  17
ATOM     17  C   UNL     1       4.600   3.137  19.483  0.00  0.00    +0.000 C 
ATOM     18  N   UNL     1       4.685   2.201  20.173  0.00  0.00    +0.000 NA
ENDBRANCH   5  17
BRANCH   1  19
ATOM     19  C   UNL     1       5.956   5.426  15.468  0.00  0.00    +0.000 C 
BRANCH  19  21
ATOM     20  C   UNL     1       5.897   3.838  13.518  0.00  0.00    +0.000 C 
ATOM     21  C   UNL     1       6.293   4.020  14.973  0.00  0.00    +0.000 C 
ENDBRANCH  19  21
ENDBRANCH   1  19
TORSDOF 5
ENDMDL
MODEL 4
REMARK VINA RESULT:      -7.1      4.061      5.203
REMARK  Name = 
REMARK  6 active torsions:
REMARK  status: ('A' for Active; 'I' for Inactive)
REMARK    1  A    between atoms: C_1  and  C_2
REMARK    2  A    between atoms: C_2  and  C_3
REMARK    3  A    between atoms: C_3  and  C_4
REMARK    4  A    between atoms: C_6  and  C_7
REMARK    5  A    between atoms: C_10  and  C_11
REMARK    6  A    between atoms: C_18  and  C_19
REMARK                            x       y       z     vdW  Elec       q    Type
REMARK                         _______ _______ _______ _____ _____    ______ ____
ROOT
ATOM      1  C   UNL     1       4.983   5.562  16.722  0.00  0.00    +0.000 A 
ATOM      2  C   UNL     1       4.136   6.589  17.085  0.00  0.00    +0.000 A 
ATOM      3  C   UNL     1       3.425   6.447  18.265  0.00  0.00    +0.000 A 
ATOM      4  N   UNL     1       3.557   5.351  19.043  0.00  0.00    +0.000 NA
ATOM      5  C   UNL     1       4.408   4.405  18.609  0.00  0.00    +0.000 A 
ATOM      6  N   UNL     1       5.138   4.460  17.481  0.00  0.00    +0.000 NA
ENDROOT
BRANCH   3   7
ATOM      7  C   UNL     1       2.499   7.486  18.758  0.00  0.00    +0.000 A 
ATOM      8  C   UNL     1       2.019   8.510  17.920  0.00  0.00    +0.000 A 
ATOM      9  C   UNL     1       1.165   9.506  18.401  0.00  0.00    +0.000 A 
ATOM     10  C   UNL     1       0.750   9.503  19.737  0.00  0.00    +0.000 A 
ATOM     11  C   UNL     1       1.212   8.486  20.582  0.00  0.00    +0.000 A 
ATOM     12  C   UNL     1       2.069   7.492  20.096  0.00  0.00    +0.000 A 
BRANCH  10  13
ATOM     13  C   UNL     1      -0.190  10.560  20.261  0.00  0.00    +0.000 C 
ATOM     14  F   UNL     1      -0.593  10.336  21.543  0.00  0.00    +0.000 F 
ATOM     15  F   UNL     1       0.370  11.801  20.257  0.00  0.00    +0.000 F 
ATOM     16  F   UNL     1      -1.330  10.658  19.524  0.00  0.00    +0.000 F 
ENDBRANCH  10  13
ENDBRANCH   3   7
BRANCH   5  17
ATOM     17  C   UNL     1       4.551   3.229  19.425  0.00  0.00    +0.000 C 
ATOM     18  N   UNL     1       4.668   2.277  20.087  0.00  0.00    +0.000 NA
ENDBRANCH   5  17
BRANCH   1  19
ATOM     19  C   UNL     1       5.794   5.657  15.455  0.00  0.00    +0.000 C 
BRANCH  19  21
ATOM     20  C   UNL     1       6.299   3.859  13.769  0.00  0.00    +0.000 C 
ATOM     21  C   UNL     1       6.555   4.360  15.180  0.00  0.00    +0.000 C 
ENDBRANCH  19  21
ENDBRANCH   1  19
TORSDOF 5
ENDMDL
MODEL 5
REMARK VINA RESULT:      -7.1      3.890      5.114
REMARK  Name = 
REMARK  6 active torsions:
REMARK  status: ('A' for Active; 'I' for Inactive)
REMARK    1  A    between atoms: C_1  and  C_2
REMARK    2  A    between atoms: C_2  and  C_3
REMARK    3  A    between atoms: C_3  and  C_4
REMARK    4  A    between atoms: C_6  and  C_7
REMARK    5  A    between atoms: C_10  and  C_11
REMARK    6  A    between atoms: C_18  and  C_19
REMARK                            x       y       z     vdW  Elec       q    Type
REMARK                         _______ _______ _______ _____ _____    ______ ____
ROOT
ATOM      1  C   UNL     1       4.965   5.180  16.404  0.00  0.00    +0.000 A 
ATOM      2  C   UNL     1       4.296   6.254  16.955  0.00  0.00    +0.000 A 
ATOM      3  C   UNL     1       3.380   5.993  17.960  0.00  0.00    +0.000 A 
ATOM      4  N   UNL     1       3.150   4.737  18.400  0.00  0.00    +0.000 NA
ATOM      5  C   UNL     1       3.852   3.756  17.806  0.00  0.00    +0.000 A 
ATOM      6  N   UNL     1       4.759   3.917  16.827  0.00  0.00    +0.000 NA
ENDROOT
BRANCH   3   7
ATOM      7  C   UNL     1       2.616   7.065  18.629  0.00  0.00    +0.000 A 
ATOM      8  C   UNL     1       2.224   6.966  19.977  0.00  0.00    +0.000 A 
ATOM      9  C   UNL     1       1.478   7.973  20.596  0.00  0.00    +0.000 A 
ATOM     10  C   UNL     1       1.110   9.122  19.889  0.00  0.00    +0.000 A 
ATOM     11  C   UNL     1       1.499   9.241  18.548  0.00  0.00    +0.000 A 
ATOM     12  C   UNL     1       2.244   8.228  17.932  0.00  0.00    +0.000 A 
BRANCH  10  13
ATOM     13  C   UNL     1       0.323  10.225  20.553  0.00  0.00    +0.000 C 
ATOM     14  F   UNL     1      -0.317   9.824  21.686  0.00  0.00    +0.000 F 
ATOM     15  F   UNL     1       1.108  11.275  20.920  0.00  0.00    +0.000 F 
ATOM     16  F   UNL     1      -0.642  10.739  19.742  0.00  0.00    +0.000 F 
ENDBRANCH  10  13
ENDBRANCH   3   7
BRANCH   5  17
ATOM     17  C   UNL     1       3.610   2.412  18.260  0.00  0.00    +0.000 C 
ATOM     18  N   UNL     1       3.416   1.324  18.628  0.00  0.00    +0.000 NA
ENDBRANCH   5  17
BRANCH   1  19
ATOM     19  C   UNL     1       5.982   5.395  15.313  0.00  0.00    +0.000 C 
BRANCH  19  21
ATOM     20  C   UNL     1       6.166   3.831  13.351  0.00  0.00    +0.000 C 
ATOM     21  C   UNL     1       6.543   4.068  14.804  0.00  0.00    +0.000 C 
ENDBRANCH  19  21
ENDBRANCH   1  19
TORSDOF 5
ENDMDL
MODEL 6
REMARK VINA RESULT:      -7.1      4.108      5.722
REMARK  Name = 
REMARK  6 active torsions:
REMARK  status: ('A' for Active; 'I' for Inactive)
REMARK    1  A    between atoms: C_1  and  C_2
REMARK    2  A    between atoms: C_2  and  C_3
REMARK    3  A    between atoms: C_3  and  C_4
REMARK    4  A    between atoms: C_6  and  C_7
REMARK    5  A    between atoms: C_10  and  C_11
REMARK    6  A    between atoms: C_18  and  C_19
REMARK                            x       y       z     vdW  Elec       q    Type
REMARK                         _______ _______ _______ _____ _____    ______ ____
ROOT
ATOM      1  C   UNL     1       3.241   4.133  17.492  0.00  0.00    +0.000 A 
ATOM      2  C   UNL     1       2.488   5.150  18.044  0.00  0.00    +0.000 A 
ATOM      3  C   UNL     1       3.048   6.416  18.081  0.00  0.00    +0.000 A 
ATOM      4  N   UNL     1       4.280   6.660  17.587  0.00  0.00    +0.000 NA
ATOM      5  C   UNL     1       4.937   5.608  17.065  0.00  0.00    +0.000 A 
ATOM      6  N   UNL     1       4.471   4.349  16.987  0.00  0.00    +0.000 NA
ENDROOT
BRANCH   3   7
ATOM      7  C   UNL     1       2.329   7.580  18.638  0.00  0.00    +0.000 A 
ATOM      8  C   UNL     1       1.949   7.639  19.991  0.00  0.00    +0.000 A 
ATOM      9  C   UNL     1       1.246   8.732  20.505  0.00  0.00    +0.000 A 
ATOM     10  C   UNL     1       0.911   9.812  19.681  0.00  0.00    +0.000 A 
ATOM     11  C   UNL     1       1.289   9.773  18.333  0.00  0.00    +0.000 A 
ATOM     12  C   UNL     1       1.991   8.674  17.823  0.00  0.00    +0.000 A 
BRANCH  10  13
ATOM     13  C   UNL     1       0.171  11.007  20.230  0.00  0.00    +0.000 C 
ATOM     14  F   UNL     1      -1.153  11.015  19.910  0.00  0.00    +0.000 F 
ATOM     15  F   UNL     1       0.227  11.075  21.588  0.00  0.00    +0.000 F 
ATOM     16  F   UNL     1       0.672  12.187  19.771  0.00  0.00    +0.000 F 
ENDBRANCH  10  13
ENDBRANCH   3   7
BRANCH   5  17
ATOM     17  C   UNL     1       6.254   5.853  16.543  0.00  0.00    +0.000 C 
ATOM     18  N   UNL     1       7.322   6.050  16.120  0.00  0.00    +0.000 NA
ENDBRANCH   5  17
BRANCH   1  19
ATOM     19  C   UNL     1       2.688   2.734  17.412  0.00  0.00    +0.000 C 
BRANCH  19  21
ATOM     20  C   UNL     1       0.700   2.246  18.874  0.00  0.00    +0.000 C 
ATOM     21  C   UNL     1       2.216   2.241  18.779  0.00  0.00    +0.000 C 
ENDBRANCH  19  21
ENDBRANCH   1  19
TORSDOF 5
ENDMDL
MODEL 7
REMARK VINA RESULT:      -7.1      1.299      3.616
REMARK  Name = 
REMARK  6 active torsions:
REMARK  status: ('A' for Active; 'I' for Inactive)
REMARK    1  A    between atoms: C_1  and  C_2
REMARK    2  A    between atoms: C_2  and  C_3
REMARK    3  A    between atoms: C_3  and  C_4
REMARK    4  A    between atoms: C_6  and  C_7
REMARK    5  A    between atoms: C_10  and  C_11
REMARK    6  A    between atoms: C_18  and  C_19
REMARK                            x       y       z     vdW  Elec       q    Type
REMARK                         _______ _______ _______ _____ _____    ______ ____
ROOT
ATOM      1  C   UNL     1       7.424   6.802  17.501  0.00  0.00    +0.000 A 
ATOM      2  C   UNL     1       6.336   6.314  18.196  0.00  0.00    +0.000 A 
ATOM      3  C   UNL     1       5.515   5.407  17.548  0.00  0.00    +0.000 A 
ATOM      4  N   UNL     1       5.768   4.999  16.286  0.00  0.00    +0.000 NA
ATOM      5  C   UNL     1       6.852   5.526  15.691  0.00  0.00    +0.000 A 
ATOM      6  N   UNL     1       7.703   6.410  16.243  0.00  0.00    +0.000 NA
ENDROOT
BRANCH   3   7
ATOM      7  C   UNL     1       4.331   4.810  18.198  0.00  0.00    +0.000 A 
ATOM      8  C   UNL     1       4.447   3.938  19.296  0.00  0.00    +0.000 A 
ATOM      9  C   UNL     1       3.324   3.356  19.889  0.00  0.00    +0.000 A 
ATOM     10  C   UNL     1       2.040   3.640  19.410  0.00  0.00    +0.000 A 
ATOM     11  C   UNL     1       1.905   4.513  18.323  0.00  0.00    +0.000 A 
ATOM     12  C   UNL     1       3.035   5.091  17.732  0.00  0.00    +0.000 A 
BRANCH  10  13
ATOM     13  C   UNL     1       0.819   3.035  20.057  0.00  0.00    +0.000 C 
ATOM     14  F   UNL     1       1.106   2.281  21.155  0.00  0.00    +0.000 F 
ATOM     15  F   UNL     1      -0.070   3.978  20.473  0.00  0.00    +0.000 F 
ATOM     16  F   UNL     1       0.133   2.215  19.212  0.00  0.00    +0.000 F 
ENDBRANCH  10  13
ENDBRANCH   3   7
BRANCH   5  17
ATOM     17  C   UNL     1       7.128   5.107  14.343  0.00  0.00    +0.000 C 
ATOM     18  N   UNL     1       7.351   4.766  13.251  0.00  0.00    +0.000 NA
ENDBRANCH   5  17
BRANCH   1  19
ATOM     19  C   UNL     1       8.363   7.785  18.151  0.00  0.00    +0.000 C 
BRANCH  19  21
ATOM     20  C   UNL     1       8.930  10.216  18.462  0.00  0.00    +0.000 C 
ATOM     21  C   UNL     1       8.052   9.219  17.726  0.00  0.00    +0.000 C 
ENDBRANCH  19  21
ENDBRANCH   1  19
TORSDOF 5
ENDMDL
MODEL 8
REMARK VINA RESULT:      -7.1      3.931      5.171
REMARK  Name = 
REMARK  6 active torsions:
REMARK  status: ('A' for Active; 'I' for Inactive)
REMARK    1  A    between atoms: C_1  and  C_2
REMARK    2  A    between atoms: C_2  and  C_3
REMARK    3  A    between atoms: C_3  and  C_4
REMARK    4  A    between atoms: C_6  and  C_7
REMARK    5  A    between atoms: C_10  and  C_11
REMARK    6  A    between atoms: C_18  and  C_19
REMARK                            x       y       z     vdW  Elec       q    Type
REMARK                         _______ _______ _______ _____ _____    ______ ____
ROOT
ATOM      1  C   UNL     1       4.921   5.233  16.412  0.00  0.00    +0.000 A 
ATOM      2  C   UNL     1       4.250   6.309  16.957  0.00  0.00    +0.000 A 
ATOM      3  C   UNL     1       3.319   6.050  17.948  0.00  0.00    +0.000 A 
ATOM      4  N   UNL     1       3.077   4.794  18.381  0.00  0.00    +0.000 NA
ATOM      5  C   UNL     1       3.780   3.810  17.794  0.00  0.00    +0.000 A 
ATOM      6  N   UNL     1       4.702   3.970  16.827  0.00  0.00    +0.000 NA
ENDROOT
BRANCH   3   7
ATOM      7  C   UNL     1       2.553   7.125  18.611  0.00  0.00    +0.000 A 
ATOM      8  C   UNL     1       2.167   8.291  17.925  0.00  0.00    +0.000 A 
ATOM      9  C   UNL     1       1.465   9.316  18.565  0.00  0.00    +0.000 A 
ATOM     10  C   UNL     1       1.112   9.201  19.914  0.00  0.00    +0.000 A 
ATOM     11  C   UNL     1       1.480   8.042  20.609  0.00  0.00    +0.000 A 
ATOM     12  C   UNL     1       2.186   7.020  19.963  0.00  0.00    +0.000 A 
BRANCH  10  13
ATOM     13  C   UNL     1       0.335  10.291  20.610  0.00  0.00    +0.000 C 
ATOM     14  F   UNL     1      -0.711  10.762  19.874  0.00  0.00    +0.000 F 
ATOM     15  F   UNL     1      -0.198   9.876  21.792  0.00  0.00    +0.000 F 
ATOM     16  F   UNL     1       1.104  11.376  20.901  0.00  0.00    +0.000 F 
ENDBRANCH  10  13
ENDBRANCH   3   7
BRANCH   5  17
ATOM     17  C   UNL     1       3.525   2.467  18.240  0.00  0.00    +0.000 C 
ATOM     18  N   UNL     1       3.318   1.379  18.602  0.00  0.00    +0.000 NA
ENDBRANCH   5  17
BRANCH   1  19
ATOM     19  C   UNL     1       5.954   5.445  15.336  0.00  0.00    +0.000 C 
BRANCH  19  21
ATOM     20  C   UNL     1       6.184   3.874  13.385  0.00  0.00    +0.000 C 
ATOM     21  C   UNL     1       6.529   4.117  14.844  0.00  0.00    +0.000 C 
ENDBRANCH  19  21
ENDBRANCH   1  19
TORSDOF 5
ENDMDL
MODEL 9
REMARK VINA RESULT:      -7.1      1.296      3.589
REMARK  Name = 
REMARK  6 active torsions:
REMARK  status: ('A' for Active; 'I' for Inactive)
REMARK    1  A    between atoms: C_1  and  C_2
REMARK    2  A    between atoms: C_2  and  C_3
REMARK    3  A    between atoms: C_3  and  C_4
REMARK    4  A    between atoms: C_6  and  C_7
REMARK    5  A    between atoms: C_10  and  C_11
REMARK    6  A    between atoms: C_18  and  C_19
REMARK                            x       y       z     vdW  Elec       q    Type
REMARK                         _______ _______ _______ _____ _____    ______ ____
ROOT
ATOM      1  C   UNL     1       7.411   6.789  17.476  0.00  0.00    +0.000 A 
ATOM      2  C   UNL     1       6.319   6.289  18.156  0.00  0.00    +0.000 A 
ATOM      3  C   UNL     1       5.512   5.380  17.492  0.00  0.00    +0.000 A 
ATOM      4  N   UNL     1       5.781   4.984  16.230  0.00  0.00    +0.000 NA
ATOM      5  C   UNL     1       6.868   5.523  15.650  0.00  0.00    +0.000 A 
ATOM      6  N   UNL     1       7.707   6.408  16.218  0.00  0.00    +0.000 NA
ENDROOT
BRANCH   3   7
ATOM      7  C   UNL     1       4.325   4.771  18.125  0.00  0.00    +0.000 A 
ATOM      8  C   UNL     1       3.024   5.007  17.643  0.00  0.00    +0.000 A 
ATOM      9  C   UNL     1       1.903   4.449  18.263  0.00  0.00    +0.000 A 
ATOM     10  C   UNL     1       2.048   3.621  19.381  0.00  0.00    +0.000 A 
ATOM     11  C   UNL     1       3.337   3.369  19.869  0.00  0.00    +0.000 A 
ATOM     12  C   UNL     1       4.456   3.933  19.245  0.00  0.00    +0.000 A 
BRANCH  10  13
ATOM     13  C   UNL     1       0.847   2.995  20.045  0.00  0.00    +0.000 C 
ATOM     14  F   UNL     1      -0.044   3.909  20.522  0.00  0.00    +0.000 F 
ATOM     15  F   UNL     1       0.143   2.194  19.199  0.00  0.00    +0.000 F 
ATOM     16  F   UNL     1       1.185   2.216  21.109  0.00  0.00    +0.000 F 
ENDBRANCH  10  13
ENDBRANCH   3   7
BRANCH   5  17
ATOM     17  C   UNL     1       7.161   5.116  14.302  0.00  0.00    +0.000 C 
ATOM     18  N   UNL     1       7.398   4.786  13.210  0.00  0.00    +0.000 NA
ENDBRANCH   5  17
BRANCH   1  19
ATOM     19  C   UNL     1       8.337   7.774  18.143  0.00  0.00    +0.000 C 
BRANCH  19  21
ATOM     20  C   UNL     1       8.948  10.200  18.406  0.00  0.00    +0.000 C 
ATOM     21  C   UNL     1       7.996   9.212  17.754  0.00  0.00    +0.000 C 
ENDBRANCH  19  21
ENDBRANCH   1  19
TORSDOF 5
ENDMDL
