MODEL 1
REMARK VINA RESULT:      -6.3      0.000      0.000
REMARK  Name = 
REMARK  13 active torsions:
REMARK  status: ('A' for Active; 'I' for Inactive)
REMARK    1  A    between atoms: C_1  and  C_2
REMARK    2  A    between atoms: C_2  and  C_3
REMARK    3  A    between atoms: C_3  and  C_4
REMARK    4  A    between atoms: C_4  and  C_5
REMARK    5  A    between atoms: C_5  and  C_6
REMARK    6  A    between atoms: C_5  and  N_14
REMARK    7  A    between atoms: N_7  and  N_8
REMARK    8  A    between atoms: N_8  and  N_9
REMARK    9  A    between atoms: C_15  and  O_17
REMARK   10  A    between atoms: O_17  and  C_18
REMARK   11  A    between atoms: C_18  and  C_19
REMARK   12  A    between atoms: C_18  and  C_20
REMARK   13  A    between atoms: C_18  and  C_21
REMARK                            x       y       z     vdW  Elec       q    Type
REMARK                         _______ _______ _______ _____ _____    ______ ____
ROOT
ATOM      1  C   UNL     1       6.301   5.513  18.335  0.00  0.00    +0.000 C 
ENDROOT
BRANCH   1   2
ATOM      2  N   UNL     1       5.985   4.534  17.296  0.00  0.00    +0.000 N 
ATOM      3  C   UNL     1       6.976   4.112  16.442  0.00  0.00    +0.000 C 
ATOM      4  O   UNL     1       8.164   4.225  16.695  0.00  0.00    +0.000 OA
ATOM      5  H   UNL     1       5.072   4.550  16.861  0.00  0.00    +0.000 HD
BRANCH   3   6
ATOM      6  O   UNL     1       6.454   3.551  15.324  0.00  0.00    +0.000 OA
BRANCH   6   7
ATOM      7  C   UNL     1       6.171   4.411  14.181  0.00  0.00    +0.000 C 
ATOM      8  C   UNL     1       5.281   5.592  14.593  0.00  0.00    +0.000 C 
ATOM      9  C   UNL     1       7.523   4.973  13.712  0.00  0.00    +0.000 C 
ATOM     10  C   UNL     1       5.567   3.613  13.014  0.00  0.00    +0.000 C 
ENDBRANCH   6   7
ENDBRANCH   3   6
ENDBRANCH   1   2
BRANCH   1  11
ATOM     11  C   UNL     1       5.142   5.521  19.330  0.00  0.00    +0.000 C 
ATOM     12  N   UNL     1       3.963   5.945  18.981  0.00  0.00    +0.000 NA
BRANCH  12  13
ATOM     13  N   UNL     1       3.071   6.005  19.984  0.00  0.00    +0.000 N 
ATOM     14  H   UNL     1       2.489   6.845  20.041  0.00  0.00    +0.000 HD
BRANCH  13  15
ATOM     15  N   UNL     1       2.350   4.766  20.200  0.00  0.00    +0.000 N 
ATOM     16  C   UNL     1       2.334   4.204  21.350  0.00  0.00    +0.000 C 
ATOM     17  S   UNL     1       1.430   2.728  21.453  0.00  0.00    +0.000 S 
ATOM     18  C   UNL     1       1.030   2.782  19.681  0.00  0.00    +0.000 C 
ATOM     19  C   UNL     1       1.596   4.085  19.112  0.00  0.00    +0.000 C 
ENDBRANCH  13  15
ENDBRANCH  12  13
ENDBRANCH   1  11
BRANCH   1  20
ATOM     20  C   UNL     1       6.476   6.927  17.764  0.00  0.00    +0.000 C 
BRANCH  20  21
ATOM     21  C   UNL     1       7.860   7.501  18.100  0.00  0.00    +0.000 C 
BRANCH  21  23
ATOM     22  C   UNL     1       8.912   9.690  18.729  0.00  0.00    +0.000 C 
ATOM     23  C   UNL     1       7.992   8.980  17.745  0.00  0.00    +0.000 C 
ENDBRANCH  21  23
ENDBRANCH  20  21
ENDBRANCH   1  20
TORSDOF 9
ENDMDL
MODEL 2
REMARK VINA RESULT:      -6.2      2.157      3.070
REMARK  Name = 
REMARK  13 active torsions:
REMARK  status: ('A' for Active; 'I' for Inactive)
REMARK    1  A    between atoms: C_1  and  C_2
REMARK    2  A    between atoms: C_2  and  C_3
REMARK    3  A    between atoms: C_3  and  C_4
REMARK    4  A    between atoms: C_4  and  C_5
REMARK    5  A    between atoms: C_5  and  C_6
REMARK    6  A    between atoms: C_5  and  N_14
REMARK    7  A    between atoms: N_7  and  N_8
REMARK    8  A    between atoms: N_8  and  N_9
REMARK    9  A    between atoms: C_15  and  O_17
REMARK   10  A    between atoms: O_17  and  C_18
REMARK   11  A    between atoms: C_18  and  C_19
REMARK   12  A    between atoms: C_18  and  C_20
REMARK   13  A    between atoms: C_18  and  C_21
REMARK                            x       y       z     vdW  Elec       q    Type
REMARK                         _______ _______ _______ _____ _____    ______ ____
ROOT
ATOM      1  C   UNL     1       5.479   5.865  18.491  0.00  0.00    +0.000 C 
ENDROOT
BRANCH   1   2
ATOM      2  N   UNL     1       6.415   5.325  17.505  0.00  0.00    +0.000 N 
ATOM      3  C   UNL     1       7.127   6.187  16.708  0.00  0.00    +0.000 C 
ATOM      4  O   UNL     1       7.300   7.362  16.987  0.00  0.00    +0.000 OA
ATOM      5  H   UNL     1       6.199   4.451  17.044  0.00  0.00    +0.000 HD
BRANCH   3   6
ATOM      6  O   UNL     1       7.613   5.555  15.611  0.00  0.00    +0.000 OA
BRANCH   6   7
ATOM      7  C   UNL     1       6.666   4.991  14.657  0.00  0.00    +0.000 C 
ATOM      8  C   UNL     1       5.421   5.882  14.531  0.00  0.00    +0.000 C 
ATOM      9  C   UNL     1       7.377   4.972  13.294  0.00  0.00    +0.000 C 
ATOM     10  C   UNL     1       6.304   3.541  15.014  0.00  0.00    +0.000 C 
ENDBRANCH   6   7
ENDBRANCH   3   6
ENDBRANCH   1   2
BRANCH   1  11
ATOM     11  C   UNL     1       5.029   4.709  19.382  0.00  0.00    +0.000 C 
ATOM     12  N   UNL     1       5.384   3.485  19.122  0.00  0.00    +0.000 NA
BRANCH  12  13
ATOM     13  N   UNL     1       4.823   2.559  19.916  0.00  0.00    +0.000 N 
ATOM     14  H   UNL     1       5.241   2.421  20.841  0.00  0.00    +0.000 HD
BRANCH  13  15
ATOM     15  N   UNL     1       3.374   2.592  19.919  0.00  0.00    +0.000 N 
ATOM     16  C   UNL     1       2.706   2.334  18.857  0.00  0.00    +0.000 C 
ATOM     17  S   UNL     1       0.981   2.413  19.016  0.00  0.00    +0.000 S 
ATOM     18  C   UNL     1       1.107   2.935  20.752  0.00  0.00    +0.000 C 
ATOM     19  C   UNL     1       2.588   2.925  21.139  0.00  0.00    +0.000 C 
ENDBRANCH  13  15
ENDBRANCH  12  13
ENDBRANCH   1  11
BRANCH   1  20
ATOM     20  C   UNL     1       4.244   6.496  17.832  0.00  0.00    +0.000 C 
BRANCH  20  21
ATOM     21  C   UNL     1       2.978   6.252  18.665  0.00  0.00    +0.000 C 
BRANCH  21  23
ATOM     22  C   UNL     1       2.032   8.450  17.911  0.00  0.00    +0.000 C 
ATOM     23  C   UNL     1       2.300   7.547  19.108  0.00  0.00    +0.000 C 
ENDBRANCH  21  23
ENDBRANCH  20  21
ENDBRANCH   1  20
TORSDOF 9
ENDMDL
MODEL 3
REMARK VINA RESULT:      -6.2      3.423      5.838
REMARK  Name = 
REMARK  13 active torsions:
REMARK  status: ('A' for Active; 'I' for Inactive)
REMARK    1  A    between atoms: C_1  and  C_2
REMARK    2  A    between atoms: C_2  and  C_3
REMARK    3  A    between atoms: C_3  and  C_4
REMARK    4  A    between atoms: C_4  and  C_5
REMARK    5  A    between atoms: C_5  and  C_6
REMARK    6  A    between atoms: C_5  and  N_14
REMARK    7  A    between atoms: N_7  and  N_8
REMARK    8  A    between atoms: N_8  and  N_9
REMARK    9  A    between atoms: C_15  and  O_17
REMARK   10  A    between atoms: O_17  and  C_18
REMARK   11  A    between atoms: C_18  and  C_19
REMARK   12  A    between atoms: C_18  and  C_20
REMARK   13  A    between atoms: C_18  and  C_21
REMARK                            x       y       z     vdW  Elec       q    Type
REMARK                         _______ _______ _______ _____ _____    ______ ____
ROOT
ATOM      1  C   UNL     1       4.791   4.786  17.542  0.00  0.00    +0.000 C 
ENDROOT
BRANCH   1   2
ATOM      2  N   UNL     1       3.727   4.190  18.349  0.00  0.00    +0.000 N 
ATOM      3  C   UNL     1       4.052   3.294  19.339  0.00  0.00    +0.000 C 
ATOM      4  O   UNL     1       5.168   3.217  19.825  0.00  0.00    +0.000 OA
ATOM      5  H   UNL     1       2.831   3.996  17.922  0.00  0.00    +0.000 HD
BRANCH   3   6
ATOM      6  O   UNL     1       2.979   2.548  19.698  0.00  0.00    +0.000 OA
BRANCH   6   7
ATOM      7  C   UNL     1       1.957   3.158  20.540  0.00  0.00    +0.000 C 
ATOM      8  C   UNL     1       2.290   4.631  20.822  0.00  0.00    +0.000 C 
ATOM      9  C   UNL     1       0.646   3.111  19.741  0.00  0.00    +0.000 C 
ATOM     10  C   UNL     1       1.744   2.358  21.834  0.00  0.00    +0.000 C 
ENDBRANCH   6   7
ENDBRANCH   3   6
ENDBRANCH   1   2
BRANCH   1  11
ATOM     11  C   UNL     1       4.471   6.271  17.381  0.00  0.00    +0.000 C 
ATOM     12  N   UNL     1       3.336   6.760  17.788  0.00  0.00    +0.000 NA
BRANCH  12  13
ATOM     13  N   UNL     1       3.141   8.052  17.480  0.00  0.00    +0.000 N 
ATOM     14  H   UNL     1       3.032   8.285  16.489  0.00  0.00    +0.000 HD
BRANCH  13  15
ATOM     15  N   UNL     1       2.202   8.727  18.354  0.00  0.00    +0.000 N 
ATOM     16  C   UNL     1       1.645   9.825  18.003  0.00  0.00    +0.000 C 
ATOM     17  S   UNL     1       0.546  10.512  19.155  0.00  0.00    +0.000 S 
ATOM     18  C   UNL     1       0.888   9.192  20.356  0.00  0.00    +0.000 C 
ATOM     19  C   UNL     1       1.836   8.189  19.693  0.00  0.00    +0.000 C 
ENDBRANCH  13  15
ENDBRANCH  12  13
ENDBRANCH   1  11
BRANCH   1  20
ATOM     20  C   UNL     1       4.890   4.144  16.150  0.00  0.00    +0.000 C 
BRANCH  20  21
ATOM     21  C   UNL     1       5.500   5.114  15.128  0.00  0.00    +0.000 C 
BRANCH  21  23
ATOM     22  C   UNL     1       6.122   3.697  13.152  0.00  0.00    +0.000 C 
ATOM     23  C   UNL     1       6.651   4.495  14.337  0.00  0.00    +0.000 C 
ENDBRANCH  21  23
ENDBRANCH  20  21
ENDBRANCH   1  20
TORSDOF 9
ENDMDL
MODEL 4
REMARK VINA RESULT:      -6.1      3.856      5.953
REMARK  Name = 
REMARK  13 active torsions:
REMARK  status: ('A' for Active; 'I' for Inactive)
REMARK    1  A    between atoms: C_1  and  C_2
REMARK    2  A    between atoms: C_2  and  C_3
REMARK    3  A    between atoms: C_3  and  C_4
REMARK    4  A    between atoms: C_4  and  C_5
REMARK    5  A    between atoms: C_5  and  C_6
REMARK    6  A    between atoms: C_5  and  N_14
REMARK    7  A    between atoms: N_7  and  N_8
REMARK    8  A    between atoms: N_8  and  N_9
REMARK    9  A    between atoms: C_15  and  O_17
REMARK   10  A    between atoms: O_17  and  C_18
REMARK   11  A    between atoms: C_18  and  C_19
REMARK   12  A    between atoms: C_18  and  C_20
REMARK   13  A    between atoms: C_18  and  C_21
REMARK                            x       y       z     vdW  Elec       q    Type
REMARK                         _______ _______ _______ _____ _____    ______ ____
ROOT
ATOM      1  C   UNL     1       2.564   5.905  19.298  0.00  0.00    +0.000 C 
ENDROOT
BRANCH   1   2
ATOM      2  N   UNL     1       4.020   5.756  19.302  0.00  0.00    +0.000 N 
ATOM      3  C   UNL     1       4.613   4.904  18.403  0.00  0.00    +0.000 C 
ATOM      4  O   UNL     1       4.062   4.525  17.382  0.00  0.00    +0.000 OA
ATOM      5  H   UNL     1       4.522   5.816  20.178  0.00  0.00    +0.000 HD
BRANCH   3   6
ATOM      6  O   UNL     1       5.869   4.574  18.794  0.00  0.00    +0.000 OA
BRANCH   6   7
ATOM      7  C   UNL     1       6.987   5.348  18.269  0.00  0.00    +0.000 C 
ATOM      8  C   UNL     1       7.936   5.772  19.400  0.00  0.00    +0.000 C 
ATOM      9  C   UNL     1       7.760   4.414  17.324  0.00  0.00    +0.000 C 
ATOM     10  C   UNL     1       6.500   6.549  17.444  0.00  0.00    +0.000 C 
ENDBRANCH   6   7
ENDBRANCH   3   6
ENDBRANCH   1   2
BRANCH   1  11
ATOM     11  C   UNL     1       2.253   7.398  19.215  0.00  0.00    +0.000 C 
ATOM     12  N   UNL     1       1.532   7.984  20.125  0.00  0.00    +0.000 NA
BRANCH  12  13
ATOM     13  N   UNL     1       1.240   9.269  19.866  0.00  0.00    +0.000 N 
ATOM     14  H   UNL     1       0.964   9.501  18.908  0.00  0.00    +0.000 HD
BRANCH  13  15
ATOM     15  N   UNL     1       0.429   9.902  20.888  0.00  0.00    +0.000 N 
ATOM     16  C   UNL     1       0.263   9.353  22.032  0.00  0.00    +0.000 C 
ATOM     17  S   UNL     1      -0.733  10.229  23.149  0.00  0.00    +0.000 S 
ATOM     18  C   UNL     1      -1.068  11.527  21.922  0.00  0.00    +0.000 C 
ATOM     19  C   UNL     1      -0.250  11.208  20.667  0.00  0.00    +0.000 C 
ENDBRANCH  13  15
ENDBRANCH  12  13
ENDBRANCH   1  11
BRANCH   1  20
ATOM     20  C   UNL     1       1.922   5.333  20.570  0.00  0.00    +0.000 C 
BRANCH  20  21
ATOM     21  C   UNL     1       0.952   4.189  20.242  0.00  0.00    +0.000 C 
BRANCH  21  23
ATOM     22  C   UNL     1       2.650   2.805  21.466  0.00  0.00    +0.000 C 
ATOM     23  C   UNL     1       1.176   2.953  21.110  0.00  0.00    +0.000 C 
ENDBRANCH  21  23
ENDBRANCH  20  21
ENDBRANCH   1  20
TORSDOF 9
ENDMDL
MODEL 5
REMARK VINA RESULT:      -6.1      3.722      6.010
REMARK  Name = 
REMARK  13 active torsions:
REMARK  status: ('A' for Active; 'I' for Inactive)
REMARK    1  A    between atoms: C_1  and  C_2
REMARK    2  A    between atoms: C_2  and  C_3
REMARK    3  A    between atoms: C_3  and  C_4
REMARK    4  A    between atoms: C_4  and  C_5
REMARK    5  A    between atoms: C_5  and  C_6
REMARK    6  A    between atoms: C_5  and  N_14
REMARK    7  A    between atoms: N_7  and  N_8
REMARK    8  A    between atoms: N_8  and  N_9
REMARK    9  A    between atoms: C_15  and  O_17
REMARK   10  A    between atoms: O_17  and  C_18
REMARK   11  A    between atoms: C_18  and  C_19
REMARK   12  A    between atoms: C_18  and  C_20
REMARK   13  A    between atoms: C_18  and  C_21
REMARK                            x       y       z     vdW  Elec       q    Type
REMARK                         _______ _______ _______ _____ _____    ______ ____
ROOT
ATOM      1  C   UNL     1       2.387   5.254  19.939  0.00  0.00    +0.000 C 
ENDROOT
BRANCH   1   2
ATOM      2  N   UNL     1       3.816   5.537  19.809  0.00  0.00    +0.000 N 
ATOM      3  C   UNL     1       4.523   4.977  18.773  0.00  0.00    +0.000 C 
ATOM      4  O   UNL     1       3.993   4.544  17.763  0.00  0.00    +0.000 OA
ATOM      5  H   UNL     1       4.373   5.664  20.643  0.00  0.00    +0.000 HD
BRANCH   3   6
ATOM      6  O   UNL     1       5.856   4.995  19.022  0.00  0.00    +0.000 OA
BRANCH   6   7
ATOM      7  C   UNL     1       6.727   5.705  18.093  0.00  0.00    +0.000 C 
ATOM      8  C   UNL     1       7.912   6.342  18.835  0.00  0.00    +0.000 C 
ATOM      9  C   UNL     1       7.284   4.650  17.123  0.00  0.00    +0.000 C 
ATOM     10  C   UNL     1       5.944   6.735  17.264  0.00  0.00    +0.000 C 
ENDBRANCH   6   7
ENDBRANCH   3   6
ENDBRANCH   1   2
BRANCH   1  11
ATOM     11  C   UNL     1       1.761   6.394  20.740  0.00  0.00    +0.000 C 
ATOM     12  N   UNL     1       1.969   7.636  20.413  0.00  0.00    +0.000 NA
BRANCH  12  13
ATOM     13  N   UNL     1       1.456   8.533  21.270  0.00  0.00    +0.000 N 
ATOM     14  H   UNL     1       2.055   8.839  22.041  0.00  0.00    +0.000 HD
BRANCH  13  15
ATOM     15  N   UNL     1       0.727   9.608  20.624  0.00  0.00    +0.000 N 
ATOM     16  C   UNL     1       0.032  10.438  21.308  0.00  0.00    +0.000 C 
ATOM     17  S   UNL     1      -0.784  11.666  20.395  0.00  0.00    +0.000 S 
ATOM     18  C   UNL     1      -0.188  10.975  18.823  0.00  0.00    +0.000 C 
ATOM     19  C   UNL     1       0.742   9.804  19.148  0.00  0.00    +0.000 C 
ENDBRANCH  13  15
ENDBRANCH  12  13
ENDBRANCH   1  11
BRANCH   1  20
ATOM     20  C   UNL     1       2.124   3.929  20.670  0.00  0.00    +0.000 C 
BRANCH  20  21
ATOM     21  C   UNL     1       0.823   3.271  20.188  0.00  0.00    +0.000 C 
BRANCH  21  23
ATOM     22  C   UNL     1       2.262   1.786  18.767  0.00  0.00    +0.000 C 
ATOM     23  C   UNL     1       0.971   2.591  18.828  0.00  0.00    +0.000 C 
ENDBRANCH  21  23
ENDBRANCH  20  21
ENDBRANCH   1  20
TORSDOF 9
ENDMDL
MODEL 6
REMARK VINA RESULT:      -6.1      3.512      6.839
REMARK  Name = 
REMARK  13 active torsions:
REMARK  status: ('A' for Active; 'I' for Inactive)
REMARK    1  A    between atoms: C_1  and  C_2
REMARK    2  A    between atoms: C_2  and  C_3
REMARK    3  A    between atoms: C_3  and  C_4
REMARK    4  A    between atoms: C_4  and  C_5
REMARK    5  A    between atoms: C_5  and  C_6
REMARK    6  A    between atoms: C_5  and  N_14
REMARK    7  A    between atoms: N_7  and  N_8
REMARK    8  A    between atoms: N_8  and  N_9
REMARK    9  A    between atoms: C_15  and  O_17
REMARK   10  A    between atoms: O_17  and  C_18
REMARK   11  A    between atoms: C_18  and  C_19
REMARK   12  A    between atoms: C_18  and  C_20
REMARK   13  A    between atoms: C_18  and  C_21
REMARK                            x       y       z     vdW  Elec       q    Type
REMARK                         _______ _______ _______ _____ _____    ______ ____
ROOT
ATOM      1  C   UNL     1       4.447   5.386  17.478  0.00  0.00    +0.000 C 
ENDROOT
BRANCH   1   2
ATOM      2  N   UNL     1       4.275   4.402  18.547  0.00  0.00    +0.000 N 
ATOM      3  C   UNL     1       3.237   3.504  18.476  0.00  0.00    +0.000 C 
ATOM      4  O   UNL     1       2.658   3.237  17.436  0.00  0.00    +0.000 OA
ATOM      5  H   UNL     1       4.512   4.655  19.497  0.00  0.00    +0.000 HD
BRANCH   3   6
ATOM      6  O   UNL     1       2.975   2.960  19.689  0.00  0.00    +0.000 OA
BRANCH   6   7
ATOM      7  C   UNL     1       1.801   3.423  20.420  0.00  0.00    +0.000 C 
ATOM      8  C   UNL     1       0.510   2.960  19.730  0.00  0.00    +0.000 C 
ATOM      9  C   UNL     1       1.862   2.763  21.808  0.00  0.00    +0.000 C 
ATOM     10  C   UNL     1       1.832   4.945  20.625  0.00  0.00    +0.000 C 
ENDBRANCH   6   7
ENDBRANCH   3   6
ENDBRANCH   1   2
BRANCH   1  11
ATOM     11  C   UNL     1       5.759   5.067  16.764  0.00  0.00    +0.000 C 
ATOM     12  N   UNL     1       6.283   5.905  15.919  0.00  0.00    +0.000 NA
BRANCH  12  13
ATOM     13  N   UNL     1       7.372   5.448  15.279  0.00  0.00    +0.000 N 
ATOM     14  H   UNL     1       8.064   4.943  15.838  0.00  0.00    +0.000 HD
BRANCH  13  15
ATOM     15  N   UNL     1       7.082   4.834  13.998  0.00  0.00    +0.000 N 
ATOM     16  C   UNL     1       6.187   3.926  13.889  0.00  0.00    +0.000 C 
ATOM     17  S   UNL     1       5.954   3.287  12.293  0.00  0.00    +0.000 S 
ATOM     18  C   UNL     1       7.290   4.321  11.622  0.00  0.00    +0.000 C 
ATOM     19  C   UNL     1       7.800   5.219  12.752  0.00  0.00    +0.000 C 
ENDBRANCH  13  15
ENDBRANCH  12  13
ENDBRANCH   1  11
BRANCH   1  20
ATOM     20  C   UNL     1       4.511   6.821  18.020  0.00  0.00    +0.000 C 
BRANCH  20  21
ATOM     21  C   UNL     1       3.421   7.705  17.397  0.00  0.00    +0.000 C 
BRANCH  21  23
ATOM     22  C   UNL     1       1.506   9.208  18.003  0.00  0.00    +0.000 C 
ATOM     23  C   UNL     1       2.216   7.897  18.315  0.00  0.00    +0.000 C 
ENDBRANCH  21  23
ENDBRANCH  20  21
ENDBRANCH   1  20
TORSDOF 9
ENDMDL
MODEL 7
REMARK VINA RESULT:      -6.1      1.530      4.612
REMARK  Name = 
REMARK  13 active torsions:
REMARK  status: ('A' for Active; 'I' for Inactive)
REMARK    1  A    between atoms: C_1  and  C_2
REMARK    2  A    between atoms: C_2  and  C_3
REMARK    3  A    between atoms: C_3  and  C_4
REMARK    4  A    between atoms: C_4  and  C_5
REMARK    5  A    between atoms: C_5  and  C_6
REMARK    6  A    between atoms: C_5  and  N_14
REMARK    7  A    between atoms: N_7  and  N_8
REMARK    8  A    between atoms: N_8  and  N_9
REMARK    9  A    between atoms: C_15  and  O_17
REMARK   10  A    between atoms: O_17  and  C_18
REMARK   11  A    between atoms: C_18  and  C_19
REMARK   12  A    between atoms: C_18  and  C_20
REMARK   13  A    between atoms: C_18  and  C_21
REMARK                            x       y       z     vdW  Elec       q    Type
REMARK                         _______ _______ _______ _____ _____    ______ ____
ROOT
ATOM      1  C   UNL     1       5.315   4.369  15.289  0.00  0.00    +0.000 C 
ENDROOT
BRANCH   1   2
ATOM      2  N   UNL     1       6.154   5.566  15.356  0.00  0.00    +0.000 N 
ATOM      3  C   UNL     1       7.349   5.515  16.032  0.00  0.00    +0.000 C 
ATOM      4  O   UNL     1       7.925   4.471  16.286  0.00  0.00    +0.000 OA
ATOM      5  H   UNL     1       5.716   6.476  15.398  0.00  0.00    +0.000 HD
BRANCH   3   6
ATOM      6  O   UNL     1       7.788   6.759  16.346  0.00  0.00    +0.000 OA
BRANCH   6   7
ATOM      7  C   UNL     1       7.379   7.341  17.619  0.00  0.00    +0.000 C 
ATOM      8  C   UNL     1       5.854   7.515  17.674  0.00  0.00    +0.000 C 
ATOM      9  C   UNL     1       7.783   6.336  18.709  0.00  0.00    +0.000 C 
ATOM     10  C   UNL     1       8.120   8.657  17.898  0.00  0.00    +0.000 C 
ENDBRANCH   6   7
ENDBRANCH   3   6
ENDBRANCH   1   2
BRANCH   1  11
ATOM     11  C   UNL     1       5.215   3.797  16.701  0.00  0.00    +0.000 C 
ATOM     12  N   UNL     1       4.563   4.426  17.635  0.00  0.00    +0.000 NA
BRANCH  12  13
ATOM     13  N   UNL     1       4.654   3.869  18.853  0.00  0.00    +0.000 N 
ATOM     14  H   UNL     1       5.468   4.118  19.421  0.00  0.00    +0.000 HD
BRANCH  13  15
ATOM     15  N   UNL     1       3.402   3.854  19.584  0.00  0.00    +0.000 N 
ATOM     16  C   UNL     1       2.832   2.751  19.894  0.00  0.00    +0.000 C 
ATOM     17  S   UNL     1       1.341   2.894  20.767  0.00  0.00    +0.000 S 
ATOM     18  C   UNL     1       1.399   4.709  20.684  0.00  0.00    +0.000 C 
ATOM     19  C   UNL     1       2.715   5.105  20.010  0.00  0.00    +0.000 C 
ENDBRANCH  13  15
ENDBRANCH  12  13
ENDBRANCH   1  11
BRANCH   1  20
ATOM     20  C   UNL     1       5.906   3.300  14.359  0.00  0.00    +0.000 C 
BRANCH  20  21
ATOM     21  C   UNL     1       6.229   3.878  12.974  0.00  0.00    +0.000 C 
BRANCH  21  23
ATOM     22  C   UNL     1       4.309   3.221  11.498  0.00  0.00    +0.000 C 
ATOM     23  C   UNL     1       5.774   2.972  11.831  0.00  0.00    +0.000 C 
ENDBRANCH  21  23
ENDBRANCH  20  21
ENDBRANCH   1  20
TORSDOF 9
ENDMDL
MODEL 8
REMARK VINA RESULT:      -6.0      3.893      5.793
REMARK  Name = 
REMARK  13 active torsions:
REMARK  status: ('A' for Active; 'I' for Inactive)
REMARK    1  A    between atoms: C_1  and  C_2
REMARK    2  A    between atoms: C_2  and  C_3
REMARK    3  A    between atoms: C_3  and  C_4
REMARK    4  A    between atoms: C_4  and  C_5
REMARK    5  A    between atoms: C_5  and  C_6
REMARK    6  A    between atoms: C_5  and  N_14
REMARK    7  A    between atoms: N_7  and  N_8
REMARK    8  A    between atoms: N_8  and  N_9
REMARK    9  A    between atoms: C_15  and  O_17
REMARK   10  A    between atoms: O_17  and  C_18
REMARK   11  A    between atoms: C_18  and  C_19
REMARK   12  A    between atoms: C_18  and  C_20
REMARK   13  A    between atoms: C_18  and  C_21
REMARK                            x       y       z     vdW  Elec       q    Type
REMARK                         _______ _______ _______ _____ _____    ______ ____
ROOT
ATOM      1  C   UNL     1       2.471   5.902  19.385  0.00  0.00    +0.000 C 
ENDROOT
BRANCH   1   2
ATOM      2  N   UNL     1       3.822   5.573  18.934  0.00  0.00    +0.000 N 
ATOM      3  C   UNL     1       3.991   4.681  17.902  0.00  0.00    +0.000 C 
ATOM      4  O   UNL     1       3.105   4.406  17.110  0.00  0.00    +0.000 OA
ATOM      5  H   UNL     1       4.576   5.542  19.608  0.00  0.00    +0.000 HD
BRANCH   3   6
ATOM      6  O   UNL     1       5.252   4.185  17.883  0.00  0.00    +0.000 OA
BRANCH   6   7
ATOM      7  C   UNL     1       6.185   4.694  16.885  0.00  0.00    +0.000 C 
ATOM      8  C   UNL     1       5.934   6.185  16.613  0.00  0.00    +0.000 C 
ATOM      9  C   UNL     1       7.592   4.550  17.488  0.00  0.00    +0.000 C 
ATOM     10  C   UNL     1       6.142   3.858  15.597  0.00  0.00    +0.000 C 
ENDBRANCH   6   7
ENDBRANCH   3   6
ENDBRANCH   1   2
BRANCH   1  11
ATOM     11  C   UNL     1       2.314   7.419  19.306  0.00  0.00    +0.000 C 
ATOM     12  N   UNL     1       2.087   8.011  18.169  0.00  0.00    +0.000 NA
BRANCH  12  13
ATOM     13  N   UNL     1       2.088   9.352  18.228  0.00  0.00    +0.000 N 
ATOM     14  H   UNL     1       2.562   9.853  17.471  0.00  0.00    +0.000 HD
BRANCH  13  15
ATOM     15  N   UNL     1       0.809   9.922  18.605  0.00  0.00    +0.000 N 
ATOM     16  C   UNL     1      -0.223   9.778  17.861  0.00  0.00    +0.000 C 
ATOM     17  S   UNL     1      -1.680  10.515  18.445  0.00  0.00    +0.000 S 
ATOM     18  C   UNL     1      -0.821  11.201  19.893  0.00  0.00    +0.000 C 
ATOM     19  C   UNL     1       0.624  10.697  19.862  0.00  0.00    +0.000 C 
ENDBRANCH  13  15
ENDBRANCH  12  13
ENDBRANCH   1  11
BRANCH   1  20
ATOM     20  C   UNL     1       2.218   5.450  20.831  0.00  0.00    +0.000 C 
BRANCH  20  21
ATOM     21  C   UNL     1       1.920   3.946  20.905  0.00  0.00    +0.000 C 
BRANCH  21  23
ATOM     22  C   UNL     1       1.263   2.255  19.172  0.00  0.00    +0.000 C 
ATOM     23  C   UNL     1       0.834   3.507  19.925  0.00  0.00    +0.000 C 
ENDBRANCH  21  23
ENDBRANCH  20  21
ENDBRANCH   1  20
TORSDOF 9
ENDMDL
MODEL 9
REMARK VINA RESULT:      -6.0      3.563      5.728
REMARK  Name = 
REMARK  13 active torsions:
REMARK  status: ('A' for Active; 'I' for Inactive)
REMARK    1  A    between atoms: C_1  and  C_2
REMARK    2  A    between atoms: C_2  and  C_3
REMARK    3  A    between atoms: C_3  and  C_4
REMARK    4  A    between atoms: C_4  and  C_5
REMARK    5  A    between atoms: C_5  and  C_6
REMARK    6  A    between atoms: C_5  and  N_14
REMARK    7  A    between atoms: N_7  and  N_8
REMARK    8  A    between atoms: N_8  and  N_9
REMARK    9  A    between atoms: C_15  and  O_17
REMARK   10  A    between atoms: O_17  and  C_18
REMARK   11  A    between atoms: C_18  and  C_19
REMARK   12  A    between atoms: C_18  and  C_20
REMARK   13  A    between atoms: C_18  and  C_21
REMARK                            x       y       z     vdW  Elec       q    Type
REMARK                         _______ _______ _______ _____ _____    ______ ____
ROOT
ATOM      1  C   UNL     1       2.319   5.524  18.423  0.00  0.00    +0.000 C 
ENDROOT
BRANCH   1   2
ATOM      2  N   UNL     1       3.738   5.234  18.218  0.00  0.00    +0.000 N 
ATOM      3  C   UNL     1       4.516   6.127  17.520  0.00  0.00    +0.000 C 
ATOM      4  O   UNL     1       4.202   7.294  17.356  0.00  0.00    +0.000 OA
ATOM      5  H   UNL     1       4.036   4.275  18.098  0.00  0.00    +0.000 HD
BRANCH   3   6
ATOM      6  O   UNL     1       5.655   5.543  17.075  0.00  0.00    +0.000 OA
BRANCH   6   7
ATOM      7  C   UNL     1       6.865   5.675  17.878  0.00  0.00    +0.000 C 
ATOM      8  C   UNL     1       6.555   5.474  19.369  0.00  0.00    +0.000 C 
ATOM      9  C   UNL     1       7.811   4.548  17.432  0.00  0.00    +0.000 C 
ATOM     10  C   UNL     1       7.573   7.012  17.611  0.00  0.00    +0.000 C 
ENDBRANCH   6   7
ENDBRANCH   3   6
ENDBRANCH   1   2
BRANCH   1  11
ATOM     11  C   UNL     1       2.171   6.152  19.807  0.00  0.00    +0.000 C 
ATOM     12  N   UNL     1       1.748   7.374  19.947  0.00  0.00    +0.000 NA
BRANCH  12  13
ATOM     13  N   UNL     1       1.778   7.835  21.208  0.00  0.00    +0.000 N 
ATOM     14  H   UNL     1       2.696   7.934  21.648  0.00  0.00    +0.000 HD
BRANCH  13  15
ATOM     15  N   UNL     1       0.884   8.953  21.442  0.00  0.00    +0.000 N 
ATOM     16  C   UNL     1       0.471   9.231  22.622  0.00  0.00    +0.000 C 
ATOM     17  S   UNL     1      -0.593  10.594  22.744  0.00  0.00    +0.000 S 
ATOM     18  C   UNL     1      -0.574  10.844  20.944  0.00  0.00    +0.000 C 
ATOM     19  C   UNL     1       0.400   9.828  20.340  0.00  0.00    +0.000 C 
ENDBRANCH  13  15
ENDBRANCH  12  13
ENDBRANCH   1  11
BRANCH   1  20
ATOM     20  C   UNL     1       1.455   4.256  18.356  0.00  0.00    +0.000 C 
BRANCH  20  21
ATOM     21  C   UNL     1       1.069   3.766  19.759  0.00  0.00    +0.000 C 
BRANCH  21  23
ATOM     22  C   UNL     1       2.507   1.856  18.998  0.00  0.00    +0.000 C 
ATOM     23  C   UNL     1       1.865   2.539  20.198  0.00  0.00    +0.000 C 
ENDBRANCH  21  23
ENDBRANCH  20  21
ENDBRANCH   1  20
TORSDOF 9
ENDMDL
