MODEL 1
REMARK VINA RESULT:      -8.3      0.000      0.000
REMARK  Name = 
REMARK  2 active torsions:
REMARK  status: ('A' for Active; 'I' for Inactive)
REMARK    1  A    between atoms: N_14  and  C_15
REMARK    2  A    between atoms: C_20  and  O_21
REMARK                            x       y       z     vdW  Elec       q    Type
REMARK                         _______ _______ _______ _____ _____    ______ ____
ROOT
ATOM      1  O   UNL     1       6.085   5.474  19.658  0.00  0.00    +0.000 OA
ATOM      2  C   UNL     1       5.816   4.863  18.643  0.00  0.00    +0.000 A 
ATOM      3  C   UNL     1       6.402   5.061  17.318  0.00  0.00    +0.000 A 
ATOM      4  C   UNL     1       7.349   5.864  16.834  0.00  0.00    +0.000 A 
ATOM      5  N   UNL     1       7.715   5.857  15.508  0.00  0.00    +0.000 N 
ATOM      6  C   UNL     1       7.045   5.044  14.571  0.00  0.00    +0.000 A 
ATOM      7  C   UNL     1       7.398   5.073  13.220  0.00  0.00    +0.000 A 
ATOM      8  C   UNL     1       6.736   4.249  12.305  0.00  0.00    +0.000 A 
ATOM      9  C   UNL     1       5.725   3.381  12.732  0.00  0.00    +0.000 A 
ATOM     10  C   UNL     1       5.371   3.324  14.080  0.00  0.00    +0.000 A 
ATOM     11  C   UNL     1       6.035   4.148  14.991  0.00  0.00    +0.000 A 
ATOM     12  C   UNL     1       5.700   4.144  16.421  0.00  0.00    +0.000 A 
ATOM     13  N   UNL     1       4.811   3.432  17.060  0.00  0.00    +0.000 NA
ATOM     14  N   UNL     1       4.888   3.841  18.407  0.00  0.00    +0.000 N 
ATOM     15  H   UNL     1       8.353   6.570  15.175  0.00  0.00    +0.000 HD
ENDROOT
BRANCH  14  16
ATOM     16  C   UNL     1       3.923   3.387  19.410  0.00  0.00    +0.000 C 
ATOM     17  C   UNL     1       3.205   2.090  19.009  0.00  0.00    +0.000 C 
ATOM     18  C   UNL     1       2.149   2.289  17.926  0.00  0.00    +0.000 C 
ATOM     19  C   UNL     1       1.179   3.428  18.234  0.00  0.00    +0.000 C 
ATOM     20  C   UNL     1       1.857   4.719  18.700  0.00  0.00    +0.000 C 
ATOM     21  C   UNL     1       2.914   4.493  19.783  0.00  0.00    +0.000 C 
BRANCH  21  22
ATOM     22  O   UNL     1       2.261   4.178  21.022  0.00  0.00    +0.000 OA
ATOM     23  H   UNL     1       2.248   4.974  21.579  0.00  0.00    +0.000 HD
ENDBRANCH  21  22
ENDBRANCH  14  16
TORSDOF 2
ENDMDL
MODEL 2
REMARK VINA RESULT:      -7.9      4.114      6.754
REMARK  Name = 
REMARK  2 active torsions:
REMARK  status: ('A' for Active; 'I' for Inactive)
REMARK    1  A    between atoms: N_14  and  C_15
REMARK    2  A    between atoms: C_20  and  O_21
REMARK                            x       y       z     vdW  Elec       q    Type
REMARK                         _______ _______ _______ _____ _____    ______ ____
ROOT
ATOM      1  O   UNL     1       3.829   5.918  17.440  0.00  0.00    +0.000 OA
ATOM      2  C   UNL     1       3.119   6.254  18.367  0.00  0.00    +0.000 A 
ATOM      3  C   UNL     1       2.467   7.551  18.548  0.00  0.00    +0.000 A 
ATOM      4  C   UNL     1       2.409   8.668  17.825  0.00  0.00    +0.000 A 
ATOM      5  N   UNL     1       1.715   9.781  18.239  0.00  0.00    +0.000 N 
ATOM      6  C   UNL     1       1.087   9.820  19.501  0.00  0.00    +0.000 A 
ATOM      7  C   UNL     1       0.418  10.968  19.930  0.00  0.00    +0.000 A 
ATOM      8  C   UNL     1      -0.215  10.986  21.177  0.00  0.00    +0.000 A 
ATOM      9  C   UNL     1      -0.195   9.855  22.000  0.00  0.00    +0.000 A 
ATOM     10  C   UNL     1       0.453   8.692  21.582  0.00  0.00    +0.000 A 
ATOM     11  C   UNL     1       1.083   8.678  20.336  0.00  0.00    +0.000 A 
ATOM     12  C   UNL     1       1.792   7.489  19.843  0.00  0.00    +0.000 A 
ATOM     13  N   UNL     1       1.947   6.325  20.414  0.00  0.00    +0.000 NA
ATOM     14  N   UNL     1       2.728   5.562  19.521  0.00  0.00    +0.000 N 
ATOM     15  H   UNL     1       1.806  10.638  17.706  0.00  0.00    +0.000 HD
ENDROOT
BRANCH  14  16
ATOM     16  C   UNL     1       3.258   4.247  19.885  0.00  0.00    +0.000 C 
ATOM     17  C   UNL     1       3.449   3.321  18.675  0.00  0.00    +0.000 C 
ATOM     18  C   UNL     1       2.141   2.761  18.125  0.00  0.00    +0.000 C 
ATOM     19  C   UNL     1       1.250   2.146  19.203  0.00  0.00    +0.000 C 
ATOM     20  C   UNL     1       1.089   3.015  20.453  0.00  0.00    +0.000 C 
ATOM     21  C   UNL     1       2.414   3.568  20.983  0.00  0.00    +0.000 C 
BRANCH  21  22
ATOM     22  O   UNL     1       3.156   2.505  21.600  0.00  0.00    +0.000 OA
ATOM     23  H   UNL     1       2.579   2.047  22.233  0.00  0.00    +0.000 HD
ENDBRANCH  21  22
ENDBRANCH  14  16
TORSDOF 2
ENDMDL
MODEL 3
REMARK VINA RESULT:      -7.9      4.744      7.646
REMARK  Name = 
REMARK  2 active torsions:
REMARK  status: ('A' for Active; 'I' for Inactive)
REMARK    1  A    between atoms: N_14  and  C_15
REMARK    2  A    between atoms: C_20  and  O_21
REMARK                            x       y       z     vdW  Elec       q    Type
REMARK                         _______ _______ _______ _____ _____    ______ ____
ROOT
ATOM      1  O   UNL     1       3.186   7.183  17.652  0.00  0.00    +0.000 OA
ATOM      2  C   UNL     1       2.543   7.313  18.674  0.00  0.00    +0.000 A 
ATOM      3  C   UNL     1       1.849   8.518  19.127  0.00  0.00    +0.000 A 
ATOM      4  C   UNL     1       1.676   9.735  18.614  0.00  0.00    +0.000 A 
ATOM      5  N   UNL     1       0.967  10.717  19.267  0.00  0.00    +0.000 N 
ATOM      6  C   UNL     1       0.449  10.504  20.561  0.00  0.00    +0.000 A 
ATOM      7  C   UNL     1      -0.234  11.520  21.233  0.00  0.00    +0.000 A 
ATOM      8  C   UNL     1      -0.757  11.289  22.508  0.00  0.00    +0.000 A 
ATOM      9  C   UNL     1      -0.612  10.039  23.120  0.00  0.00    +0.000 A 
ATOM     10  C   UNL     1       0.052   9.005  22.458  0.00  0.00    +0.000 A 
ATOM     11  C   UNL     1       0.571   9.240  21.183  0.00  0.00    +0.000 A 
ATOM     12  C   UNL     1       1.291   8.198  20.440  0.00  0.00    +0.000 A 
ATOM     13  N   UNL     1       1.550   6.965  20.786  0.00  0.00    +0.000 NA
ATOM     14  N   UNL     1       2.287   6.414  19.717  0.00  0.00    +0.000 N 
ATOM     15  H   UNL     1       0.971  11.656  18.886  0.00  0.00    +0.000 HD
ENDROOT
BRANCH  14  16
ATOM     16  C   UNL     1       2.908   5.091  19.807  0.00  0.00    +0.000 C 
ATOM     17  C   UNL     1       3.035   4.394  18.444  0.00  0.00    +0.000 C 
ATOM     18  C   UNL     1       1.711   3.855  17.912  0.00  0.00    +0.000 C 
ATOM     19  C   UNL     1       0.949   3.015  18.936  0.00  0.00    +0.000 C 
ATOM     20  C   UNL     1       0.858   3.650  20.325  0.00  0.00    +0.000 C 
ATOM     21  C   UNL     1       2.198   4.187  20.835  0.00  0.00    +0.000 C 
BRANCH  21  22
ATOM     22  O   UNL     1       3.041   3.084  21.199  0.00  0.00    +0.000 OA
ATOM     23  H   UNL     1       2.834   2.820  22.110  0.00  0.00    +0.000 HD
ENDBRANCH  21  22
ENDBRANCH  14  16
TORSDOF 2
ENDMDL
MODEL 4
REMARK VINA RESULT:      -7.7      3.596      6.275
REMARK  Name = 
REMARK  2 active torsions:
REMARK  status: ('A' for Active; 'I' for Inactive)
REMARK    1  A    between atoms: N_14  and  C_15
REMARK    2  A    between atoms: C_20  and  O_21
REMARK                            x       y       z     vdW  Elec       q    Type
REMARK                         _______ _______ _______ _____ _____    ______ ____
ROOT
ATOM      1  O   UNL     1       4.469   6.032  16.572  0.00  0.00    +0.000 OA
ATOM      2  C   UNL     1       3.782   6.138  17.568  0.00  0.00    +0.000 A 
ATOM      3  C   UNL     1       3.011   7.311  17.981  0.00  0.00    +0.000 A 
ATOM      4  C   UNL     1       2.797   8.514  17.450  0.00  0.00    +0.000 A 
ATOM      5  N   UNL     1       2.015   9.464  18.065  0.00  0.00    +0.000 N 
ATOM      6  C   UNL     1       1.459   9.236  19.340  0.00  0.00    +0.000 A 
ATOM      7  C   UNL     1       0.700  10.222  19.975  0.00  0.00    +0.000 A 
ATOM      8  C   UNL     1       0.140   9.975  21.232  0.00  0.00    +0.000 A 
ATOM      9  C   UNL     1       0.324   8.739  21.861  0.00  0.00    +0.000 A 
ATOM     10  C   UNL     1       1.064   7.735  21.236  0.00  0.00    +0.000 A 
ATOM     11  C   UNL     1       1.620   7.985  19.980  0.00  0.00    +0.000 A 
ATOM     12  C   UNL     1       2.419   6.974  19.275  0.00  0.00    +0.000 A 
ATOM     13  N   UNL     1       2.726   5.759  19.644  0.00  0.00    +0.000 NA
ATOM     14  N   UNL     1       3.530   5.236  18.610  0.00  0.00    +0.000 N 
ATOM     15  H   UNL     1       1.987  10.399  17.674  0.00  0.00    +0.000 HD
ENDROOT
BRANCH  14  16
ATOM     16  C   UNL     1       4.213   3.948  18.736  0.00  0.00    +0.000 C 
ATOM     17  C   UNL     1       3.978   3.023  17.533  0.00  0.00    +0.000 C 
ATOM     18  C   UNL     1       2.584   2.403  17.506  0.00  0.00    +0.000 C 
ATOM     19  C   UNL     1       2.187   1.758  18.832  0.00  0.00    +0.000 C 
ATOM     20  C   UNL     1       2.467   2.627  20.061  0.00  0.00    +0.000 C 
ATOM     21  C   UNL     1       3.870   3.240  20.063  0.00  0.00    +0.000 C 
BRANCH  21  22
ATOM     22  O   UNL     1       4.833   2.214  20.347  0.00  0.00    +0.000 OA
ATOM     23  H   UNL     1       4.468   1.622  21.025  0.00  0.00    +0.000 HD
ENDBRANCH  21  22
ENDBRANCH  14  16
TORSDOF 2
ENDMDL
MODEL 5
REMARK VINA RESULT:      -7.5      1.087      1.680
REMARK  Name = 
REMARK  2 active torsions:
REMARK  status: ('A' for Active; 'I' for Inactive)
REMARK    1  A    between atoms: N_14  and  C_15
REMARK    2  A    between atoms: C_20  and  O_21
REMARK                            x       y       z     vdW  Elec       q    Type
REMARK                         _______ _______ _______ _____ _____    ______ ____
ROOT
ATOM      1  O   UNL     1       5.201   5.974  19.004  0.00  0.00    +0.000 OA
ATOM      2  C   UNL     1       5.030   5.352  17.975  0.00  0.00    +0.000 A 
ATOM      3  C   UNL     1       5.904   5.340  16.801  0.00  0.00    +0.000 A 
ATOM      4  C   UNL     1       7.069   5.915  16.508  0.00  0.00    +0.000 A 
ATOM      5  N   UNL     1       7.692   5.743  15.293  0.00  0.00    +0.000 N 
ATOM      6  C   UNL     1       7.081   5.004  14.259  0.00  0.00    +0.000 A 
ATOM      7  C   UNL     1       7.702   4.869  13.016  0.00  0.00    +0.000 A 
ATOM      8  C   UNL     1       7.093   4.119  12.006  0.00  0.00    +0.000 A 
ATOM      9  C   UNL     1       5.864   3.489  12.231  0.00  0.00    +0.000 A 
ATOM     10  C   UNL     1       5.236   3.597  13.473  0.00  0.00    +0.000 A 
ATOM     11  C   UNL     1       5.849   4.346  14.479  0.00  0.00    +0.000 A 
ATOM     12  C   UNL     1       5.233   4.509  15.803  0.00  0.00    +0.000 A 
ATOM     13  N   UNL     1       4.108   4.023  16.257  0.00  0.00    +0.000 NA
ATOM     14  N   UNL     1       3.987   4.507  17.576  0.00  0.00    +0.000 N 
ATOM     15  H   UNL     1       8.513   6.299  15.084  0.00  0.00    +0.000 HD
ENDROOT
BRANCH  14  16
ATOM     16  C   UNL     1       2.766   4.316  18.361  0.00  0.00    +0.000 C 
ATOM     17  C   UNL     1       3.043   4.072  19.851  0.00  0.00    +0.000 C 
ATOM     18  C   UNL     1       3.582   2.677  20.149  0.00  0.00    +0.000 C 
ATOM     19  C   UNL     1       2.752   1.563  19.514  0.00  0.00    +0.000 C 
ATOM     20  C   UNL     1       2.401   1.803  18.044  0.00  0.00    +0.000 C 
ATOM     21  C   UNL     1       1.866   3.211  17.770  0.00  0.00    +0.000 C 
BRANCH  21  22
ATOM     22  O   UNL     1       0.533   3.319  18.290  0.00  0.00    +0.000 OA
ATOM     23  H   UNL     1       0.224   2.434  18.544  0.00  0.00    +0.000 HD
ENDBRANCH  21  22
ENDBRANCH  14  16
TORSDOF 2
ENDMDL
MODEL 6
REMARK VINA RESULT:      -7.4      1.872      2.519
REMARK  Name = 
REMARK  2 active torsions:
REMARK  status: ('A' for Active; 'I' for Inactive)
REMARK    1  A    between atoms: N_14  and  C_15
REMARK    2  A    between atoms: C_20  and  O_21
REMARK                            x       y       z     vdW  Elec       q    Type
REMARK                         _______ _______ _______ _____ _____    ______ ____
ROOT
ATOM      1  O   UNL     1       2.933   6.868  19.580  0.00  0.00    +0.000 OA
ATOM      2  C   UNL     1       3.255   6.037  18.755  0.00  0.00    +0.000 A 
ATOM      3  C   UNL     1       4.353   6.134  17.793  0.00  0.00    +0.000 A 
ATOM      4  C   UNL     1       5.289   7.049  17.544  0.00  0.00    +0.000 A 
ATOM      5  N   UNL     1       6.224   6.896  16.547  0.00  0.00    +0.000 N 
ATOM      6  C   UNL     1       6.189   5.786  15.679  0.00  0.00    +0.000 A 
ATOM      7  C   UNL     1       7.118   5.660  14.644  0.00  0.00    +0.000 A 
ATOM      8  C   UNL     1       7.082   4.544  13.802  0.00  0.00    +0.000 A 
ATOM      9  C   UNL     1       6.125   3.541  13.992  0.00  0.00    +0.000 A 
ATOM     10  C   UNL     1       5.199   3.640  15.031  0.00  0.00    +0.000 A 
ATOM     11  C   UNL     1       5.240   4.755  15.871  0.00  0.00    +0.000 A 
ATOM     12  C   UNL     1       4.286   4.924  16.975  0.00  0.00    +0.000 A 
ATOM     13  N   UNL     1       3.315   4.138  17.356  0.00  0.00    +0.000 NA
ATOM     14  N   UNL     1       2.700   4.788  18.446  0.00  0.00    +0.000 N 
ATOM     15  H   UNL     1       6.833   7.676  16.327  0.00  0.00    +0.000 HD
ENDROOT
BRANCH  14  16
ATOM     16  C   UNL     1       1.457   4.294  19.041  0.00  0.00    +0.000 C 
ATOM     17  C   UNL     1       1.291   4.706  20.511  0.00  0.00    +0.000 C 
ATOM     18  C   UNL     1       2.187   3.924  21.467  0.00  0.00    +0.000 C 
ATOM     19  C   UNL     1       2.105   2.412  21.265  0.00  0.00    +0.000 C 
ATOM     20  C   UNL     1       2.203   1.968  19.804  0.00  0.00    +0.000 C 
ATOM     21  C   UNL     1       1.298   2.770  18.865  0.00  0.00    +0.000 C 
BRANCH  21  22
ATOM     22  O   UNL     1      -0.067   2.381  19.077  0.00  0.00    +0.000 OA
ATOM     23  H   UNL     1      -0.205   2.234  20.028  0.00  0.00    +0.000 HD
ENDBRANCH  21  22
ENDBRANCH  14  16
TORSDOF 2
ENDMDL
MODEL 7
REMARK VINA RESULT:      -7.3      4.464      7.244
REMARK  Name = 
REMARK  2 active torsions:
REMARK  status: ('A' for Active; 'I' for Inactive)
REMARK    1  A    between atoms: N_14  and  C_15
REMARK    2  A    between atoms: C_20  and  O_21
REMARK                            x       y       z     vdW  Elec       q    Type
REMARK                         _______ _______ _______ _____ _____    ______ ____
ROOT
ATOM      1  O   UNL     1       3.557   7.741  16.602  0.00  0.00    +0.000 OA
ATOM      2  C   UNL     1       2.990   7.647  17.672  0.00  0.00    +0.000 A 
ATOM      3  C   UNL     1       2.217   8.688  18.349  0.00  0.00    +0.000 A 
ATOM      4  C   UNL     1       1.880   9.940  18.042  0.00  0.00    +0.000 A 
ATOM      5  N   UNL     1       1.132  10.731  18.883  0.00  0.00    +0.000 N 
ATOM      6  C   UNL     1       0.746  10.275  20.160  0.00  0.00    +0.000 A 
ATOM      7  C   UNL     1       0.021  11.099  21.023  0.00  0.00    +0.000 A 
ATOM      8  C   UNL     1      -0.370  10.627  22.280  0.00  0.00    +0.000 A 
ATOM      9  C   UNL     1      -0.050   9.326  22.681  0.00  0.00    +0.000 A 
ATOM     10  C   UNL     1       0.659   8.481  21.826  0.00  0.00    +0.000 A 
ATOM     11  C   UNL     1       1.046   8.955  20.572  0.00  0.00    +0.000 A 
ATOM     12  C   UNL     1       1.804   8.120  19.631  0.00  0.00    +0.000 A 
ATOM     13  N   UNL     1       2.214   6.887  19.766  0.00  0.00    +0.000 NA
ATOM     14  N   UNL     1       2.912   6.583  18.579  0.00  0.00    +0.000 N 
ATOM     15  H   UNL     1       1.010  11.710  18.651  0.00  0.00    +0.000 HD
ENDROOT
BRANCH  14  16
ATOM     16  C   UNL     1       3.670   5.340  18.423  0.00  0.00    +0.000 C 
ATOM     17  C   UNL     1       3.031   4.370  17.419  0.00  0.00    +0.000 C 
ATOM     18  C   UNL     1       1.786   3.671  17.956  0.00  0.00    +0.000 C 
ATOM     19  C   UNL     1       1.997   3.041  19.331  0.00  0.00    +0.000 C 
ATOM     20  C   UNL     1       2.690   3.958  20.341  0.00  0.00    +0.000 C 
ATOM     21  C   UNL     1       3.934   4.651  19.778  0.00  0.00    +0.000 C 
BRANCH  21  22
ATOM     22  O   UNL     1       4.993   3.691  19.653  0.00  0.00    +0.000 OA
ATOM     23  H   UNL     1       4.884   3.212  18.815  0.00  0.00    +0.000 HD
ENDBRANCH  21  22
ENDBRANCH  14  16
TORSDOF 2
ENDMDL
MODEL 8
REMARK VINA RESULT:      -7.1      2.439      6.446
REMARK  Name = 
REMARK  2 active torsions:
REMARK  status: ('A' for Active; 'I' for Inactive)
REMARK    1  A    between atoms: N_14  and  C_15
REMARK    2  A    between atoms: C_20  and  O_21
REMARK                            x       y       z     vdW  Elec       q    Type
REMARK                         _______ _______ _______ _____ _____    ______ ____
ROOT
ATOM      1  O   UNL     1       3.149   8.359  17.795  0.00  0.00    +0.000 OA
ATOM      2  C   UNL     1       3.437   7.214  18.080  0.00  0.00    +0.000 A 
ATOM      3  C   UNL     1       2.765   6.357  19.057  0.00  0.00    +0.000 A 
ATOM      4  C   UNL     1       1.708   6.511  19.853  0.00  0.00    +0.000 A 
ATOM      5  N   UNL     1       1.278   5.524  20.709  0.00  0.00    +0.000 N 
ATOM      6  C   UNL     1       1.991   4.315  20.844  0.00  0.00    +0.000 A 
ATOM      7  C   UNL     1       1.570   3.336  21.746  0.00  0.00    +0.000 A 
ATOM      8  C   UNL     1       2.278   2.134  21.856  0.00  0.00    +0.000 A 
ATOM      9  C   UNL     1       3.404   1.897  21.061  0.00  0.00    +0.000 A 
ATOM     10  C   UNL     1       3.830   2.857  20.141  0.00  0.00    +0.000 A 
ATOM     11  C   UNL     1       3.120   4.054  20.033  0.00  0.00    +0.000 A 
ATOM     12  C   UNL     1       3.524   5.108  19.094  0.00  0.00    +0.000 A 
ATOM     13  N   UNL     1       4.523   5.126  18.251  0.00  0.00    +0.000 NA
ATOM     14  N   UNL     1       4.466   6.384  17.616  0.00  0.00    +0.000 N 
ATOM     15  H   UNL     1       0.544   5.741  21.374  0.00  0.00    +0.000 HD
ENDROOT
BRANCH  14  16
ATOM     16  C   UNL     1       5.527   6.847  16.720  0.00  0.00    +0.000 C 
ATOM     17  C   UNL     1       5.300   6.435  15.258  0.00  0.00    +0.000 C 
ATOM     18  C   UNL     1       5.573   4.958  14.994  0.00  0.00    +0.000 C 
ATOM     19  C   UNL     1       6.922   4.489  15.536  0.00  0.00    +0.000 C 
ATOM     20  C   UNL     1       7.211   4.937  16.971  0.00  0.00    +0.000 C 
ATOM     21  C   UNL     1       6.925   6.422  17.212  0.00  0.00    +0.000 C 
BRANCH  21  22
ATOM     22  O   UNL     1       7.942   7.208  16.573  0.00  0.00    +0.000 OA
ATOM     23  H   UNL     1       8.795   7.020  16.997  0.00  0.00    +0.000 HD
ENDBRANCH  21  22
ENDBRANCH  14  16
TORSDOF 2
ENDMDL
MODEL 9
REMARK VINA RESULT:      -7.0      3.920      7.127
REMARK  Name = 
REMARK  2 active torsions:
REMARK  status: ('A' for Active; 'I' for Inactive)
REMARK    1  A    between atoms: N_14  and  C_15
REMARK    2  A    between atoms: C_20  and  O_21
REMARK                            x       y       z     vdW  Elec       q    Type
REMARK                         _______ _______ _______ _____ _____    ______ ____
ROOT
ATOM      1  O   UNL     1       3.343   4.525  19.773  0.00  0.00    +0.000 OA
ATOM      2  C   UNL     1       3.169   5.637  19.316  0.00  0.00    +0.000 A 
ATOM      3  C   UNL     1       2.299   6.682  19.857  0.00  0.00    +0.000 A 
ATOM      4  C   UNL     1       1.516   6.772  20.931  0.00  0.00    +0.000 A 
ATOM      5  N   UNL     1       0.774   7.896  21.211  0.00  0.00    +0.000 N 
ATOM      6  C   UNL     1       0.747   8.992  20.324  0.00  0.00    +0.000 A 
ATOM      7  C   UNL     1      -0.041  10.112  20.597  0.00  0.00    +0.000 A 
ATOM      8  C   UNL     1      -0.044  11.198  19.716  0.00  0.00    +0.000 A 
ATOM      9  C   UNL     1       0.746  11.179  18.562  0.00  0.00    +0.000 A 
ATOM     10  C   UNL     1       1.553  10.076  18.280  0.00  0.00    +0.000 A 
ATOM     11  C   UNL     1       1.555   8.994  19.163  0.00  0.00    +0.000 A 
ATOM     12  C   UNL     1       2.373   7.799  18.917  0.00  0.00    +0.000 A 
ATOM     13  N   UNL     1       3.187   7.545  17.928  0.00  0.00    +0.000 NA
ATOM     14  N   UNL     1       3.692   6.250  18.170  0.00  0.00    +0.000 N 
ATOM     15  H   UNL     1       0.107   7.862  21.973  0.00  0.00    +0.000 HD
ENDROOT
BRANCH  14  16
ATOM     16  C   UNL     1       4.512   5.542  17.186  0.00  0.00    +0.000 C 
ATOM     17  C   UNL     1       5.427   4.483  17.819  0.00  0.00    +0.000 C 
ATOM     18  C   UNL     1       6.626   5.075  18.553  0.00  0.00    +0.000 C 
ATOM     19  C   UNL     1       7.396   6.097  17.719  0.00  0.00    +0.000 C 
ATOM     20  C   UNL     1       6.511   7.132  17.021  0.00  0.00    +0.000 C 
ATOM     21  C   UNL     1       5.313   6.514  16.295  0.00  0.00    +0.000 C 
BRANCH  21  22
ATOM     22  O   UNL     1       5.772   5.845  15.111  0.00  0.00    +0.000 OA
ATOM     23  H   UNL     1       6.174   6.501  14.518  0.00  0.00    +0.000 HD
ENDBRANCH  21  22
ENDBRANCH  14  16
TORSDOF 2
ENDMDL
