MODEL 1
REMARK VINA RESULT:      -7.0      0.000      0.000
REMARK  Name = 
REMARK  9 active torsions:
REMARK  status: ('A' for Active; 'I' for Inactive)
REMARK    1  A    between atoms: C_1  and  C_2
REMARK    2  A    between atoms: C_2  and  N_3
REMARK    3  A    between atoms: N_3  and  C_4
REMARK    4  A    between atoms: N_3  and  C_6
REMARK    5  A    between atoms: C_4  and  C_5
REMARK    6  A    between atoms: C_6  and  C_7
REMARK    7  A    between atoms: C_7  and  N_8
REMARK    8  A    between atoms: N_8  and  C_9
REMARK    9  A    between atoms: C_11  and  C_12
REMARK                            x       y       z     vdW  Elec       q    Type
REMARK                         _______ _______ _______ _____ _____    ______ ____
ROOT
ATOM      1  C   UNL     1       4.960   4.485  18.693  0.00  0.00    +0.000 A 
ATOM      2  C   UNL     1       4.114   5.421  19.299  0.00  0.00    +0.000 A 
ATOM      3  C   UNL     1       3.620   6.489  18.569  0.00  0.00    +0.000 A 
ATOM      4  N   UNL     1       3.961   6.704  17.281  0.00  0.00    +0.000 NA
ATOM      5  C   UNL     1       4.842   5.869  16.707  0.00  0.00    +0.000 A 
ATOM      6  C   UNL     1       5.212   6.146  15.399  0.00  0.00    +0.000 A 
ATOM      7  C   UNL     1       6.116   5.344  14.701  0.00  0.00    +0.000 A 
ATOM      8  C   UNL     1       6.665   4.236  15.326  0.00  0.00    +0.000 A 
ATOM      9  C   UNL     1       6.309   3.937  16.642  0.00  0.00    +0.000 A 
ATOM     10  C   UNL     1       5.389   4.740  17.362  0.00  0.00    +0.000 A 
ENDROOT
BRANCH   3  11
ATOM     11  C   UNL     1       2.618   7.425  19.100  0.00  0.00    +0.000 A 
ATOM     12  C   UNL     1       2.017   7.414  20.348  0.00  0.00    +0.000 A 
ATOM     13  C   UNL     1       1.123   8.504  20.547  0.00  0.00    +0.000 A 
ATOM     14  C   UNL     1       1.040   9.308  19.434  0.00  0.00    +0.000 A 
ATOM     15  S   UNL     1       2.032   8.744  18.164  0.00  0.00    +0.000 S 
ENDBRANCH   3  11
BRANCH   1  16
ATOM     16  N   UNL     1       5.426   3.378  19.437  0.00  0.00    +0.000 N 
ATOM     17  H   UNL     1       6.135   2.822  18.969  0.00  0.00    +0.000 HD
BRANCH  16  18
ATOM     18  C   UNL     1       4.408   2.541  20.088  0.00  0.00    +0.000 C 
BRANCH  18  19
ATOM     19  C   UNL     1       3.440   1.888  19.077  0.00  0.00    +0.000 C 
BRANCH  19  20
ATOM     20  N   UNL     1       1.993   2.010  19.359  0.00  0.00    +0.000 NA
BRANCH  20  22
ATOM     21  C   UNL     1       1.045   3.921  20.718  0.00  0.00    +0.000 C 
ATOM     22  C   UNL     1       1.753   2.570  20.702  0.00  0.00    +0.000 C 
ENDBRANCH  20  22
BRANCH  20  23
ATOM     23  C   UNL     1       1.304   2.733  18.275  0.00  0.00    +0.000 C 
ATOM     24  C   UNL     1       2.176   3.215  17.119  0.00  0.00    +0.000 C 
ENDBRANCH  20  23
ENDBRANCH  19  20
ENDBRANCH  18  19
ENDBRANCH  16  18
ENDBRANCH   1  16
TORSDOF 7
ENDMDL
MODEL 2
REMARK VINA RESULT:      -6.6      0.886      1.102
REMARK  Name = 
REMARK  9 active torsions:
REMARK  status: ('A' for Active; 'I' for Inactive)
REMARK    1  A    between atoms: C_1  and  C_2
REMARK    2  A    between atoms: C_2  and  N_3
REMARK    3  A    between atoms: N_3  and  C_4
REMARK    4  A    between atoms: N_3  and  C_6
REMARK    5  A    between atoms: C_4  and  C_5
REMARK    6  A    between atoms: C_6  and  C_7
REMARK    7  A    between atoms: C_7  and  N_8
REMARK    8  A    between atoms: N_8  and  C_9
REMARK    9  A    between atoms: C_11  and  C_12
REMARK                            x       y       z     vdW  Elec       q    Type
REMARK                         _______ _______ _______ _____ _____    ______ ____
ROOT
ATOM      1  C   UNL     1       4.789   4.899  18.791  0.00  0.00    +0.000 A 
ATOM      2  C   UNL     1       3.920   5.920  19.191  0.00  0.00    +0.000 A 
ATOM      3  C   UNL     1       3.496   6.872  18.279  0.00  0.00    +0.000 A 
ATOM      4  N   UNL     1       3.929   6.892  17.001  0.00  0.00    +0.000 NA
ATOM      5  C   UNL     1       4.833   5.975  16.620  0.00  0.00    +0.000 A 
ATOM      6  C   UNL     1       5.296   6.053  15.314  0.00  0.00    +0.000 A 
ATOM      7  C   UNL     1       6.232   5.151  14.807  0.00  0.00    +0.000 A 
ATOM      8  C   UNL     1       6.717   4.143  15.625  0.00  0.00    +0.000 A 
ATOM      9  C   UNL     1       6.266   4.044  16.943  0.00  0.00    +0.000 A 
ATOM     10  C   UNL     1       5.313   4.951  17.469  0.00  0.00    +0.000 A 
ENDROOT
BRANCH   3  11
ATOM     11  C   UNL     1       2.477   7.883  18.595  0.00  0.00    +0.000 A 
ATOM     12  C   UNL     1       1.919   8.826  17.749  0.00  0.00    +0.000 A 
ATOM     13  C   UNL     1       0.918   9.620  18.378  0.00  0.00    +0.000 A 
ATOM     14  C   UNL     1       0.755   9.284  19.701  0.00  0.00    +0.000 A 
ATOM     15  S   UNL     1       1.805   8.023  20.174  0.00  0.00    +0.000 S 
ENDBRANCH   3  11
BRANCH   1  16
ATOM     16  N   UNL     1       5.183   3.909  19.719  0.00  0.00    +0.000 N 
ATOM     17  H   UNL     1       6.185   3.833  19.857  0.00  0.00    +0.000 HD
BRANCH  16  18
ATOM     18  C   UNL     1       4.541   2.593  19.597  0.00  0.00    +0.000 C 
BRANCH  18  19
ATOM     19  C   UNL     1       3.145   2.549  20.257  0.00  0.00    +0.000 C 
BRANCH  19  20
ATOM     20  N   UNL     1       1.997   2.238  19.378  0.00  0.00    +0.000 NA
BRANCH  20  22
ATOM     21  C   UNL     1       1.144   4.262  20.631  0.00  0.00    +0.000 C 
ATOM     22  C   UNL     1       0.859   3.137  19.642  0.00  0.00    +0.000 C 
ENDBRANCH  20  22
BRANCH  20  23
ATOM     23  C   UNL     1       2.412   2.193  17.964  0.00  0.00    +0.000 C 
ATOM     24  C   UNL     1       2.035   3.400  17.108  0.00  0.00    +0.000 C 
ENDBRANCH  20  23
ENDBRANCH  19  20
ENDBRANCH  18  19
ENDBRANCH  16  18
ENDBRANCH   1  16
TORSDOF 7
ENDMDL
MODEL 3
REMARK VINA RESULT:      -6.6      1.761      4.994
REMARK  Name = 
REMARK  9 active torsions:
REMARK  status: ('A' for Active; 'I' for Inactive)
REMARK    1  A    between atoms: C_1  and  C_2
REMARK    2  A    between atoms: C_2  and  N_3
REMARK    3  A    between atoms: N_3  and  C_4
REMARK    4  A    between atoms: N_3  and  C_6
REMARK    5  A    between atoms: C_4  and  C_5
REMARK    6  A    between atoms: C_6  and  C_7
REMARK    7  A    between atoms: C_7  and  N_8
REMARK    8  A    between atoms: N_8  and  C_9
REMARK    9  A    between atoms: C_11  and  C_12
REMARK                            x       y       z     vdW  Elec       q    Type
REMARK                         _______ _______ _______ _____ _____    ______ ____
ROOT
ATOM      1  C   UNL     1       3.113   5.798  18.373  0.00  0.00    +0.000 A 
ATOM      2  C   UNL     1       2.608   7.035  18.788  0.00  0.00    +0.000 A 
ATOM      3  C   UNL     1       1.807   7.117  19.915  0.00  0.00    +0.000 A 
ATOM      4  N   UNL     1       1.441   6.028  20.623  0.00  0.00    +0.000 NA
ATOM      5  C   UNL     1       1.842   4.822  20.190  0.00  0.00    +0.000 A 
ATOM      6  C   UNL     1       1.408   3.719  20.911  0.00  0.00    +0.000 A 
ATOM      7  C   UNL     1       1.766   2.417  20.556  0.00  0.00    +0.000 A 
ATOM      8  C   UNL     1       2.579   2.212  19.453  0.00  0.00    +0.000 A 
ATOM      9  C   UNL     1       3.028   3.307  18.712  0.00  0.00    +0.000 A 
ATOM     10  C   UNL     1       2.676   4.635  19.064  0.00  0.00    +0.000 A 
ENDROOT
BRANCH   3  11
ATOM     11  C   UNL     1       1.361   8.396  20.487  0.00  0.00    +0.000 A 
ATOM     12  C   UNL     1       1.188   8.720  21.822  0.00  0.00    +0.000 A 
ATOM     13  C   UNL     1       0.789  10.073  22.022  0.00  0.00    +0.000 A 
ATOM     14  C   UNL     1       0.638  10.743  20.831  0.00  0.00    +0.000 A 
ATOM     15  S   UNL     1       0.972   9.743  19.488  0.00  0.00    +0.000 S 
ENDBRANCH   3  11
BRANCH   1  16
ATOM     16  N   UNL     1       3.963   5.731  17.245  0.00  0.00    +0.000 N 
ATOM     17  H   UNL     1       4.457   4.852  17.139  0.00  0.00    +0.000 HD
BRANCH  16  18
ATOM     18  C   UNL     1       4.836   6.889  17.004  0.00  0.00    +0.000 C 
BRANCH  18  19
ATOM     19  C   UNL     1       6.314   6.486  16.802  0.00  0.00    +0.000 C 
BRANCH  19  20
ATOM     20  N   UNL     1       6.619   5.039  16.793  0.00  0.00    +0.000 NA
BRANCH  20  22
ATOM     21  C   UNL     1       5.900   4.191  14.521  0.00  0.00    +0.000 C 
ATOM     22  C   UNL     1       7.040   4.587  15.454  0.00  0.00    +0.000 C 
ENDBRANCH  20  22
BRANCH  20  23
ATOM     23  C   UNL     1       7.566   4.693  17.868  0.00  0.00    +0.000 C 
ATOM     24  C   UNL     1       7.858   5.786  18.893  0.00  0.00    +0.000 C 
ENDBRANCH  20  23
ENDBRANCH  19  20
ENDBRANCH  18  19
ENDBRANCH  16  18
ENDBRANCH   1  16
TORSDOF 7
ENDMDL
MODEL 4
REMARK VINA RESULT:      -6.6      1.527      2.307
REMARK  Name = 
REMARK  9 active torsions:
REMARK  status: ('A' for Active; 'I' for Inactive)
REMARK    1  A    between atoms: C_1  and  C_2
REMARK    2  A    between atoms: C_2  and  N_3
REMARK    3  A    between atoms: N_3  and  C_4
REMARK    4  A    between atoms: N_3  and  C_6
REMARK    5  A    between atoms: C_4  and  C_5
REMARK    6  A    between atoms: C_6  and  C_7
REMARK    7  A    between atoms: C_7  and  N_8
REMARK    8  A    between atoms: N_8  and  C_9
REMARK    9  A    between atoms: C_11  and  C_12
REMARK                            x       y       z     vdW  Elec       q    Type
REMARK                         _______ _______ _______ _____ _____    ______ ____
ROOT
ATOM      1  C   UNL     1       3.048   4.744  17.408  0.00  0.00    +0.000 A 
ATOM      2  C   UNL     1       2.296   5.777  17.979  0.00  0.00    +0.000 A 
ATOM      3  C   UNL     1       2.844   7.041  18.121  0.00  0.00    +0.000 A 
ATOM      4  N   UNL     1       4.117   7.321  17.769  0.00  0.00    +0.000 NA
ATOM      5  C   UNL     1       4.884   6.323  17.302  0.00  0.00    +0.000 A 
ATOM      6  C   UNL     1       6.201   6.631  16.998  0.00  0.00    +0.000 A 
ATOM      7  C   UNL     1       7.089   5.675  16.501  0.00  0.00    +0.000 A 
ATOM      8  C   UNL     1       6.647   4.377  16.303  0.00  0.00    +0.000 A 
ATOM      9  C   UNL     1       5.325   4.042  16.602  0.00  0.00    +0.000 A 
ATOM     10  C   UNL     1       4.413   5.004  17.104  0.00  0.00    +0.000 A 
ENDROOT
BRANCH   3  11
ATOM     11  C   UNL     1       2.067   8.202  18.579  0.00  0.00    +0.000 A 
ATOM     12  C   UNL     1       1.652   9.297  17.840  0.00  0.00    +0.000 A 
ATOM     13  C   UNL     1       0.871  10.218  18.595  0.00  0.00    +0.000 A 
ATOM     14  C   UNL     1       0.731   9.818  19.903  0.00  0.00    +0.000 A 
ATOM     15  S   UNL     1       1.541   8.346  20.212  0.00  0.00    +0.000 S 
ENDBRANCH   3  11
BRANCH   1  16
ATOM     16  N   UNL     1       2.466   3.469  17.231  0.00  0.00    +0.000 N 
ATOM     17  H   UNL     1       2.219   3.245  16.273  0.00  0.00    +0.000 HD
BRANCH  16  18
ATOM     18  C   UNL     1       1.408   3.086  18.178  0.00  0.00    +0.000 C 
BRANCH  18  19
ATOM     19  C   UNL     1       1.867   1.998  19.173  0.00  0.00    +0.000 C 
BRANCH  19  20
ATOM     20  N   UNL     1       1.937   2.381  20.601  0.00  0.00    +0.000 NA
BRANCH  20  22
ATOM     21  C   UNL     1       4.393   2.255  20.012  0.00  0.00    +0.000 C 
ATOM     22  C   UNL     1       3.325   2.359  21.096  0.00  0.00    +0.000 C 
ENDBRANCH  20  22
BRANCH  20  23
ATOM     23  C   UNL     1       1.235   3.655  20.840  0.00  0.00    +0.000 C 
ATOM     24  C   UNL     1       2.099   4.834  21.281  0.00  0.00    +0.000 C 
ENDBRANCH  20  23
ENDBRANCH  19  20
ENDBRANCH  18  19
ENDBRANCH  16  18
ENDBRANCH   1  16
TORSDOF 7
ENDMDL
MODEL 5
REMARK VINA RESULT:      -6.6      1.908      5.168
REMARK  Name = 
REMARK  9 active torsions:
REMARK  status: ('A' for Active; 'I' for Inactive)
REMARK    1  A    between atoms: C_1  and  C_2
REMARK    2  A    between atoms: C_2  and  N_3
REMARK    3  A    between atoms: N_3  and  C_4
REMARK    4  A    between atoms: N_3  and  C_6
REMARK    5  A    between atoms: C_4  and  C_5
REMARK    6  A    between atoms: C_6  and  C_7
REMARK    7  A    between atoms: C_7  and  N_8
REMARK    8  A    between atoms: N_8  and  C_9
REMARK    9  A    between atoms: C_11  and  C_12
REMARK                            x       y       z     vdW  Elec       q    Type
REMARK                         _______ _______ _______ _____ _____    ______ ____
ROOT
ATOM      1  C   UNL     1       4.352   4.820  19.465  0.00  0.00    +0.000 A 
ATOM      2  C   UNL     1       3.928   6.071  19.003  0.00  0.00    +0.000 A 
ATOM      3  C   UNL     1       2.661   6.536  19.314  0.00  0.00    +0.000 A 
ATOM      4  N   UNL     1       1.775   5.803  20.021  0.00  0.00    +0.000 NA
ATOM      5  C   UNL     1       2.130   4.563  20.397  0.00  0.00    +0.000 A 
ATOM      6  C   UNL     1       1.180   3.816  21.077  0.00  0.00    +0.000 A 
ATOM      7  C   UNL     1       1.439   2.519  21.521  0.00  0.00    +0.000 A 
ATOM      8  C   UNL     1       2.681   1.953  21.280  0.00  0.00    +0.000 A 
ATOM      9  C   UNL     1       3.654   2.686  20.597  0.00  0.00    +0.000 A 
ATOM     10  C   UNL     1       3.405   4.006  20.144  0.00  0.00    +0.000 A 
ENDROOT
BRANCH   3  11
ATOM     11  C   UNL     1       2.204   7.894  18.983  0.00  0.00    +0.000 A 
ATOM     12  C   UNL     1       2.394   8.594  17.804  0.00  0.00    +0.000 A 
ATOM     13  C   UNL     1       1.771   9.875  17.808  0.00  0.00    +0.000 A 
ATOM     14  C   UNL     1       1.144  10.135  19.004  0.00  0.00    +0.000 A 
ATOM     15  S   UNL     1       1.311   8.843  20.108  0.00  0.00    +0.000 S 
ENDBRANCH   3  11
BRANCH   1  16
ATOM     16  N   UNL     1       5.661   4.374  19.175  0.00  0.00    +0.000 N 
ATOM     17  H   UNL     1       5.950   3.548  19.688  0.00  0.00    +0.000 HD
BRANCH  16  18
ATOM     18  C   UNL     1       6.717   5.396  19.135  0.00  0.00    +0.000 C 
BRANCH  18  19
ATOM     19  C   UNL     1       7.603   5.285  17.875  0.00  0.00    +0.000 C 
BRANCH  19  20
ATOM     20  N   UNL     1       7.280   6.186  16.746  0.00  0.00    +0.000 NA
BRANCH  20  22
ATOM     21  C   UNL     1       6.618   4.194  15.336  0.00  0.00    +0.000 C 
ATOM     22  C   UNL     1       6.272   5.586  15.852  0.00  0.00    +0.000 C 
ENDBRANCH  20  22
BRANCH  20  23
ATOM     23  C   UNL     1       6.928   7.532  17.230  0.00  0.00    +0.000 C 
ATOM     24  C   UNL     1       8.069   8.365  17.811  0.00  0.00    +0.000 C 
ENDBRANCH  20  23
ENDBRANCH  19  20
ENDBRANCH  18  19
ENDBRANCH  16  18
ENDBRANCH   1  16
TORSDOF 7
ENDMDL
MODEL 6
REMARK VINA RESULT:      -6.5      1.704      4.930
REMARK  Name = 
REMARK  9 active torsions:
REMARK  status: ('A' for Active; 'I' for Inactive)
REMARK    1  A    between atoms: C_1  and  C_2
REMARK    2  A    between atoms: C_2  and  N_3
REMARK    3  A    between atoms: N_3  and  C_4
REMARK    4  A    between atoms: N_3  and  C_6
REMARK    5  A    between atoms: C_4  and  C_5
REMARK    6  A    between atoms: C_6  and  C_7
REMARK    7  A    between atoms: C_7  and  N_8
REMARK    8  A    between atoms: N_8  and  C_9
REMARK    9  A    between atoms: C_11  and  C_12
REMARK                            x       y       z     vdW  Elec       q    Type
REMARK                         _______ _______ _______ _____ _____    ______ ____
ROOT
ATOM      1  C   UNL     1       2.810   6.164  19.851  0.00  0.00    +0.000 A 
ATOM      2  C   UNL     1       3.639   5.513  18.931  0.00  0.00    +0.000 A 
ATOM      3  C   UNL     1       4.000   6.143  17.751  0.00  0.00    +0.000 A 
ATOM      4  N   UNL     1       3.541   7.367  17.416  0.00  0.00    +0.000 NA
ATOM      5  C   UNL     1       2.673   7.972  18.243  0.00  0.00    +0.000 A 
ATOM      6  C   UNL     1       2.181   9.206  17.846  0.00  0.00    +0.000 A 
ATOM      7  C   UNL     1       1.277   9.928  18.627  0.00  0.00    +0.000 A 
ATOM      8  C   UNL     1       0.856   9.403  19.839  0.00  0.00    +0.000 A 
ATOM      9  C   UNL     1       1.337   8.162  20.260  0.00  0.00    +0.000 A 
ATOM     10  C   UNL     1       2.258   7.420  19.477  0.00  0.00    +0.000 A 
ENDROOT
BRANCH   3  11
ATOM     11  C   UNL     1       4.978   5.578  16.810  0.00  0.00    +0.000 A 
ATOM     12  C   UNL     1       6.036   6.221  16.190  0.00  0.00    +0.000 A 
ATOM     13  C   UNL     1       6.815   5.354  15.372  0.00  0.00    +0.000 A 
ATOM     14  C   UNL     1       6.317   4.073  15.364  0.00  0.00    +0.000 A 
ATOM     15  S   UNL     1       4.919   3.925  16.334  0.00  0.00    +0.000 S 
ENDBRANCH   3  11
BRANCH   1  16
ATOM     16  N   UNL     1       2.481   5.528  21.070  0.00  0.00    +0.000 N 
ATOM     17  H   UNL     1       3.278   5.262  21.637  0.00  0.00    +0.000 HD
BRANCH  16  18
ATOM     18  C   UNL     1       1.466   4.466  21.010  0.00  0.00    +0.000 C 
BRANCH  18  19
ATOM     19  C   UNL     1       2.083   3.051  21.076  0.00  0.00    +0.000 C 
BRANCH  19  20
ATOM     20  N   UNL     1       1.906   2.186  19.889  0.00  0.00    +0.000 NA
BRANCH  20  22
ATOM     21  C   UNL     1       1.358   3.412  17.745  0.00  0.00    +0.000 C 
ATOM     22  C   UNL     1       0.852   2.705  18.998  0.00  0.00    +0.000 C 
ENDBRANCH  20  22
BRANCH  20  23
ATOM     23  C   UNL     1       3.195   1.945  19.216  0.00  0.00    +0.000 C 
ATOM     24  C   UNL     1       4.452   2.182  20.051  0.00  0.00    +0.000 C 
ENDBRANCH  20  23
ENDBRANCH  19  20
ENDBRANCH  18  19
ENDBRANCH  16  18
ENDBRANCH   1  16
TORSDOF 7
ENDMDL
MODEL 7
REMARK VINA RESULT:      -6.5      2.278      6.587
REMARK  Name = 
REMARK  9 active torsions:
REMARK  status: ('A' for Active; 'I' for Inactive)
REMARK    1  A    between atoms: C_1  and  C_2
REMARK    2  A    between atoms: C_2  and  N_3
REMARK    3  A    between atoms: N_3  and  C_4
REMARK    4  A    between atoms: N_3  and  C_6
REMARK    5  A    between atoms: C_4  and  C_5
REMARK    6  A    between atoms: C_6  and  C_7
REMARK    7  A    between atoms: C_7  and  N_8
REMARK    8  A    between atoms: N_8  and  C_9
REMARK    9  A    between atoms: C_11  and  C_12
REMARK                            x       y       z     vdW  Elec       q    Type
REMARK                         _______ _______ _______ _____ _____    ______ ____
ROOT
ATOM      1  C   UNL     1       2.811   6.151  18.608  0.00  0.00    +0.000 A 
ATOM      2  C   UNL     1       3.815   6.096  17.636  0.00  0.00    +0.000 A 
ATOM      3  C   UNL     1       4.324   4.874  17.227  0.00  0.00    +0.000 A 
ATOM      4  N   UNL     1       3.921   3.706  17.770  0.00  0.00    +0.000 NA
ATOM      5  C   UNL     1       3.023   3.742  18.768  0.00  0.00    +0.000 A 
ATOM      6  C   UNL     1       2.667   2.528  19.338  0.00  0.00    +0.000 A 
ATOM      7  C   UNL     1       1.741   2.444  20.378  0.00  0.00    +0.000 A 
ATOM      8  C   UNL     1       1.152   3.603  20.860  0.00  0.00    +0.000 A 
ATOM      9  C   UNL     1       1.495   4.836  20.302  0.00  0.00    +0.000 A 
ATOM     10  C   UNL     1       2.432   4.935  19.242  0.00  0.00    +0.000 A 
ENDROOT
BRANCH   3  11
ATOM     11  C   UNL     1       5.273   4.735  16.114  0.00  0.00    +0.000 A 
ATOM     12  C   UNL     1       5.087   4.077  14.910  0.00  0.00    +0.000 A 
ATOM     13  C   UNL     1       6.205   4.183  14.035  0.00  0.00    +0.000 A 
ATOM     14  C   UNL     1       7.233   4.898  14.604  0.00  0.00    +0.000 A 
ATOM     15  S   UNL     1       6.847   5.429  16.180  0.00  0.00    +0.000 S 
ENDBRANCH   3  11
BRANCH   1  16
ATOM     16  N   UNL     1       2.271   7.400  18.989  0.00  0.00    +0.000 N 
ATOM     17  H   UNL     1       1.361   7.350  19.434  0.00  0.00    +0.000 HD
BRANCH  16  18
ATOM     18  C   UNL     1       2.342   8.482  17.996  0.00  0.00    +0.000 C 
BRANCH  18  19
ATOM     19  C   UNL     1       1.186   9.497  18.140  0.00  0.00    +0.000 C 
BRANCH  19  20
ATOM     20  N   UNL     1       1.088  10.224  19.425  0.00  0.00    +0.000 NA
BRANCH  20  22
ATOM     21  C   UNL     1      -0.150  12.333  18.779  0.00  0.00    +0.000 C 
ATOM     22  C   UNL     1       1.157  11.683  19.223  0.00  0.00    +0.000 C 
ENDBRANCH  20  22
BRANCH  20  23
ATOM     23  C   UNL     1      -0.087   9.778  20.195  0.00  0.00    +0.000 C 
ATOM     24  C   UNL     1       0.197   9.005  21.480  0.00  0.00    +0.000 C 
ENDBRANCH  20  23
ENDBRANCH  19  20
ENDBRANCH  18  19
ENDBRANCH  16  18
ENDBRANCH   1  16
TORSDOF 7
ENDMDL
MODEL 8
REMARK VINA RESULT:      -6.5      1.738      4.474
REMARK  Name = 
REMARK  9 active torsions:
REMARK  status: ('A' for Active; 'I' for Inactive)
REMARK    1  A    between atoms: C_1  and  C_2
REMARK    2  A    between atoms: C_2  and  N_3
REMARK    3  A    between atoms: N_3  and  C_4
REMARK    4  A    between atoms: N_3  and  C_6
REMARK    5  A    between atoms: C_4  and  C_5
REMARK    6  A    between atoms: C_6  and  C_7
REMARK    7  A    between atoms: C_7  and  N_8
REMARK    8  A    between atoms: N_8  and  C_9
REMARK    9  A    between atoms: C_11  and  C_12
REMARK                            x       y       z     vdW  Elec       q    Type
REMARK                         _______ _______ _______ _____ _____    ______ ____
ROOT
ATOM      1  C   UNL     1       4.646   4.808  19.379  0.00  0.00    +0.000 A 
ATOM      2  C   UNL     1       4.131   6.109  19.375  0.00  0.00    +0.000 A 
ATOM      3  C   UNL     1       2.795   6.329  19.082  0.00  0.00    +0.000 A 
ATOM      4  N   UNL     1       1.955   5.328  18.745  0.00  0.00    +0.000 NA
ATOM      5  C   UNL     1       2.450   4.083  18.656  0.00  0.00    +0.000 A 
ATOM      6  C   UNL     1       1.573   3.084  18.258  0.00  0.00    +0.000 A 
ATOM      7  C   UNL     1       1.975   1.754  18.135  0.00  0.00    +0.000 A 
ATOM      8  C   UNL     1       3.287   1.411  18.418  0.00  0.00    +0.000 A 
ATOM      9  C   UNL     1       4.189   2.399  18.820  0.00  0.00    +0.000 A 
ATOM     10  C   UNL     1       3.793   3.754  18.952  0.00  0.00    +0.000 A 
ENDROOT
BRANCH   3  11
ATOM     11  C   UNL     1       2.158   7.649  19.198  0.00  0.00    +0.000 A 
ATOM     12  C   UNL     1       1.544   8.205  20.308  0.00  0.00    +0.000 A 
ATOM     13  C   UNL     1       1.073   9.530  20.081  0.00  0.00    +0.000 A 
ATOM     14  C   UNL     1       1.314   9.945  18.792  0.00  0.00    +0.000 A 
ATOM     15  S   UNL     1       2.097   8.740  17.869  0.00  0.00    +0.000 S 
ENDBRANCH   3  11
BRANCH   1  16
ATOM     16  N   UNL     1       6.001   4.592  19.719  0.00  0.00    +0.000 N 
ATOM     17  H   UNL     1       6.168   4.420  20.704  0.00  0.00    +0.000 HD
BRANCH  16  18
ATOM     18  C   UNL     1       6.984   5.522  19.145  0.00  0.00    +0.000 C 
BRANCH  18  19
ATOM     19  C   UNL     1       7.503   5.062  17.765  0.00  0.00    +0.000 C 
BRANCH  19  20
ATOM     20  N   UNL     1       7.408   6.034  16.654  0.00  0.00    +0.000 NA
BRANCH  20  22
ATOM     21  C   UNL     1       5.346   4.854  15.786  0.00  0.00    +0.000 C 
ATOM     22  C   UNL     1       6.717   5.453  15.489  0.00  0.00    +0.000 C 
ENDBRANCH  20  22
BRANCH  20  23
ATOM     23  C   UNL     1       6.833   7.310  17.118  0.00  0.00    +0.000 C 
ATOM     24  C   UNL     1       7.827   8.384  17.554  0.00  0.00    +0.000 C 
ENDBRANCH  20  23
ENDBRANCH  19  20
ENDBRANCH  18  19
ENDBRANCH  16  18
ENDBRANCH   1  16
TORSDOF 7
ENDMDL
MODEL 9
REMARK VINA RESULT:      -6.4      2.278      6.364
REMARK  Name = 
REMARK  9 active torsions:
REMARK  status: ('A' for Active; 'I' for Inactive)
REMARK    1  A    between atoms: C_1  and  C_2
REMARK    2  A    between atoms: C_2  and  N_3
REMARK    3  A    between atoms: N_3  and  C_4
REMARK    4  A    between atoms: N_3  and  C_6
REMARK    5  A    between atoms: C_4  and  C_5
REMARK    6  A    between atoms: C_6  and  C_7
REMARK    7  A    between atoms: C_7  and  N_8
REMARK    8  A    between atoms: N_8  and  C_9
REMARK    9  A    between atoms: C_11  and  C_12
REMARK                            x       y       z     vdW  Elec       q    Type
REMARK                         _______ _______ _______ _____ _____    ______ ____
ROOT
ATOM      1  C   UNL     1       2.986   6.264  18.963  0.00  0.00    +0.000 A 
ATOM      2  C   UNL     1       3.913   6.226  17.916  0.00  0.00    +0.000 A 
ATOM      3  C   UNL     1       4.548   5.039  17.589  0.00  0.00    +0.000 A 
ATOM      4  N   UNL     1       4.345   3.898  18.280  0.00  0.00    +0.000 NA
ATOM      5  C   UNL     1       3.528   3.933  19.345  0.00  0.00    +0.000 A 
ATOM      6  C   UNL     1       3.380   2.756  20.064  0.00  0.00    +0.000 A 
ATOM      7  C   UNL     1       2.553   2.674  21.185  0.00  0.00    +0.000 A 
ATOM      8  C   UNL     1       1.854   3.797  21.597  0.00  0.00    +0.000 A 
ATOM      9  C   UNL     1       1.986   4.993  20.890  0.00  0.00    +0.000 A 
ATOM     10  C   UNL     1       2.820   5.089  19.747  0.00  0.00    +0.000 A 
ENDROOT
BRANCH   3  11
ATOM     11  C   UNL     1       5.422   4.897  16.416  0.00  0.00    +0.000 A 
ATOM     12  C   UNL     1       5.124   4.313  15.196  0.00  0.00    +0.000 A 
ATOM     13  C   UNL     1       6.196   4.391  14.261  0.00  0.00    +0.000 A 
ATOM     14  C   UNL     1       7.300   5.010  14.800  0.00  0.00    +0.000 A 
ATOM     15  S   UNL     1       7.039   5.485  16.420  0.00  0.00    +0.000 S 
ENDBRANCH   3  11
BRANCH   1  16
ATOM     16  N   UNL     1       2.315   7.471  19.261  0.00  0.00    +0.000 N 
ATOM     17  H   UNL     1       1.525   7.372  19.890  0.00  0.00    +0.000 HD
BRANCH  16  18
ATOM     18  C   UNL     1       2.011   8.358  18.129  0.00  0.00    +0.000 C 
BRANCH  18  19
ATOM     19  C   UNL     1       1.408   9.708  18.577  0.00  0.00    +0.000 C 
BRANCH  19  20
ATOM     20  N   UNL     1       0.364   9.661  19.624  0.00  0.00    +0.000 NA
BRANCH  20  22
ATOM     21  C   UNL     1      -0.065  10.004  22.093  0.00  0.00    +0.000 C 
ATOM     22  C   UNL     1       0.853  10.226  20.896  0.00  0.00    +0.000 C 
ENDBRANCH  20  22
BRANCH  20  23
ATOM     23  C   UNL     1      -0.892  10.263  19.144  0.00  0.00    +0.000 C 
ATOM     24  C   UNL     1      -1.202  10.094  17.658  0.00  0.00    +0.000 C 
ENDBRANCH  20  23
ENDBRANCH  19  20
ENDBRANCH  18  19
ENDBRANCH  16  18
ENDBRANCH   1  16
TORSDOF 7
ENDMDL
