MODEL 1
REMARK VINA RESULT:      -5.2      0.000      0.000
REMARK  Name = 
REMARK  14 active torsions:
REMARK  status: ('A' for Active; 'I' for Inactive)
REMARK    1  A    between atoms: C_2  and  C_3
REMARK    2  A    between atoms: C_3  and  C_4
REMARK    3  A    between atoms: C_4  and  C_5
REMARK    4  A    between atoms: C_4  and  C_6
REMARK    5  A    between atoms: C_4  and  N_8
REMARK    6  A    between atoms: C_6  and  O_7
REMARK    7  A    between atoms: N_8  and  C_9
REMARK    8  A    between atoms: C_9  and  C_10
REMARK    9  A    between atoms: C_10  and  N_11
REMARK   10  A    between atoms: N_11  and  CA_12
REMARK   11  A    between atoms: CA_12  and  C_13
REMARK   12  A    between atoms: CA_12  and  C_15
REMARK   13  A    between atoms: C_13  and  C_14
REMARK   14  A    between atoms: C_15  and  O_16
REMARK                            x       y       z     vdW  Elec       q    Type
REMARK                         _______ _______ _______ _____ _____    ______ ____
ROOT
ATOM      1  N   UNL     1       3.558   5.056  17.440  0.00  0.00    +0.000 NA
ATOM      2  H   UNL     1       2.680   5.072  16.869  0.00  0.00    +0.000 HD
ENDROOT
BRANCH   1   3
ATOM      3  C   UNL     1       3.243   4.587  18.816  0.00  0.00    +0.000 C 
ATOM      4  C   UNL     1       3.141   5.827  19.739  0.00  0.00    +0.000 C 
BRANCH   3   5
ATOM      5  C   UNL     1       1.885   3.820  18.854  0.00  0.00    +0.000 C 
BRANCH   5   7
ATOM      6  C   UNL     1       1.213   2.897  21.054  0.00  0.00    +0.000 C 
ATOM      7  C   UNL     1       1.186   3.914  20.190  0.00  0.00    +0.000 C 
ENDBRANCH   5   7
ENDBRANCH   3   5
BRANCH   3   8
ATOM      8  C   UNL     1       4.361   3.662  19.377  0.00  0.00    +0.000 C 
BRANCH   8   9
ATOM      9  O   UNL     1       4.446   2.461  18.650  0.00  0.00    +0.000 OA
ATOM     10  H   UNL     1       5.316   2.041  18.877  0.00  0.00    +0.000 HD
ENDBRANCH   8   9
ENDBRANCH   3   8
ENDBRANCH   1   3
BRANCH   1  11
ATOM     11  C   UNL     1       4.213   6.372  17.351  0.00  0.00    +0.000 C 
BRANCH  11  12
ATOM     12  C   UNL     1       5.053   6.458  16.078  0.00  0.00    +0.000 C 
BRANCH  12  13
ATOM     13  N   UNL     1       6.477   6.565  16.428  0.00  0.00    +0.000 NA
ATOM     14  H   UNL     1       6.536   6.886  17.424  0.00  0.00    +0.000 HD
BRANCH  13  15
ATOM     15  CA  UNL     1       7.209   5.284  16.328  0.00  0.00    +0.000 C 
BRANCH  15  16
ATOM     16  C   UNL     1       7.510   4.659  17.719  0.00  0.00    +0.000 C 
ATOM     17  C   UNL     1       7.638   5.687  18.846  0.00  0.00    +0.000 C 
ENDBRANCH  15  16
BRANCH  15  18
ATOM     18  C   UNL     1       6.396   4.317  15.437  0.00  0.00    +0.000 C 
BRANCH  18  19
ATOM     19  O   UNL     1       5.845   3.272  16.188  0.00  0.00    +0.000 OA
ATOM     20  H   UNL     1       5.188   3.685  16.808  0.00  0.00    +0.000 HD
ENDBRANCH  18  19
ENDBRANCH  15  18
ENDBRANCH  13  15
ENDBRANCH  12  13
ENDBRANCH  11  12
ENDBRANCH   1  11
TORSDOF 12
ENDMDL
MODEL 2
REMARK VINA RESULT:      -5.2      1.989      2.720
REMARK  Name = 
REMARK  14 active torsions:
REMARK  status: ('A' for Active; 'I' for Inactive)
REMARK    1  A    between atoms: C_2  and  C_3
REMARK    2  A    between atoms: C_3  and  C_4
REMARK    3  A    between atoms: C_4  and  C_5
REMARK    4  A    between atoms: C_4  and  C_6
REMARK    5  A    between atoms: C_4  and  N_8
REMARK    6  A    between atoms: C_6  and  O_7
REMARK    7  A    between atoms: N_8  and  C_9
REMARK    8  A    between atoms: C_9  and  C_10
REMARK    9  A    between atoms: C_10  and  N_11
REMARK   10  A    between atoms: N_11  and  CA_12
REMARK   11  A    between atoms: CA_12  and  C_13
REMARK   12  A    between atoms: CA_12  and  C_15
REMARK   13  A    between atoms: C_13  and  C_14
REMARK   14  A    between atoms: C_15  and  O_16
REMARK                            x       y       z     vdW  Elec       q    Type
REMARK                         _______ _______ _______ _____ _____    ______ ____
ROOT
ATOM      1  N   UNL     1       4.578   3.272  17.707  0.00  0.00    +0.000 NA
ATOM      2  H   UNL     1       4.841   2.301  17.416  0.00  0.00    +0.000 HD
ENDROOT
BRANCH   1   3
ATOM      3  C   UNL     1       3.250   3.243  18.379  0.00  0.00    +0.000 C 
ATOM      4  C   UNL     1       2.470   2.012  17.858  0.00  0.00    +0.000 C 
BRANCH   3   5
ATOM      5  C   UNL     1       3.404   3.122  19.927  0.00  0.00    +0.000 C 
BRANCH   5   7
ATOM      6  C   UNL     1       1.363   2.930  21.319  0.00  0.00    +0.000 C 
ATOM      7  C   UNL     1       2.240   3.712  20.688  0.00  0.00    +0.000 C 
ENDBRANCH   5   7
ENDBRANCH   3   5
BRANCH   3   8
ATOM      8  C   UNL     1       2.415   4.515  18.053  0.00  0.00    +0.000 C 
BRANCH   8   9
ATOM      9  O   UNL     1       1.241   4.192  17.350  0.00  0.00    +0.000 OA
ATOM     10  H   UNL     1       0.765   5.043  17.167  0.00  0.00    +0.000 HD
ENDBRANCH   8   9
ENDBRANCH   3   8
ENDBRANCH   1   3
BRANCH   1  11
ATOM     11  C   UNL     1       4.680   4.168  16.543  0.00  0.00    +0.000 C 
BRANCH  11  12
ATOM     12  C   UNL     1       6.147   4.460  16.230  0.00  0.00    +0.000 C 
BRANCH  12  13
ATOM     13  N   UNL     1       6.962   4.265  17.439  0.00  0.00    +0.000 NA
ATOM     14  H   UNL     1       7.708   3.565  17.209  0.00  0.00    +0.000 HD
BRANCH  13  15
ATOM     15  CA  UNL     1       7.631   5.496  17.907  0.00  0.00    +0.000 C 
BRANCH  15  16
ATOM     16  C   UNL     1       7.206   6.752  17.094  0.00  0.00    +0.000 C 
ATOM     17  C   UNL     1       7.797   8.062  17.620  0.00  0.00    +0.000 C 
ENDBRANCH  15  16
BRANCH  15  18
ATOM     18  C   UNL     1       7.346   5.675  19.415  0.00  0.00    +0.000 C 
BRANCH  18  19
ATOM     19  O   UNL     1       6.239   4.917  19.818  0.00  0.00    +0.000 OA
ATOM     20  H   UNL     1       6.593   4.163  20.357  0.00  0.00    +0.000 HD
ENDBRANCH  18  19
ENDBRANCH  15  18
ENDBRANCH  13  15
ENDBRANCH  12  13
ENDBRANCH  11  12
ENDBRANCH   1  11
TORSDOF 12
ENDMDL
MODEL 3
REMARK VINA RESULT:      -5.2      1.482      5.285
REMARK  Name = 
REMARK  14 active torsions:
REMARK  status: ('A' for Active; 'I' for Inactive)
REMARK    1  A    between atoms: C_2  and  C_3
REMARK    2  A    between atoms: C_3  and  C_4
REMARK    3  A    between atoms: C_4  and  C_5
REMARK    4  A    between atoms: C_4  and  C_6
REMARK    5  A    between atoms: C_4  and  N_8
REMARK    6  A    between atoms: C_6  and  O_7
REMARK    7  A    between atoms: N_8  and  C_9
REMARK    8  A    between atoms: C_9  and  C_10
REMARK    9  A    between atoms: C_10  and  N_11
REMARK   10  A    between atoms: N_11  and  CA_12
REMARK   11  A    between atoms: CA_12  and  C_13
REMARK   12  A    between atoms: CA_12  and  C_15
REMARK   13  A    between atoms: C_13  and  C_14
REMARK   14  A    between atoms: C_15  and  O_16
REMARK                            x       y       z     vdW  Elec       q    Type
REMARK                         _______ _______ _______ _____ _____    ______ ____
ROOT
ATOM      1  N   UNL     1       4.527   5.241  17.084  0.00  0.00    +0.000 NA
ATOM      2  H   UNL     1       4.350   4.357  17.617  0.00  0.00    +0.000 HD
ENDROOT
BRANCH   1   3
ATOM      3  C   UNL     1       5.994   5.470  16.983  0.00  0.00    +0.000 C 
ATOM      4  C   UNL     1       6.496   4.825  15.667  0.00  0.00    +0.000 C 
BRANCH   3   5
ATOM      5  C   UNL     1       6.327   6.993  16.954  0.00  0.00    +0.000 C 
BRANCH   5   7
ATOM      6  C   UNL     1       7.995   8.580  17.872  0.00  0.00    +0.000 C 
ATOM      7  C   UNL     1       7.663   7.322  17.580  0.00  0.00    +0.000 C 
ENDBRANCH   5   7
ENDBRANCH   3   5
BRANCH   3   8
ATOM      8  C   UNL     1       6.760   4.807  18.165  0.00  0.00    +0.000 C 
BRANCH   8   9
ATOM      9  O   UNL     1       6.009   3.770  18.746  0.00  0.00    +0.000 OA
ATOM     10  H   UNL     1       6.638   3.213  19.274  0.00  0.00    +0.000 HD
ENDBRANCH   8   9
ENDBRANCH   3   8
ENDBRANCH   1   3
BRANCH   1  11
ATOM     11  C   UNL     1       3.755   6.336  17.696  0.00  0.00    +0.000 C 
BRANCH  11  12
ATOM     12  C   UNL     1       2.832   5.786  18.783  0.00  0.00    +0.000 C 
BRANCH  12  13
ATOM     13  N   UNL     1       2.081   4.634  18.262  0.00  0.00    +0.000 NA
ATOM     14  H   UNL     1       2.422   4.448  17.287  0.00  0.00    +0.000 HD
BRANCH  13  15
ATOM     15  CA  UNL     1       2.276   3.397  19.047  0.00  0.00    +0.000 C 
BRANCH  15  16
ATOM     16  C   UNL     1       1.048   3.057  19.938  0.00  0.00    +0.000 C 
ATOM     17  C   UNL     1       1.392   2.846  21.414  0.00  0.00    +0.000 C 
ENDBRANCH  15  16
BRANCH  15  18
ATOM     18  C   UNL     1       2.609   2.240  18.077  0.00  0.00    +0.000 C 
BRANCH  18  19
ATOM     19  O   UNL     1       3.971   2.222  17.753  0.00  0.00    +0.000 OA
ATOM     20  H   UNL     1       4.367   1.452  18.238  0.00  0.00    +0.000 HD
ENDBRANCH  18  19
ENDBRANCH  15  18
ENDBRANCH  13  15
ENDBRANCH  12  13
ENDBRANCH  11  12
ENDBRANCH   1  11
TORSDOF 12
ENDMDL
MODEL 4
REMARK VINA RESULT:      -5.1      1.958      5.557
REMARK  Name = 
REMARK  14 active torsions:
REMARK  status: ('A' for Active; 'I' for Inactive)
REMARK    1  A    between atoms: C_2  and  C_3
REMARK    2  A    between atoms: C_3  and  C_4
REMARK    3  A    between atoms: C_4  and  C_5
REMARK    4  A    between atoms: C_4  and  C_6
REMARK    5  A    between atoms: C_4  and  N_8
REMARK    6  A    between atoms: C_6  and  O_7
REMARK    7  A    between atoms: N_8  and  C_9
REMARK    8  A    between atoms: C_9  and  C_10
REMARK    9  A    between atoms: C_10  and  N_11
REMARK   10  A    between atoms: N_11  and  CA_12
REMARK   11  A    between atoms: CA_12  and  C_13
REMARK   12  A    between atoms: CA_12  and  C_15
REMARK   13  A    between atoms: C_13  and  C_14
REMARK   14  A    between atoms: C_15  and  O_16
REMARK                            x       y       z     vdW  Elec       q    Type
REMARK                         _______ _______ _______ _____ _____    ______ ____
ROOT
ATOM      1  N   UNL     1       4.452   5.141  17.258  0.00  0.00    +0.000 NA
ATOM      2  H   UNL     1       3.891   5.932  16.862  0.00  0.00    +0.000 HD
ENDROOT
BRANCH   1   3
ATOM      3  C   UNL     1       5.902   5.449  17.125  0.00  0.00    +0.000 C 
ATOM      4  C   UNL     1       6.391   4.901  15.762  0.00  0.00    +0.000 C 
BRANCH   3   5
ATOM      5  C   UNL     1       6.158   6.987  17.170  0.00  0.00    +0.000 C 
BRANCH   5   7
ATOM      6  C   UNL     1       7.971   8.548  17.817  0.00  0.00    +0.000 C 
ATOM      7  C   UNL     1       7.613   7.341  17.375  0.00  0.00    +0.000 C 
ENDBRANCH   5   7
ENDBRANCH   3   5
BRANCH   3   8
ATOM      8  C   UNL     1       6.738   4.764  18.246  0.00  0.00    +0.000 C 
BRANCH   8   9
ATOM      9  O   UNL     1       6.008   4.667  19.444  0.00  0.00    +0.000 OA
ATOM     10  H   UNL     1       5.407   5.455  19.487  0.00  0.00    +0.000 HD
ENDBRANCH   8   9
ENDBRANCH   3   8
ENDBRANCH   1   3
BRANCH   1  11
ATOM     11  C   UNL     1       4.011   3.880  16.637  0.00  0.00    +0.000 C 
BRANCH  11  12
ATOM     12  C   UNL     1       3.072   3.129  17.580  0.00  0.00    +0.000 C 
BRANCH  12  13
ATOM     13  N   UNL     1       3.154   3.709  18.929  0.00  0.00    +0.000 NA
ATOM     14  H   UNL     1       3.852   4.490  18.897  0.00  0.00    +0.000 HD
BRANCH  13  15
ATOM     15  CA  UNL     1       1.874   4.273  19.409  0.00  0.00    +0.000 C 
BRANCH  15  16
ATOM     16  C   UNL     1       1.043   3.249  20.234  0.00  0.00    +0.000 C 
ATOM     17  C   UNL     1       1.714   2.813  21.539  0.00  0.00    +0.000 C 
ENDBRANCH  15  16
BRANCH  15  18
ATOM     18  C   UNL     1       2.170   5.551  20.226  0.00  0.00    +0.000 C 
BRANCH  18  19
ATOM     19  O   UNL     1       3.440   6.062  19.931  0.00  0.00    +0.000 OA
ATOM     20  H   UNL     1       3.724   5.640  19.079  0.00  0.00    +0.000 HD
ENDBRANCH  18  19
ENDBRANCH  15  18
ENDBRANCH  13  15
ENDBRANCH  12  13
ENDBRANCH  11  12
ENDBRANCH   1  11
TORSDOF 12
ENDMDL
MODEL 5
REMARK VINA RESULT:      -5.1      1.969      2.508
REMARK  Name = 
REMARK  14 active torsions:
REMARK  status: ('A' for Active; 'I' for Inactive)
REMARK    1  A    between atoms: C_2  and  C_3
REMARK    2  A    between atoms: C_3  and  C_4
REMARK    3  A    between atoms: C_4  and  C_5
REMARK    4  A    between atoms: C_4  and  C_6
REMARK    5  A    between atoms: C_4  and  N_8
REMARK    6  A    between atoms: C_6  and  O_7
REMARK    7  A    between atoms: N_8  and  C_9
REMARK    8  A    between atoms: C_9  and  C_10
REMARK    9  A    between atoms: C_10  and  N_11
REMARK   10  A    between atoms: N_11  and  CA_12
REMARK   11  A    between atoms: CA_12  and  C_13
REMARK   12  A    between atoms: CA_12  and  C_15
REMARK   13  A    between atoms: C_13  and  C_14
REMARK   14  A    between atoms: C_15  and  O_16
REMARK                            x       y       z     vdW  Elec       q    Type
REMARK                         _______ _______ _______ _____ _____    ______ ____
ROOT
ATOM      1  N   UNL     1       5.293   3.737  18.133  0.00  0.00    +0.000 NA
ATOM      2  H   UNL     1       6.037   3.006  18.229  0.00  0.00    +0.000 HD
ENDROOT
BRANCH   1   3
ATOM      3  C   UNL     1       4.045   3.261  18.790  0.00  0.00    +0.000 C 
ATOM      4  C   UNL     1       3.594   4.336  19.810  0.00  0.00    +0.000 C 
BRANCH   3   5
ATOM      5  C   UNL     1       2.905   3.047  17.748  0.00  0.00    +0.000 C 
BRANCH   5   7
ATOM      6  C   UNL     1       0.707   2.396  18.690  0.00  0.00    +0.000 C 
ATOM      7  C   UNL     1       1.533   3.366  18.294  0.00  0.00    +0.000 C 
ENDBRANCH   5   7
ENDBRANCH   3   5
BRANCH   3   8
ATOM      8  C   UNL     1       4.278   1.932  19.565  0.00  0.00    +0.000 C 
BRANCH   8   9
ATOM      9  O   UNL     1       4.375   0.836  18.688  0.00  0.00    +0.000 OA
ATOM     10  H   UNL     1       3.831   1.052  17.887  0.00  0.00    +0.000 HD
ENDBRANCH   8   9
ENDBRANCH   3   8
ENDBRANCH   1   3
BRANCH   1  11
ATOM     11  C   UNL     1       5.161   4.106  16.714  0.00  0.00    +0.000 C 
BRANCH  11  12
ATOM     12  C   UNL     1       5.311   5.617  16.546  0.00  0.00    +0.000 C 
BRANCH  12  13
ATOM     13  N   UNL     1       5.847   6.204  17.784  0.00  0.00    +0.000 NA
ATOM     14  H   UNL     1       5.676   5.519  18.559  0.00  0.00    +0.000 HD
BRANCH  13  15
ATOM     15  CA  UNL     1       7.300   6.468  17.733  0.00  0.00    +0.000 C 
BRANCH  15  16
ATOM     16  C   UNL     1       7.625   7.964  17.453  0.00  0.00    +0.000 C 
ATOM     17  C   UNL     1       8.569   8.595  18.479  0.00  0.00    +0.000 C 
ENDBRANCH  15  16
BRANCH  15  18
ATOM     18  C   UNL     1       7.939   5.987  19.055  0.00  0.00    +0.000 C 
BRANCH  18  19
ATOM     19  O   UNL     1       6.976   5.463  19.926  0.00  0.00    +0.000 OA
ATOM     20  H   UNL     1       7.424   4.747  20.446  0.00  0.00    +0.000 HD
ENDBRANCH  18  19
ENDBRANCH  15  18
ENDBRANCH  13  15
ENDBRANCH  12  13
ENDBRANCH  11  12
ENDBRANCH   1  11
TORSDOF 12
ENDMDL
MODEL 6
REMARK VINA RESULT:      -5.0      1.802      5.478
REMARK  Name = 
REMARK  14 active torsions:
REMARK  status: ('A' for Active; 'I' for Inactive)
REMARK    1  A    between atoms: C_2  and  C_3
REMARK    2  A    between atoms: C_3  and  C_4
REMARK    3  A    between atoms: C_4  and  C_5
REMARK    4  A    between atoms: C_4  and  C_6
REMARK    5  A    between atoms: C_4  and  N_8
REMARK    6  A    between atoms: C_6  and  O_7
REMARK    7  A    between atoms: N_8  and  C_9
REMARK    8  A    between atoms: C_9  and  C_10
REMARK    9  A    between atoms: C_10  and  N_11
REMARK   10  A    between atoms: N_11  and  CA_12
REMARK   11  A    between atoms: CA_12  and  C_13
REMARK   12  A    between atoms: CA_12  and  C_15
REMARK   13  A    between atoms: C_13  and  C_14
REMARK   14  A    between atoms: C_15  and  O_16
REMARK                            x       y       z     vdW  Elec       q    Type
REMARK                         _______ _______ _______ _____ _____    ______ ____
ROOT
ATOM      1  N   UNL     1       4.872   4.921  17.680  0.00  0.00    +0.000 NA
ATOM      2  H   UNL     1       5.178   3.943  17.899  0.00  0.00    +0.000 HD
ENDROOT
BRANCH   1   3
ATOM      3  C   UNL     1       5.925   5.598  16.877  0.00  0.00    +0.000 C 
ATOM      4  C   UNL     1       5.457   5.642  15.402  0.00  0.00    +0.000 C 
BRANCH   3   5
ATOM      5  C   UNL     1       6.161   7.058  17.373  0.00  0.00    +0.000 C 
BRANCH   5   7
ATOM      6  C   UNL     1       8.015   8.651  17.784  0.00  0.00    +0.000 C 
ATOM      7  C   UNL     1       7.623   7.398  17.546  0.00  0.00    +0.000 C 
ENDBRANCH   5   7
ENDBRANCH   3   5
BRANCH   3   8
ATOM      8  C   UNL     1       7.274   4.823  16.930  0.00  0.00    +0.000 C 
BRANCH   8   9
ATOM      9  O   UNL     1       7.404   4.100  18.129  0.00  0.00    +0.000 OA
ATOM     10  H   UNL     1       7.663   4.748  18.835  0.00  0.00    +0.000 HD
ENDBRANCH   8   9
ENDBRANCH   3   8
ENDBRANCH   1   3
BRANCH   1  11
ATOM     11  C   UNL     1       4.494   5.598  18.932  0.00  0.00    +0.000 C 
BRANCH  11  12
ATOM     12  C   UNL     1       3.061   6.121  18.837  0.00  0.00    +0.000 C 
BRANCH  12  13
ATOM     13  N   UNL     1       2.196   5.370  19.759  0.00  0.00    +0.000 NA
ATOM     14  H   UNL     1       1.273   5.866  19.803  0.00  0.00    +0.000 HD
BRANCH  13  15
ATOM     15  CA  UNL     1       1.937   3.980  19.329  0.00  0.00    +0.000 C 
BRANCH  15  16
ATOM     16  C   UNL     1       0.961   3.232  20.282  0.00  0.00    +0.000 C 
ATOM     17  C   UNL     1       1.606   2.766  21.589  0.00  0.00    +0.000 C 
ENDBRANCH  15  16
BRANCH  15  18
ATOM     18  C   UNL     1       1.407   4.000  17.877  0.00  0.00    +0.000 C 
BRANCH  18  19
ATOM     19  O   UNL     1       2.218   3.237  17.028  0.00  0.00    +0.000 OA
ATOM     20  H   UNL     1       1.975   3.493  16.100  0.00  0.00    +0.000 HD
ENDBRANCH  18  19
ENDBRANCH  15  18
ENDBRANCH  13  15
ENDBRANCH  12  13
ENDBRANCH  11  12
ENDBRANCH   1  11
TORSDOF 12
ENDMDL
MODEL 7
REMARK VINA RESULT:      -5.0      2.446      2.850
REMARK  Name = 
REMARK  14 active torsions:
REMARK  status: ('A' for Active; 'I' for Inactive)
REMARK    1  A    between atoms: C_2  and  C_3
REMARK    2  A    between atoms: C_3  and  C_4
REMARK    3  A    between atoms: C_4  and  C_5
REMARK    4  A    between atoms: C_4  and  C_6
REMARK    5  A    between atoms: C_4  and  N_8
REMARK    6  A    between atoms: C_6  and  O_7
REMARK    7  A    between atoms: N_8  and  C_9
REMARK    8  A    between atoms: C_9  and  C_10
REMARK    9  A    between atoms: C_10  and  N_11
REMARK   10  A    between atoms: N_11  and  CA_12
REMARK   11  A    between atoms: CA_12  and  C_13
REMARK   12  A    between atoms: CA_12  and  C_15
REMARK   13  A    between atoms: C_13  and  C_14
REMARK   14  A    between atoms: C_15  and  O_16
REMARK                            x       y       z     vdW  Elec       q    Type
REMARK                         _______ _______ _______ _____ _____    ______ ____
ROOT
ATOM      1  N   UNL     1       4.108   5.390  18.101  0.00  0.00    +0.000 NA
ATOM      2  H   UNL     1       4.711   5.159  18.927  0.00  0.00    +0.000 HD
ENDROOT
BRANCH   1   3
ATOM      3  C   UNL     1       2.704   5.587  18.556  0.00  0.00    +0.000 C 
ATOM      4  C   UNL     1       2.281   7.036  18.210  0.00  0.00    +0.000 C 
BRANCH   3   5
ATOM      5  C   UNL     1       1.736   4.596  17.839  0.00  0.00    +0.000 C 
BRANCH   5   7
ATOM      6  C   UNL     1       1.425   2.285  18.679  0.00  0.00    +0.000 C 
ATOM      7  C   UNL     1       1.124   3.581  18.777  0.00  0.00    +0.000 C 
ENDBRANCH   5   7
ENDBRANCH   3   5
BRANCH   3   8
ATOM      8  C   UNL     1       2.570   5.402  20.095  0.00  0.00    +0.000 C 
BRANCH   8   9
ATOM      9  O   UNL     1       2.035   6.550  20.706  0.00  0.00    +0.000 OA
ATOM     10  H   UNL     1       2.449   7.337  20.266  0.00  0.00    +0.000 HD
ENDBRANCH   8   9
ENDBRANCH   3   8
ENDBRANCH   1   3
BRANCH   1  11
ATOM     11  C   UNL     1       4.301   4.365  17.062  0.00  0.00    +0.000 C 
BRANCH  11  12
ATOM     12  C   UNL     1       5.788   4.198  16.757  0.00  0.00    +0.000 C 
BRANCH  12  13
ATOM     13  N   UNL     1       6.550   4.139  18.014  0.00  0.00    +0.000 NA
ATOM     14  H   UNL     1       7.020   3.202  18.056  0.00  0.00    +0.000 HD
BRANCH  13  15
ATOM     15  CA  UNL     1       7.602   5.172  18.118  0.00  0.00    +0.000 C 
BRANCH  15  16
ATOM     16  C   UNL     1       7.427   6.309  17.071  0.00  0.00    +0.000 C 
ATOM     17  C   UNL     1       7.673   7.711  17.632  0.00  0.00    +0.000 C 
ENDBRANCH  15  16
BRANCH  15  18
ATOM     18  C   UNL     1       7.612   5.726  19.560  0.00  0.00    +0.000 C 
BRANCH  18  19
ATOM     19  O   UNL     1       8.681   5.204  20.300  0.00  0.00    +0.000 OA
ATOM     20  H   UNL     1       8.557   5.515  21.234  0.00  0.00    +0.000 HD
ENDBRANCH  18  19
ENDBRANCH  15  18
ENDBRANCH  13  15
ENDBRANCH  12  13
ENDBRANCH  11  12
ENDBRANCH   1  11
TORSDOF 12
ENDMDL
MODEL 8
REMARK VINA RESULT:      -5.0      1.929      2.548
REMARK  Name = 
REMARK  14 active torsions:
REMARK  status: ('A' for Active; 'I' for Inactive)
REMARK    1  A    between atoms: C_2  and  C_3
REMARK    2  A    between atoms: C_3  and  C_4
REMARK    3  A    between atoms: C_4  and  C_5
REMARK    4  A    between atoms: C_4  and  C_6
REMARK    5  A    between atoms: C_4  and  N_8
REMARK    6  A    between atoms: C_6  and  O_7
REMARK    7  A    between atoms: N_8  and  C_9
REMARK    8  A    between atoms: C_9  and  C_10
REMARK    9  A    between atoms: C_10  and  N_11
REMARK   10  A    between atoms: N_11  and  CA_12
REMARK   11  A    between atoms: CA_12  and  C_13
REMARK   12  A    between atoms: CA_12  and  C_15
REMARK   13  A    between atoms: C_13  and  C_14
REMARK   14  A    between atoms: C_15  and  O_16
REMARK                            x       y       z     vdW  Elec       q    Type
REMARK                         _______ _______ _______ _____ _____    ______ ____
ROOT
ATOM      1  N   UNL     1       5.006   3.191  17.646  0.00  0.00    +0.000 NA
ATOM      2  H   UNL     1       5.101   2.172  17.420  0.00  0.00    +0.000 HD
ENDROOT
BRANCH   1   3
ATOM      3  C   UNL     1       3.788   3.400  18.475  0.00  0.00    +0.000 C 
ATOM      4  C   UNL     1       3.507   4.921  18.549  0.00  0.00    +0.000 C 
BRANCH   3   5
ATOM      5  C   UNL     1       2.549   2.690  17.846  0.00  0.00    +0.000 C 
BRANCH   5   7
ATOM      6  C   UNL     1       0.519   2.682  19.269  0.00  0.00    +0.000 C 
ATOM      7  C   UNL     1       1.233   3.272  18.308  0.00  0.00    +0.000 C 
ENDBRANCH   5   7
ENDBRANCH   3   5
BRANCH   3   8
ATOM      8  C   UNL     1       3.987   2.877  19.927  0.00  0.00    +0.000 C 
BRANCH   8   9
ATOM      9  O   UNL     1       5.033   1.940  19.997  0.00  0.00    +0.000 OA
ATOM     10  H   UNL     1       5.069   1.473  19.122  0.00  0.00    +0.000 HD
ENDBRANCH   8   9
ENDBRANCH   3   8
ENDBRANCH   1   3
BRANCH   1  11
ATOM     11  C   UNL     1       5.065   3.968  16.397  0.00  0.00    +0.000 C 
BRANCH  11  12
ATOM     12  C   UNL     1       6.498   4.426  16.128  0.00  0.00    +0.000 C 
BRANCH  12  13
ATOM     13  N   UNL     1       7.316   4.233  17.336  0.00  0.00    +0.000 NA
ATOM     14  H   UNL     1       8.202   3.754  17.045  0.00  0.00    +0.000 HD
BRANCH  13  15
ATOM     15  CA  UNL     1       7.689   5.497  18.005  0.00  0.00    +0.000 C 
BRANCH  15  16
ATOM     16  C   UNL     1       7.376   6.748  17.136  0.00  0.00    +0.000 C 
ATOM     17  C   UNL     1       6.048   7.426  17.479  0.00  0.00    +0.000 C 
ENDBRANCH  15  16
BRANCH  15  18
ATOM     18  C   UNL     1       6.972   5.564  19.373  0.00  0.00    +0.000 C 
BRANCH  18  19
ATOM     19  O   UNL     1       7.882   5.455  20.432  0.00  0.00    +0.000 OA
ATOM     20  H   UNL     1       8.521   4.737  20.183  0.00  0.00    +0.000 HD
ENDBRANCH  18  19
ENDBRANCH  15  18
ENDBRANCH  13  15
ENDBRANCH  12  13
ENDBRANCH  11  12
ENDBRANCH   1  11
TORSDOF 12
ENDMDL
MODEL 9
REMARK VINA RESULT:      -5.0      1.957      3.234
REMARK  Name = 
REMARK  14 active torsions:
REMARK  status: ('A' for Active; 'I' for Inactive)
REMARK    1  A    between atoms: C_2  and  C_3
REMARK    2  A    between atoms: C_3  and  C_4
REMARK    3  A    between atoms: C_4  and  C_5
REMARK    4  A    between atoms: C_4  and  C_6
REMARK    5  A    between atoms: C_4  and  N_8
REMARK    6  A    between atoms: C_6  and  O_7
REMARK    7  A    between atoms: N_8  and  C_9
REMARK    8  A    between atoms: C_9  and  C_10
REMARK    9  A    between atoms: C_10  and  N_11
REMARK   10  A    between atoms: N_11  and  CA_12
REMARK   11  A    between atoms: CA_12  and  C_13
REMARK   12  A    between atoms: CA_12  and  C_15
REMARK   13  A    between atoms: C_13  and  C_14
REMARK   14  A    between atoms: C_15  and  O_16
REMARK                            x       y       z     vdW  Elec       q    Type
REMARK                         _______ _______ _______ _____ _____    ______ ____
ROOT
ATOM      1  N   UNL     1       3.346   3.641  20.082  0.00  0.00    +0.000 NA
ATOM      2  H   UNL     1       3.240   2.999  20.903  0.00  0.00    +0.000 HD
ENDROOT
BRANCH   1   3
ATOM      3  C   UNL     1       2.082   3.650  19.297  0.00  0.00    +0.000 C 
ATOM      4  C   UNL     1       0.950   4.187  20.207  0.00  0.00    +0.000 C 
BRANCH   3   5
ATOM      5  C   UNL     1       2.202   4.574  18.046  0.00  0.00    +0.000 C 
BRANCH   5   7
ATOM      6  C   UNL     1       3.159   6.859  17.973  0.00  0.00    +0.000 C 
ATOM      7  C   UNL     1       2.187   6.046  18.390  0.00  0.00    +0.000 C 
ENDBRANCH   5   7
ENDBRANCH   3   5
BRANCH   3   8
ATOM      8  C   UNL     1       1.687   2.219  18.832  0.00  0.00    +0.000 C 
BRANCH   8   9
ATOM      9  O   UNL     1       2.028   2.003  17.485  0.00  0.00    +0.000 OA
ATOM     10  H   UNL     1       2.179   1.029  17.373  0.00  0.00    +0.000 HD
ENDBRANCH   8   9
ENDBRANCH   3   8
ENDBRANCH   1   3
BRANCH   1  11
ATOM     11  C   UNL     1       4.557   3.267  19.332  0.00  0.00    +0.000 C 
BRANCH  11  12
ATOM     12  C   UNL     1       5.478   4.477  19.181  0.00  0.00    +0.000 C 
BRANCH  12  13
ATOM     13  N   UNL     1       6.702   4.083  18.466  0.00  0.00    +0.000 NA
ATOM     14  H   UNL     1       6.595   3.079  18.183  0.00  0.00    +0.000 HD
BRANCH  13  15
ATOM     15  CA  UNL     1       6.951   4.870  17.240  0.00  0.00    +0.000 C 
BRANCH  15  16
ATOM     16  C   UNL     1       5.770   4.794  16.232  0.00  0.00    +0.000 C 
ATOM     17  C   UNL     1       6.139   4.157  14.890  0.00  0.00    +0.000 C 
ENDBRANCH  15  16
BRANCH  15  18
ATOM     18  C   UNL     1       7.260   6.330  17.642  0.00  0.00    +0.000 C 
BRANCH  18  19
ATOM     19  O   UNL     1       7.716   7.075  16.547  0.00  0.00    +0.000 OA
ATOM     20  H   UNL     1       7.509   6.541  15.736  0.00  0.00    +0.000 HD
ENDBRANCH  18  19
ENDBRANCH  15  18
ENDBRANCH  13  15
ENDBRANCH  12  13
ENDBRANCH  11  12
ENDBRANCH   1  11
TORSDOF 12
ENDMDL
