MODEL 1
REMARK VINA RESULT:      -7.3      0.000      0.000
REMARK  Name = 
REMARK  5 active torsions:
REMARK  status: ('A' for Active; 'I' for Inactive)
REMARK    1  A    between atoms: C_1  and  O_2
REMARK    2  A    between atoms: O_2  and  C_3
REMARK    3  A    between atoms: C_6  and  C_7
REMARK    4  A    between atoms: C_7  and  S_8
REMARK    5  A    between atoms: S_8  and  C_9
REMARK                            x       y       z     vdW  Elec       q    Type
REMARK                         _______ _______ _______ _____ _____    ______ ____
ROOT
ATOM      1  C   UNL     1       2.210   4.748  18.853  0.00  0.00    +0.000 C 
ATOM      2  C   UNL     1       1.226   4.074  19.817  0.00  0.00    +0.000 C 
ATOM      3  C   UNL     1       0.494   2.909  19.152  0.00  0.00    +0.000 C 
ATOM      4  C   UNL     1       1.431   1.904  18.501  0.00  0.00    +0.000 C 
ATOM      5  C   UNL     1       2.457   2.561  17.575  0.00  0.00    +0.000 C 
ATOM      6  C   UNL     1       3.211   3.746  18.215  0.00  0.00    +0.000 C 
ATOM      7  N   UNL     1       3.993   4.400  17.152  0.00  0.00    +0.000 N 
ATOM      8  C   UNL     1       5.348   4.248  17.302  0.00  0.00    +0.000 C 
ATOM      9  S   UNL     1       6.487   4.847  16.276  0.00  0.00    +0.000 S 
ATOM     10  N   UNL     1       5.584   3.544  18.428  0.00  0.00    +0.000 N 
ATOM     11  C   UNL     1       4.416   3.266  19.074  0.00  0.00    +0.000 C 
ATOM     12  S   UNL     1       4.408   2.459  20.529  0.00  0.00    +0.000 S 
ATOM     13  H   UNL     1       3.604   4.939  16.387  0.00  0.00    +0.000 HD
ATOM     14  H   UNL     1       6.505   3.327  18.783  0.00  0.00    +0.000 HD
ENDROOT
BRANCH   1  15
ATOM     15  S   UNL     1       3.008   6.212  19.645  0.00  0.00    +0.000 S 
BRANCH  15  16
ATOM     16  C   UNL     1       2.611   7.490  18.400  0.00  0.00    +0.000 C 
BRANCH  16  20
ATOM     17  C   UNL     1      -0.167  10.451  19.912  0.00  0.00    +0.000 A 
ATOM     18  C   UNL     1       0.174  10.425  18.559  0.00  0.00    +0.000 A 
ATOM     19  C   UNL     1       1.062   9.467  18.065  0.00  0.00    +0.000 A 
ATOM     20  C   UNL     1       1.650   8.530  18.925  0.00  0.00    +0.000 A 
ATOM     21  C   UNL     1       1.311   8.566  20.285  0.00  0.00    +0.000 A 
ATOM     22  C   UNL     1       0.407   9.519  20.776  0.00  0.00    +0.000 A 
BRANCH  17  24
ATOM     23  C   UNL     1      -1.925  11.904  19.270  0.00  0.00    +0.000 C 
ATOM     24  O   UNL     1      -1.030  11.448  20.275  0.00  0.00    +0.000 OA
ENDBRANCH  17  24
ENDBRANCH  16  20
ENDBRANCH  15  16
ENDBRANCH   1  15
TORSDOF 4
ENDMDL
MODEL 2
REMARK VINA RESULT:      -7.3      1.152      1.673
REMARK  Name = 
REMARK  5 active torsions:
REMARK  status: ('A' for Active; 'I' for Inactive)
REMARK    1  A    between atoms: C_1  and  O_2
REMARK    2  A    between atoms: O_2  and  C_3
REMARK    3  A    between atoms: C_6  and  C_7
REMARK    4  A    between atoms: C_7  and  S_8
REMARK    5  A    between atoms: S_8  and  C_9
REMARK                            x       y       z     vdW  Elec       q    Type
REMARK                         _______ _______ _______ _____ _____    ______ ____
ROOT
ATOM      1  C   UNL     1       2.235   4.795  18.910  0.00  0.00    +0.000 C 
ATOM      2  C   UNL     1       1.217   4.076  19.803  0.00  0.00    +0.000 C 
ATOM      3  C   UNL     1       0.524   2.935  19.061  0.00  0.00    +0.000 C 
ATOM      4  C   UNL     1       1.496   1.963  18.410  0.00  0.00    +0.000 C 
ATOM      5  C   UNL     1       2.555   2.664  17.556  0.00  0.00    +0.000 C 
ATOM      6  C   UNL     1       3.270   3.827  18.275  0.00  0.00    +0.000 C 
ATOM      7  N   UNL     1       4.091   4.529  17.274  0.00  0.00    +0.000 N 
ATOM      8  C   UNL     1       5.440   4.381  17.476  0.00  0.00    +0.000 C 
ATOM      9  S   UNL     1       6.617   5.028  16.524  0.00  0.00    +0.000 S 
ATOM     10  N   UNL     1       5.634   3.634  18.581  0.00  0.00    +0.000 N 
ATOM     11  C   UNL     1       4.442   3.321  19.166  0.00  0.00    +0.000 C 
ATOM     12  S   UNL     1       4.380   2.456  20.585  0.00  0.00    +0.000 S 
ATOM     13  H   UNL     1       3.730   5.096  16.515  0.00  0.00    +0.000 HD
ATOM     14  H   UNL     1       6.541   3.408  18.967  0.00  0.00    +0.000 HD
ENDROOT
BRANCH   1  15
ATOM     15  S   UNL     1       2.986   6.232  19.793  0.00  0.00    +0.000 S 
BRANCH  15  16
ATOM     16  C   UNL     1       2.050   7.596  19.016  0.00  0.00    +0.000 C 
BRANCH  16  20
ATOM     17  C   UNL     1       0.384  10.346  21.920  0.00  0.00    +0.000 A 
ATOM     18  C   UNL     1       0.926   9.127  22.328  0.00  0.00    +0.000 A 
ATOM     19  C   UNL     1       1.473   8.240  21.398  0.00  0.00    +0.000 A 
ATOM     20  C   UNL     1       1.461   8.546  20.030  0.00  0.00    +0.000 A 
ATOM     21  C   UNL     1       0.907   9.769  19.624  0.00  0.00    +0.000 A 
ATOM     22  C   UNL     1       0.373  10.664  20.562  0.00  0.00    +0.000 A 
BRANCH  17  24
ATOM     23  C   UNL     1      -1.554  11.210  22.975  0.00  0.00    +0.000 C 
ATOM     24  O   UNL     1      -0.136  11.115  22.923  0.00  0.00    +0.000 OA
ENDBRANCH  17  24
ENDBRANCH  16  20
ENDBRANCH  15  16
ENDBRANCH   1  15
TORSDOF 4
ENDMDL
MODEL 3
REMARK VINA RESULT:      -7.2      0.916      1.115
REMARK  Name = 
REMARK  5 active torsions:
REMARK  status: ('A' for Active; 'I' for Inactive)
REMARK    1  A    between atoms: C_1  and  O_2
REMARK    2  A    between atoms: O_2  and  C_3
REMARK    3  A    between atoms: C_6  and  C_7
REMARK    4  A    between atoms: C_7  and  S_8
REMARK    5  A    between atoms: S_8  and  C_9
REMARK                            x       y       z     vdW  Elec       q    Type
REMARK                         _______ _______ _______ _____ _____    ______ ____
ROOT
ATOM      1  C   UNL     1       2.277   4.767  18.821  0.00  0.00    +0.000 C 
ATOM      2  C   UNL     1       1.290   4.088  19.779  0.00  0.00    +0.000 C 
ATOM      3  C   UNL     1       0.558   2.929  19.105  0.00  0.00    +0.000 C 
ATOM      4  C   UNL     1       1.494   1.927  18.447  0.00  0.00    +0.000 C 
ATOM      5  C   UNL     1       2.522   2.590  17.528  0.00  0.00    +0.000 C 
ATOM      6  C   UNL     1       3.276   3.769  18.177  0.00  0.00    +0.000 C 
ATOM      7  N   UNL     1       4.061   4.430  17.120  0.00  0.00    +0.000 N 
ATOM      8  C   UNL     1       5.415   4.275  17.271  0.00  0.00    +0.000 C 
ATOM      9  S   UNL     1       6.557   4.879  16.251  0.00  0.00    +0.000 S 
ATOM     10  N   UNL     1       5.649   3.563  18.392  0.00  0.00    +0.000 N 
ATOM     11  C   UNL     1       4.480   3.281  19.035  0.00  0.00    +0.000 C 
ATOM     12  S   UNL     1       4.469   2.464  20.484  0.00  0.00    +0.000 S 
ATOM     13  H   UNL     1       3.673   4.974  16.358  0.00  0.00    +0.000 HD
ATOM     14  H   UNL     1       6.570   3.342  18.747  0.00  0.00    +0.000 HD
ENDROOT
BRANCH   1  15
ATOM     15  S   UNL     1       3.075   6.225  19.624  0.00  0.00    +0.000 S 
BRANCH  15  16
ATOM     16  C   UNL     1       2.266   7.573  18.691  0.00  0.00    +0.000 C 
BRANCH  16  20
ATOM     17  C   UNL     1       0.204  10.371  21.276  0.00  0.00    +0.000 A 
ATOM     18  C   UNL     1       0.477  10.702  19.948  0.00  0.00    +0.000 A 
ATOM     19  C   UNL     1       1.134   9.801  19.108  0.00  0.00    +0.000 A 
ATOM     20  C   UNL     1       1.557   8.555  19.591  0.00  0.00    +0.000 A 
ATOM     21  C   UNL     1       1.287   8.231  20.929  0.00  0.00    +0.000 A 
ATOM     22  C   UNL     1       0.614   9.132  21.766  0.00  0.00    +0.000 A 
BRANCH  17  24
ATOM     23  C   UNL     1      -1.204  10.907  23.105  0.00  0.00    +0.000 C 
ATOM     24  O   UNL     1      -0.425  11.346  22.000  0.00  0.00    +0.000 OA
ENDBRANCH  17  24
ENDBRANCH  16  20
ENDBRANCH  15  16
ENDBRANCH   1  15
TORSDOF 4
ENDMDL
MODEL 4
REMARK VINA RESULT:      -7.2      0.556      1.204
REMARK  Name = 
REMARK  5 active torsions:
REMARK  status: ('A' for Active; 'I' for Inactive)
REMARK    1  A    between atoms: C_1  and  O_2
REMARK    2  A    between atoms: O_2  and  C_3
REMARK    3  A    between atoms: C_6  and  C_7
REMARK    4  A    between atoms: C_7  and  S_8
REMARK    5  A    between atoms: S_8  and  C_9
REMARK                            x       y       z     vdW  Elec       q    Type
REMARK                         _______ _______ _______ _____ _____    ______ ____
ROOT
ATOM      1  C   UNL     1       2.196   4.666  18.858  0.00  0.00    +0.000 C 
ATOM      2  C   UNL     1       1.209   3.966  19.801  0.00  0.00    +0.000 C 
ATOM      3  C   UNL     1       0.515   2.789  19.118  0.00  0.00    +0.000 C 
ATOM      4  C   UNL     1       1.485   1.808  18.480  0.00  0.00    +0.000 C 
ATOM      5  C   UNL     1       2.513   2.491  17.575  0.00  0.00    +0.000 C 
ATOM      6  C   UNL     1       3.229   3.689  18.234  0.00  0.00    +0.000 C 
ATOM      7  N   UNL     1       4.016   4.365  17.188  0.00  0.00    +0.000 N 
ATOM      8  C   UNL     1       5.371   4.242  17.363  0.00  0.00    +0.000 C 
ATOM      9  S   UNL     1       6.516   4.869  16.360  0.00  0.00    +0.000 S 
ATOM     10  N   UNL     1       5.602   3.538  18.490  0.00  0.00    +0.000 N 
ATOM     11  C   UNL     1       4.429   3.232  19.113  0.00  0.00    +0.000 C 
ATOM     12  S   UNL     1       4.412   2.419  20.565  0.00  0.00    +0.000 S 
ATOM     13  H   UNL     1       3.629   4.898  16.418  0.00  0.00    +0.000 HD
ATOM     14  H   UNL     1       6.521   3.339  18.861  0.00  0.00    +0.000 HD
ENDROOT
BRANCH   1  15
ATOM     15  S   UNL     1       2.946   6.144  19.669  0.00  0.00    +0.000 S 
BRANCH  15  16
ATOM     16  C   UNL     1       2.546   7.418  18.422  0.00  0.00    +0.000 C 
BRANCH  16  20
ATOM     17  C   UNL     1       0.040  10.581  19.996  0.00  0.00    +0.000 A 
ATOM     18  C   UNL     1       0.567   9.607  20.844  0.00  0.00    +0.000 A 
ATOM     19  C   UNL     1       1.383   8.589  20.344  0.00  0.00    +0.000 A 
ATOM     20  C   UNL     1       1.665   8.512  18.973  0.00  0.00    +0.000 A 
ATOM     21  C   UNL     1       1.125   9.489  18.124  0.00  0.00    +0.000 A 
ATOM     22  C   UNL     1       0.319  10.518  18.631  0.00  0.00    +0.000 A 
BRANCH  17  24
ATOM     23  C   UNL     1      -0.100  12.479  21.409  0.00  0.00    +0.000 C 
ATOM     24  O   UNL     1      -0.759  11.510  20.603  0.00  0.00    +0.000 OA
ENDBRANCH  17  24
ENDBRANCH  16  20
ENDBRANCH  15  16
ENDBRANCH   1  15
TORSDOF 4
ENDMDL
MODEL 5
REMARK VINA RESULT:      -6.8      0.863      1.383
REMARK  Name = 
REMARK  5 active torsions:
REMARK  status: ('A' for Active; 'I' for Inactive)
REMARK    1  A    between atoms: C_1  and  O_2
REMARK    2  A    between atoms: O_2  and  C_3
REMARK    3  A    between atoms: C_6  and  C_7
REMARK    4  A    between atoms: C_7  and  S_8
REMARK    5  A    between atoms: S_8  and  C_9
REMARK                            x       y       z     vdW  Elec       q    Type
REMARK                         _______ _______ _______ _____ _____    ______ ____
ROOT
ATOM      1  C   UNL     1       2.179   4.774  18.949  0.00  0.00    +0.000 C 
ATOM      2  C   UNL     1       1.307   4.095  20.012  0.00  0.00    +0.000 C 
ATOM      3  C   UNL     1       0.480   2.956  19.419  0.00  0.00    +0.000 C 
ATOM      4  C   UNL     1       1.313   1.951  18.640  0.00  0.00    +0.000 C 
ATOM      5  C   UNL     1       2.231   2.611  17.609  0.00  0.00    +0.000 C 
ATOM      6  C   UNL     1       3.077   3.771  18.174  0.00  0.00    +0.000 C 
ATOM      7  N   UNL     1       3.736   4.436  17.037  0.00  0.00    +0.000 N 
ATOM      8  C   UNL     1       5.096   4.260  17.019  0.00  0.00    +0.000 C 
ATOM      9  S   UNL     1       6.113   4.863  15.873  0.00  0.00    +0.000 S 
ATOM     10  N   UNL     1       5.455   3.530  18.094  0.00  0.00    +0.000 N 
ATOM     11  C   UNL     1       4.369   3.255  18.872  0.00  0.00    +0.000 C 
ATOM     12  S   UNL     1       4.524   2.418  20.301  0.00  0.00    +0.000 S 
ATOM     13  H   UNL     1       3.266   4.996  16.335  0.00  0.00    +0.000 HD
ATOM     14  H   UNL     1       6.408   3.291  18.330  0.00  0.00    +0.000 HD
ENDROOT
BRANCH   1  15
ATOM     15  S   UNL     1       3.092   6.210  19.665  0.00  0.00    +0.000 S 
BRANCH  15  16
ATOM     16  C   UNL     1       1.722   7.040  20.544  0.00  0.00    +0.000 C 
BRANCH  16  20
ATOM     17  C   UNL     1       0.930  11.000  18.976  0.00  0.00    +0.000 A 
ATOM     18  C   UNL     1       0.572  10.672  20.284  0.00  0.00    +0.000 A 
ATOM     19  C   UNL     1       0.833   9.399  20.798  0.00  0.00    +0.000 A 
ATOM     20  C   UNL     1       1.434   8.418  19.999  0.00  0.00    +0.000 A 
ATOM     21  C   UNL     1       1.783   8.750  18.681  0.00  0.00    +0.000 A 
ATOM     22  C   UNL     1       1.534  10.033  18.173  0.00  0.00    +0.000 A 
BRANCH  17  24
ATOM     23  C   UNL     1      -0.298  12.976  19.428  0.00  0.00    +0.000 C 
ATOM     24  O   UNL     1       0.603  12.269  18.586  0.00  0.00    +0.000 OA
ENDBRANCH  17  24
ENDBRANCH  16  20
ENDBRANCH  15  16
ENDBRANCH   1  15
TORSDOF 4
ENDMDL
MODEL 6
REMARK VINA RESULT:      -6.8      1.141      1.596
REMARK  Name = 
REMARK  5 active torsions:
REMARK  status: ('A' for Active; 'I' for Inactive)
REMARK    1  A    between atoms: C_1  and  O_2
REMARK    2  A    between atoms: O_2  and  C_3
REMARK    3  A    between atoms: C_6  and  C_7
REMARK    4  A    between atoms: C_7  and  S_8
REMARK    5  A    between atoms: S_8  and  C_9
REMARK                            x       y       z     vdW  Elec       q    Type
REMARK                         _______ _______ _______ _____ _____    ______ ____
ROOT
ATOM      1  C   UNL     1       2.237   4.683  17.875  0.00  0.00    +0.000 C 
ATOM      2  C   UNL     1       1.361   4.278  19.067  0.00  0.00    +0.000 C 
ATOM      3  C   UNL     1       0.789   2.872  18.895  0.00  0.00    +0.000 C 
ATOM      4  C   UNL     1       1.849   1.826  18.587  0.00  0.00    +0.000 C 
ATOM      5  C   UNL     1       2.769   2.234  17.434  0.00  0.00    +0.000 C 
ATOM      6  C   UNL     1       3.359   3.653  17.574  0.00  0.00    +0.000 C 
ATOM      7  N   UNL     1       4.037   3.978  16.308  0.00  0.00    +0.000 N 
ATOM      8  C   UNL     1       5.401   4.060  16.427  0.00  0.00    +0.000 C 
ATOM      9  S   UNL     1       6.441   4.392  15.195  0.00  0.00    +0.000 S 
ATOM     10  N   UNL     1       5.740   3.837  17.713  0.00  0.00    +0.000 N 
ATOM     11  C   UNL     1       4.625   3.664  18.480  0.00  0.00    +0.000 C 
ATOM     12  S   UNL     1       4.739   3.432  20.123  0.00  0.00    +0.000 S 
ATOM     13  H   UNL     1       3.573   4.157  15.425  0.00  0.00    +0.000 HD
ATOM     14  H   UNL     1       6.685   3.877  18.071  0.00  0.00    +0.000 HD
ENDROOT
BRANCH   1  15
ATOM     15  S   UNL     1       2.834   6.420  18.056  0.00  0.00    +0.000 S 
BRANCH  15  16
ATOM     16  C   UNL     1       2.548   6.660  19.845  0.00  0.00    +0.000 C 
BRANCH  16  20
ATOM     17  C   UNL     1       0.083  10.123  20.682  0.00  0.00    +0.000 A 
ATOM     18  C   UNL     1       0.221   9.107  21.628  0.00  0.00    +0.000 A 
ATOM     19  C   UNL     1       1.021   7.992  21.367  0.00  0.00    +0.000 A 
ATOM     20  C   UNL     1       1.679   7.860  20.137  0.00  0.00    +0.000 A 
ATOM     21  C   UNL     1       1.530   8.880  19.186  0.00  0.00    +0.000 A 
ATOM     22  C   UNL     1       0.739  10.005  19.457  0.00  0.00    +0.000 A 
BRANCH  17  24
ATOM     23  C   UNL     1      -0.859  11.399  22.443  0.00  0.00    +0.000 C 
ATOM     24  O   UNL     1      -0.742  11.150  21.048  0.00  0.00    +0.000 OA
ENDBRANCH  17  24
ENDBRANCH  16  20
ENDBRANCH  15  16
ENDBRANCH   1  15
TORSDOF 4
ENDMDL
MODEL 7
REMARK VINA RESULT:      -6.8      1.965      3.985
REMARK  Name = 
REMARK  5 active torsions:
REMARK  status: ('A' for Active; 'I' for Inactive)
REMARK    1  A    between atoms: C_1  and  O_2
REMARK    2  A    between atoms: O_2  and  C_3
REMARK    3  A    between atoms: C_6  and  C_7
REMARK    4  A    between atoms: C_7  and  S_8
REMARK    5  A    between atoms: S_8  and  C_9
REMARK                            x       y       z     vdW  Elec       q    Type
REMARK                         _______ _______ _______ _____ _____    ______ ____
ROOT
ATOM      1  C   UNL     1       4.802   6.635  18.077  0.00  0.00    +0.000 C 
ATOM      2  C   UNL     1       5.717   7.304  17.045  0.00  0.00    +0.000 C 
ATOM      3  C   UNL     1       7.162   7.376  17.535  0.00  0.00    +0.000 C 
ATOM      4  C   UNL     1       7.708   6.033  17.994  0.00  0.00    +0.000 C 
ATOM      5  C   UNL     1       6.785   5.323  18.985  0.00  0.00    +0.000 C 
ATOM      6  C   UNL     1       5.315   5.238  18.522  0.00  0.00    +0.000 C 
ATOM      7  N   UNL     1       4.522   4.731  19.655  0.00  0.00    +0.000 N 
ATOM      8  C   UNL     1       4.022   3.470  19.447  0.00  0.00    +0.000 C 
ATOM      9  S   UNL     1       3.111   2.624  20.525  0.00  0.00    +0.000 S 
ATOM     10  N   UNL     1       4.389   3.054  18.218  0.00  0.00    +0.000 N 
ATOM     11  C   UNL     1       5.080   4.033  17.566  0.00  0.00    +0.000 C 
ATOM     12  S   UNL     1       5.606   3.819  16.002  0.00  0.00    +0.000 S 
ATOM     13  H   UNL     1       4.323   5.244  20.506  0.00  0.00    +0.000 HD
ATOM     14  H   UNL     1       4.117   2.171  17.809  0.00  0.00    +0.000 HD
ENDROOT
BRANCH   1  15
ATOM     15  S   UNL     1       3.046   6.650  17.508  0.00  0.00    +0.000 S 
BRANCH  15  16
ATOM     16  C   UNL     1       2.639   8.405  17.811  0.00  0.00    +0.000 C 
BRANCH  16  20
ATOM     17  C   UNL     1       0.170   8.984  21.324  0.00  0.00    +0.000 A 
ATOM     18  C   UNL     1       1.076   7.925  21.261  0.00  0.00    +0.000 A 
ATOM     19  C   UNL     1       1.881   7.738  20.135  0.00  0.00    +0.000 A 
ATOM     20  C   UNL     1       1.773   8.597  19.033  0.00  0.00    +0.000 A 
ATOM     21  C   UNL     1       0.854   9.655  19.097  0.00  0.00    +0.000 A 
ATOM     22  C   UNL     1       0.059   9.848  20.235  0.00  0.00    +0.000 A 
BRANCH  17  24
ATOM     23  C   UNL     1      -0.764  10.339  23.028  0.00  0.00    +0.000 C 
ATOM     24  O   UNL     1      -0.572   9.046  22.470  0.00  0.00    +0.000 OA
ENDBRANCH  17  24
ENDBRANCH  16  20
ENDBRANCH  15  16
ENDBRANCH   1  15
TORSDOF 4
ENDMDL
MODEL 8
REMARK VINA RESULT:      -6.7      2.096      3.730
REMARK  Name = 
REMARK  5 active torsions:
REMARK  status: ('A' for Active; 'I' for Inactive)
REMARK    1  A    between atoms: C_1  and  O_2
REMARK    2  A    between atoms: O_2  and  C_3
REMARK    3  A    between atoms: C_6  and  C_7
REMARK    4  A    between atoms: C_7  and  S_8
REMARK    5  A    between atoms: S_8  and  C_9
REMARK                            x       y       z     vdW  Elec       q    Type
REMARK                         _______ _______ _______ _____ _____    ______ ____
ROOT
ATOM      1  C   UNL     1       4.120   6.690  18.217  0.00  0.00    +0.000 C 
ATOM      2  C   UNL     1       5.031   7.012  17.026  0.00  0.00    +0.000 C 
ATOM      3  C   UNL     1       6.508   6.934  17.410  0.00  0.00    +0.000 C 
ATOM      4  C   UNL     1       6.887   5.621  18.077  0.00  0.00    +0.000 C 
ATOM      5  C   UNL     1       5.957   5.253  19.235  0.00  0.00    +0.000 C 
ATOM      6  C   UNL     1       4.457   5.328  18.883  0.00  0.00    +0.000 C 
ATOM      7  N   UNL     1       3.698   5.160  20.134  0.00  0.00    +0.000 N 
ATOM      8  C   UNL     1       3.001   3.981  20.193  0.00  0.00    +0.000 C 
ATOM      9  S   UNL     1       2.071   3.493  21.461  0.00  0.00    +0.000 S 
ATOM     10  N   UNL     1       3.194   3.303  19.043  0.00  0.00    +0.000 N 
ATOM     11  C   UNL     1       3.964   4.028  18.182  0.00  0.00    +0.000 C 
ATOM     12  S   UNL     1       4.315   3.464  16.657  0.00  0.00    +0.000 S 
ATOM     13  H   UNL     1       3.652   5.839  20.885  0.00  0.00    +0.000 HD
ATOM     14  H   UNL     1       2.760   2.417  18.821  0.00  0.00    +0.000 HD
ENDROOT
BRANCH   1  15
ATOM     15  S   UNL     1       2.343   6.889  17.758  0.00  0.00    +0.000 S 
BRANCH  15  16
ATOM     16  C   UNL     1       2.140   8.676  18.079  0.00  0.00    +0.000 C 
BRANCH  16  20
ATOM     17  C   UNL     1       0.059   9.442  21.801  0.00  0.00    +0.000 A 
ATOM     18  C   UNL     1      -0.125  10.281  20.701  0.00  0.00    +0.000 A 
ATOM     19  C   UNL     1       0.536  10.034  19.496  0.00  0.00    +0.000 A 
ATOM     20  C   UNL     1       1.420   8.953  19.377  0.00  0.00    +0.000 A 
ATOM     21  C   UNL     1       1.609   8.118  20.489  0.00  0.00    +0.000 A 
ATOM     22  C   UNL     1       0.932   8.360  21.692  0.00  0.00    +0.000 A 
BRANCH  17  24
ATOM     23  C   UNL     1      -1.181  11.112  22.938  0.00  0.00    +0.000 C 
ATOM     24  O   UNL     1      -0.628   9.802  22.927  0.00  0.00    +0.000 OA
ENDBRANCH  17  24
ENDBRANCH  16  20
ENDBRANCH  15  16
ENDBRANCH   1  15
TORSDOF 4
ENDMDL
MODEL 9
REMARK VINA RESULT:      -6.6      1.657      2.178
REMARK  Name = 
REMARK  5 active torsions:
REMARK  status: ('A' for Active; 'I' for Inactive)
REMARK    1  A    between atoms: C_1  and  O_2
REMARK    2  A    between atoms: O_2  and  C_3
REMARK    3  A    between atoms: C_6  and  C_7
REMARK    4  A    between atoms: C_7  and  S_8
REMARK    5  A    between atoms: S_8  and  C_9
REMARK                            x       y       z     vdW  Elec       q    Type
REMARK                         _______ _______ _______ _____ _____    ______ ____
ROOT
ATOM      1  C   UNL     1       2.703   5.498  18.431  0.00  0.00    +0.000 C 
ATOM      2  C   UNL     1       1.533   4.524  18.611  0.00  0.00    +0.000 C 
ATOM      3  C   UNL     1       1.364   3.615  17.395  0.00  0.00    +0.000 C 
ATOM      4  C   UNL     1       2.645   2.898  16.998  0.00  0.00    +0.000 C 
ATOM      5  C   UNL     1       3.839   3.846  16.864  0.00  0.00    +0.000 C 
ATOM      6  C   UNL     1       4.035   4.783  18.074  0.00  0.00    +0.000 C 
ATOM      7  N   UNL     1       5.071   5.765  17.712  0.00  0.00    +0.000 N 
ATOM      8  C   UNL     1       6.237   5.611  18.418  0.00  0.00    +0.000 C 
ATOM      9  S   UNL     1       7.584   6.539  18.235  0.00  0.00    +0.000 S 
ATOM     10  N   UNL     1       6.087   4.589  19.286  0.00  0.00    +0.000 N 
ATOM     11  C   UNL     1       4.822   4.086  19.222  0.00  0.00    +0.000 C 
ATOM     12  S   UNL     1       4.333   2.855  20.228  0.00  0.00    +0.000 S 
ATOM     13  H   UNL     1       4.959   6.510  17.034  0.00  0.00    +0.000 HD
ATOM     14  H   UNL     1       6.792   4.295  19.949  0.00  0.00    +0.000 HD
ENDROOT
BRANCH   1  15
ATOM     15  S   UNL     1       2.825   6.653  19.866  0.00  0.00    +0.000 S 
BRANCH  15  16
ATOM     16  C   UNL     1       1.934   8.093  19.180  0.00  0.00    +0.000 C 
BRANCH  16  20
ATOM     17  C   UNL     1      -0.159  10.368  22.216  0.00  0.00    +0.000 A 
ATOM     18  C   UNL     1       0.595   9.247  22.565  0.00  0.00    +0.000 A 
ATOM     19  C   UNL     1       1.278   8.515  21.591  0.00  0.00    +0.000 A 
ATOM     20  C   UNL     1       1.198   8.877  20.240  0.00  0.00    +0.000 A 
ATOM     21  C   UNL     1       0.432  10.000  19.894  0.00  0.00    +0.000 A 
ATOM     22  C   UNL     1      -0.241  10.742  20.874  0.00  0.00    +0.000 A 
BRANCH  17  24
ATOM     23  C   UNL     1      -1.345  12.270  22.986  0.00  0.00    +0.000 C 
ATOM     24  O   UNL     1      -0.796  10.987  23.255  0.00  0.00    +0.000 OA
ENDBRANCH  17  24
ENDBRANCH  16  20
ENDBRANCH  15  16
ENDBRANCH   1  15
TORSDOF 4
ENDMDL
