MODEL 1
REMARK VINA RESULT:      -7.8      0.000      0.000
REMARK  Name = 
REMARK  4 active torsions:
REMARK  status: ('A' for Active; 'I' for Inactive)
REMARK    1  A    between atoms: C_1  and  C_2
REMARK    2  A    between atoms: C_6  and  C_8
REMARK    3  A    between atoms: C_8  and  S_9
REMARK    4  A    between atoms: S_9  and  C_10
REMARK                            x       y       z     vdW  Elec       q    Type
REMARK                         _______ _______ _______ _____ _____    ______ ____
ROOT
ATOM      1  C   UNL     1       1.412   9.296  18.769  0.00  0.00    +0.000 C 
ATOM      2  N   UNL     1       0.909  10.302  18.157  0.00  0.00    +0.000 NA
ATOM      3  S   UNL     1      -0.047  11.320  18.968  0.00  0.00    +0.000 S 
ATOM      4  O   UNL     1       0.638  12.592  19.079  0.00  0.00    +0.000 OA
ATOM      5  O   UNL     1      -1.376  11.248  18.394  0.00  0.00    +0.000 OA
ATOM      6  C   UNL     1      -0.220  10.737  20.622  0.00  0.00    +0.000 A 
ATOM      7  C   UNL     1      -1.032  11.441  21.515  0.00  0.00    +0.000 A 
ATOM      8  C   UNL     1      -1.149  10.972  22.813  0.00  0.00    +0.000 A 
ATOM      9  F   UNL     1      -1.920  11.630  23.688  0.00  0.00    +0.000 F 
ATOM     10  C   UNL     1      -0.473   9.825  23.219  0.00  0.00    +0.000 A 
ATOM     11  C   UNL     1       0.335   9.132  22.308  0.00  0.00    +0.000 A 
ATOM     12  C   UNL     1       0.468   9.583  20.989  0.00  0.00    +0.000 A 
ATOM     13  N   UNL     1       1.266   8.909  20.070  0.00  0.00    +0.000 N 
ATOM     14  H   UNL     1       1.743   8.065  20.358  0.00  0.00    +0.000 HD
ENDROOT
BRANCH   1  15
ATOM     15  S   UNL     1       2.454   8.200  17.871  0.00  0.00    +0.000 S 
BRANCH  15  16
ATOM     16  C   UNL     1       2.600   6.778  19.014  0.00  0.00    +0.000 C 
BRANCH  16  22
ATOM     17  C   UNL     1       7.128   4.880  14.931  0.00  0.00    +0.000 C 
ATOM     18  C   UNL     1       6.343   4.606  16.213  0.00  0.00    +0.000 C 
ATOM     19  C   UNL     1       4.988   3.960  15.890  0.00  0.00    +0.000 C 
ATOM     20  C   UNL     1       4.147   3.771  17.152  0.00  0.00    +0.000 C 
ATOM     21  N   UNL     1       3.998   5.035  17.874  0.00  0.00    +0.000 N 
ATOM     22  C   UNL     1       2.718   5.453  18.251  0.00  0.00    +0.000 C 
ATOM     23  O   UNL     1       1.728   4.779  17.957  0.00  0.00    +0.000 OA
ATOM     24  C   UNL     1       5.256   5.678  18.247  0.00  0.00    +0.000 C 
ATOM     25  C   UNL     1       6.139   5.902  17.017  0.00  0.00    +0.000 C 
ENDBRANCH  16  22
ENDBRANCH  15  16
ENDBRANCH   1  15
TORSDOF 3
ENDMDL
MODEL 2
REMARK VINA RESULT:      -7.6      4.955      8.446
REMARK  Name = 
REMARK  4 active torsions:
REMARK  status: ('A' for Active; 'I' for Inactive)
REMARK    1  A    between atoms: C_1  and  C_2
REMARK    2  A    between atoms: C_6  and  C_8
REMARK    3  A    between atoms: C_8  and  S_9
REMARK    4  A    between atoms: S_9  and  C_10
REMARK                            x       y       z     vdW  Elec       q    Type
REMARK                         _______ _______ _______ _____ _____    ______ ____
ROOT
ATOM      1  C   UNL     1       4.721   3.407  18.664  0.00  0.00    +0.000 C 
ATOM      2  N   UNL     1       5.520   4.205  19.270  0.00  0.00    +0.000 NA
ATOM      3  S   UNL     1       6.579   5.066  18.407  0.00  0.00    +0.000 S 
ATOM      4  O   UNL     1       6.204   6.463  18.494  0.00  0.00    +0.000 OA
ATOM      5  O   UNL     1       7.914   4.638  18.774  0.00  0.00    +0.000 OA
ATOM      6  C   UNL     1       6.402   4.640  16.706  0.00  0.00    +0.000 A 
ATOM      7  C   UNL     1       7.239   5.237  15.760  0.00  0.00    +0.000 A 
ATOM      8  C   UNL     1       7.080   4.896  14.427  0.00  0.00    +0.000 A 
ATOM      9  F   UNL     1       7.869   5.455  13.501  0.00  0.00    +0.000 F 
ATOM     10  C   UNL     1       6.108   3.979  14.039  0.00  0.00    +0.000 A 
ATOM     11  C   UNL     1       5.280   3.388  15.003  0.00  0.00    +0.000 A 
ATOM     12  C   UNL     1       5.422   3.714  16.357  0.00  0.00    +0.000 A 
ATOM     13  N   UNL     1       4.609   3.139  17.329  0.00  0.00    +0.000 N 
ATOM     14  H   UNL     1       3.915   2.459  17.052  0.00  0.00    +0.000 HD
ENDROOT
BRANCH   1  15
ATOM     15  S   UNL     1       3.572   2.481  19.618  0.00  0.00    +0.000 S 
BRANCH  15  16
ATOM     16  C   UNL     1       2.059   3.507  19.511  0.00  0.00    +0.000 C 
BRANCH  16  22
ATOM     17  C   UNL     1       0.918   9.790  19.537  0.00  0.00    +0.000 C 
ATOM     18  C   UNL     1       1.892   8.651  19.233  0.00  0.00    +0.000 C 
ATOM     19  C   UNL     1       1.587   8.030  17.862  0.00  0.00    +0.000 C 
ATOM     20  C   UNL     1       2.485   6.826  17.586  0.00  0.00    +0.000 C 
ATOM     21  N   UNL     1       2.393   5.846  18.668  0.00  0.00    +0.000 N 
ATOM     22  C   UNL     1       2.140   4.507  18.352  0.00  0.00    +0.000 C 
ATOM     23  O   UNL     1       1.974   4.163  17.179  0.00  0.00    +0.000 OA
ATOM     24  C   UNL     1       2.714   6.369  19.995  0.00  0.00    +0.000 C 
ATOM     25  C   UNL     1       1.835   7.575  20.331  0.00  0.00    +0.000 C 
ENDBRANCH  16  22
ENDBRANCH  15  16
ENDBRANCH   1  15
TORSDOF 3
ENDMDL
MODEL 3
REMARK VINA RESULT:      -7.4      3.834      8.740
REMARK  Name = 
REMARK  4 active torsions:
REMARK  status: ('A' for Active; 'I' for Inactive)
REMARK    1  A    between atoms: C_1  and  C_2
REMARK    2  A    between atoms: C_6  and  C_8
REMARK    3  A    between atoms: C_8  and  S_9
REMARK    4  A    between atoms: S_9  and  C_10
REMARK                            x       y       z     vdW  Elec       q    Type
REMARK                         _______ _______ _______ _____ _____    ______ ____
ROOT
ATOM      1  C   UNL     1       2.732   5.333  19.608  0.00  0.00    +0.000 C 
ATOM      2  N   UNL     1       2.938   4.082  19.792  0.00  0.00    +0.000 NA
ATOM      3  S   UNL     1       3.924   3.291  18.787  0.00  0.00    +0.000 S 
ATOM      4  O   UNL     1       5.107   2.901  19.527  0.00  0.00    +0.000 OA
ATOM      5  O   UNL     1       3.142   2.299  18.075  0.00  0.00    +0.000 OA
ATOM      6  C   UNL     1       4.493   4.412  17.553  0.00  0.00    +0.000 A 
ATOM      7  C   UNL     1       5.342   3.948  16.544  0.00  0.00    +0.000 A 
ATOM      8  C   UNL     1       5.785   4.845  15.587  0.00  0.00    +0.000 A 
ATOM      9  F   UNL     1       6.600   4.425  14.611  0.00  0.00    +0.000 F 
ATOM     10  C   UNL     1       5.394   6.180  15.629  0.00  0.00    +0.000 A 
ATOM     11  C   UNL     1       4.541   6.627  16.647  0.00  0.00    +0.000 A 
ATOM     12  C   UNL     1       4.076   5.739  17.625  0.00  0.00    +0.000 A 
ATOM     13  N   UNL     1       3.229   6.162  18.644  0.00  0.00    +0.000 N 
ATOM     14  H   UNL     1       2.929   7.128  18.666  0.00  0.00    +0.000 HD
ENDROOT
BRANCH   1  15
ATOM     15  S   UNL     1       1.660   6.180  20.714  0.00  0.00    +0.000 S 
BRANCH  15  16
ATOM     16  C   UNL     1       1.789   7.911  20.133  0.00  0.00    +0.000 C 
BRANCH  16  22
ATOM     17  C   UNL     1      -0.252  13.884  19.162  0.00  0.00    +0.000 C 
ATOM     18  C   UNL     1      -0.573  12.466  19.635  0.00  0.00    +0.000 C 
ATOM     19  C   UNL     1      -0.106  12.260  21.083  0.00  0.00    +0.000 C 
ATOM     20  C   UNL     1      -0.327  10.818  21.539  0.00  0.00    +0.000 C 
ATOM     21  N   UNL     1       0.306   9.876  20.615  0.00  0.00    +0.000 N 
ATOM     22  C   UNL     1       1.151   8.887  21.128  0.00  0.00    +0.000 C 
ATOM     23  O   UNL     1       1.378   8.826  22.339  0.00  0.00    +0.000 OA
ATOM     24  C   UNL     1      -0.131   9.996  19.225  0.00  0.00    +0.000 C 
ATOM     25  C   UNL     1       0.076  11.421  18.710  0.00  0.00    +0.000 C 
ENDBRANCH  16  22
ENDBRANCH  15  16
ENDBRANCH   1  15
TORSDOF 3
ENDMDL
MODEL 4
REMARK VINA RESULT:      -7.4      2.326      2.922
REMARK  Name = 
REMARK  4 active torsions:
REMARK  status: ('A' for Active; 'I' for Inactive)
REMARK    1  A    between atoms: C_1  and  C_2
REMARK    2  A    between atoms: C_6  and  C_8
REMARK    3  A    between atoms: C_8  and  S_9
REMARK    4  A    between atoms: S_9  and  C_10
REMARK                            x       y       z     vdW  Elec       q    Type
REMARK                         _______ _______ _______ _____ _____    ______ ____
ROOT
ATOM      1  C   UNL     1       1.128   9.447  18.368  0.00  0.00    +0.000 C 
ATOM      2  N   UNL     1       1.249  10.052  19.490  0.00  0.00    +0.000 NA
ATOM      3  S   UNL     1       0.015  10.933  20.047  0.00  0.00    +0.000 S 
ATOM      4  O   UNL     1      -0.509  10.279  21.230  0.00  0.00    +0.000 OA
ATOM      5  O   UNL     1       0.436  12.319  20.099  0.00  0.00    +0.000 OA
ATOM      6  C   UNL     1      -1.292  10.885  18.867  0.00  0.00    +0.000 A 
ATOM      7  C   UNL     1      -2.465  11.603  19.115  0.00  0.00    +0.000 A 
ATOM      8  C   UNL     1      -3.486  11.547  18.180  0.00  0.00    +0.000 A 
ATOM      9  F   UNL     1      -4.619  12.225  18.396  0.00  0.00    +0.000 F 
ATOM     10  C   UNL     1      -3.346  10.791  17.020  0.00  0.00    +0.000 A 
ATOM     11  C   UNL     1      -2.162  10.080  16.788  0.00  0.00    +0.000 A 
ATOM     12  C   UNL     1      -1.114  10.122  17.716  0.00  0.00    +0.000 A 
ATOM     13  N   UNL     1       0.070   9.422  17.505  0.00  0.00    +0.000 N 
ATOM     14  H   UNL     1       0.180   8.887  16.653  0.00  0.00    +0.000 HD
ENDROOT
BRANCH   1  15
ATOM     15  S   UNL     1       2.479   8.490  17.778  0.00  0.00    +0.000 S 
BRANCH  15  16
ATOM     16  C   UNL     1       2.498   7.081  18.946  0.00  0.00    +0.000 C 
BRANCH  16  22
ATOM     17  C   UNL     1       7.101   4.895  15.097  0.00  0.00    +0.000 C 
ATOM     18  C   UNL     1       6.248   4.681  16.347  0.00  0.00    +0.000 C 
ATOM     19  C   UNL     1       4.878   4.097  15.973  0.00  0.00    +0.000 C 
ATOM     20  C   UNL     1       3.974   3.971  17.199  0.00  0.00    +0.000 C 
ATOM     21  N   UNL     1       3.857   5.253  17.895  0.00  0.00    +0.000 N 
ATOM     22  C   UNL     1       2.584   5.740  18.208  0.00  0.00    +0.000 C 
ATOM     23  O   UNL     1       1.576   5.109  17.880  0.00  0.00    +0.000 OA
ATOM     24  C   UNL     1       5.128   5.840  18.314  0.00  0.00    +0.000 C 
ATOM     25  C   UNL     1       6.074   5.999  17.122  0.00  0.00    +0.000 C 
ENDBRANCH  16  22
ENDBRANCH  15  16
ENDBRANCH   1  15
TORSDOF 3
ENDMDL
MODEL 5
REMARK VINA RESULT:      -7.3      4.527      8.780
REMARK  Name = 
REMARK  4 active torsions:
REMARK  status: ('A' for Active; 'I' for Inactive)
REMARK    1  A    between atoms: C_1  and  C_2
REMARK    2  A    between atoms: C_6  and  C_8
REMARK    3  A    between atoms: C_8  and  S_9
REMARK    4  A    between atoms: S_9  and  C_10
REMARK                            x       y       z     vdW  Elec       q    Type
REMARK                         _______ _______ _______ _____ _____    ______ ____
ROOT
ATOM      1  C   UNL     1       4.533   4.170  18.342  0.00  0.00    +0.000 C 
ATOM      2  N   UNL     1       5.522   4.727  18.934  0.00  0.00    +0.000 NA
ATOM      3  S   UNL     1       6.779   5.238  18.058  0.00  0.00    +0.000 S 
ATOM      4  O   UNL     1       6.809   6.686  18.112  0.00  0.00    +0.000 OA
ATOM      5  O   UNL     1       7.942   4.464  18.442  0.00  0.00    +0.000 OA
ATOM      6  C   UNL     1       6.488   4.839  16.367  0.00  0.00    +0.000 A 
ATOM      7  C   UNL     1       7.457   5.157  15.411  0.00  0.00    +0.000 A 
ATOM      8  C   UNL     1       7.208   4.843  14.086  0.00  0.00    +0.000 A 
ATOM      9  F   UNL     1       8.121   5.138  13.152  0.00  0.00    +0.000 F 
ATOM     10  C   UNL     1       6.019   4.224  13.713  0.00  0.00    +0.000 A 
ATOM     11  C   UNL     1       5.060   3.911  14.685  0.00  0.00    +0.000 A 
ATOM     12  C   UNL     1       5.288   4.215  16.033  0.00  0.00    +0.000 A 
ATOM     13  N   UNL     1       4.349   3.913  17.014  0.00  0.00    +0.000 N 
ATOM     14  H   UNL     1       3.492   3.447  16.747  0.00  0.00    +0.000 HD
ENDROOT
BRANCH   1  15
ATOM     15  S   UNL     1       3.171   3.624  19.311  0.00  0.00    +0.000 S 
BRANCH  15  16
ATOM     16  C   UNL     1       2.482   5.199  19.940  0.00  0.00    +0.000 C 
BRANCH  16  22
ATOM     17  C   UNL     1      -0.759  10.700  19.865  0.00  0.00    +0.000 C 
ATOM     18  C   UNL     1       0.586   9.988  19.728  0.00  0.00    +0.000 C 
ATOM     19  C   UNL     1       0.754   9.415  18.314  0.00  0.00    +0.000 C 
ATOM     20  C   UNL     1       2.047   8.612  18.189  0.00  0.00    +0.000 C 
ATOM     21  N   UNL     1       2.119   7.573  19.217  0.00  0.00    +0.000 N 
ATOM     22  C   UNL     1       2.405   6.259  18.835  0.00  0.00    +0.000 C 
ATOM     23  O   UNL     1       2.570   5.976  17.646  0.00  0.00    +0.000 OA
ATOM     24  C   UNL     1       2.008   8.064  20.590  0.00  0.00    +0.000 C 
ATOM     25  C   UNL     1       0.722   8.870  20.777  0.00  0.00    +0.000 C 
ENDBRANCH  16  22
ENDBRANCH  15  16
ENDBRANCH   1  15
TORSDOF 3
ENDMDL
MODEL 6
REMARK VINA RESULT:      -7.3      6.803      9.428
REMARK  Name = 
REMARK  4 active torsions:
REMARK  status: ('A' for Active; 'I' for Inactive)
REMARK    1  A    between atoms: C_1  and  C_2
REMARK    2  A    between atoms: C_6  and  C_8
REMARK    3  A    between atoms: C_8  and  S_9
REMARK    4  A    between atoms: S_9  and  C_10
REMARK                            x       y       z     vdW  Elec       q    Type
REMARK                         _______ _______ _______ _____ _____    ______ ____
ROOT
ATOM      1  C   UNL     1       7.428   7.673  17.923  0.00  0.00    +0.000 C 
ATOM      2  N   UNL     1       8.192   6.855  18.544  0.00  0.00    +0.000 NA
ATOM      3  S   UNL     1       7.630   5.391  18.932  0.00  0.00    +0.000 S 
ATOM      4  O   UNL     1       8.350   4.408  18.148  0.00  0.00    +0.000 OA
ATOM      5  O   UNL     1       7.589   5.292  20.377  0.00  0.00    +0.000 OA
ATOM      6  C   UNL     1       5.952   5.272  18.406  0.00  0.00    +0.000 A 
ATOM      7  C   UNL     1       5.236   4.099  18.661  0.00  0.00    +0.000 A 
ATOM      8  C   UNL     1       3.921   4.021  18.234  0.00  0.00    +0.000 A 
ATOM      9  F   UNL     1       3.215   2.908  18.465  0.00  0.00    +0.000 F 
ATOM     10  C   UNL     1       3.326   5.086  17.564  0.00  0.00    +0.000 A 
ATOM     11  C   UNL     1       4.060   6.255  17.320  0.00  0.00    +0.000 A 
ATOM     12  C   UNL     1       5.390   6.361  17.745  0.00  0.00    +0.000 A 
ATOM     13  N   UNL     1       6.135   7.512  17.511  0.00  0.00    +0.000 N 
ATOM     14  H   UNL     1       5.699   8.295  17.042  0.00  0.00    +0.000 HD
ENDROOT
BRANCH   1  15
ATOM     15  S   UNL     1       8.057   9.260  17.504  0.00  0.00    +0.000 S 
BRANCH  15  16
ATOM     16  C   UNL     1       8.954   9.739  19.027  0.00  0.00    +0.000 C 
BRANCH  16  22
ATOM     17  C   UNL     1       9.146  15.291  22.174  0.00  0.00    +0.000 C 
ATOM     18  C   UNL     1       9.897  14.053  21.686  0.00  0.00    +0.000 C 
ATOM     19  C   UNL     1      10.325  14.222  20.221  0.00  0.00    +0.000 C 
ATOM     20  C   UNL     1      10.987  12.954  19.685  0.00  0.00    +0.000 C 
ATOM     21  N   UNL     1      10.120  11.790  19.877  0.00  0.00    +0.000 N 
ATOM     22  C   UNL     1       9.859  10.953  18.788  0.00  0.00    +0.000 C 
ATOM     23  O   UNL     1      10.333  11.205  17.678  0.00  0.00    +0.000 OA
ATOM     24  C   UNL     1       9.712  11.552  21.260  0.00  0.00    +0.000 C 
ATOM     25  C   UNL     1       9.032  12.790  21.848  0.00  0.00    +0.000 C 
ENDBRANCH  16  22
ENDBRANCH  15  16
ENDBRANCH   1  15
TORSDOF 3
ENDMDL
MODEL 7
REMARK VINA RESULT:      -7.3      1.649      1.967
REMARK  Name = 
REMARK  4 active torsions:
REMARK  status: ('A' for Active; 'I' for Inactive)
REMARK    1  A    between atoms: C_1  and  C_2
REMARK    2  A    between atoms: C_6  and  C_8
REMARK    3  A    between atoms: C_8  and  S_9
REMARK    4  A    between atoms: S_9  and  C_10
REMARK                            x       y       z     vdW  Elec       q    Type
REMARK                         _______ _______ _______ _____ _____    ______ ____
ROOT
ATOM      1  C   UNL     1       1.855   7.744  20.019  0.00  0.00    +0.000 C 
ATOM      2  N   UNL     1       1.801   8.415  18.930  0.00  0.00    +0.000 NA
ATOM      3  S   UNL     1       1.026   9.832  18.915  0.00  0.00    +0.000 S 
ATOM      4  O   UNL     1       2.005  10.882  18.717  0.00  0.00    +0.000 OA
ATOM      5  O   UNL     1      -0.114   9.714  18.028  0.00  0.00    +0.000 OA
ATOM      6  C   UNL     1       0.347  10.122  20.515  0.00  0.00    +0.000 A 
ATOM      7  C   UNL     1      -0.401  11.280  20.742  0.00  0.00    +0.000 A 
ATOM      8  C   UNL     1      -0.921  11.495  22.007  0.00  0.00    +0.000 A 
ATOM      9  F   UNL     1      -1.640  12.598  22.250  0.00  0.00    +0.000 F 
ATOM     10  C   UNL     1      -0.702  10.578  23.031  0.00  0.00    +0.000 A 
ATOM     11  C   UNL     1       0.049   9.421  22.783  0.00  0.00    +0.000 A 
ATOM     12  C   UNL     1       0.583   9.179  21.511  0.00  0.00    +0.000 A 
ATOM     13  N   UNL     1       1.331   8.037  21.246  0.00  0.00    +0.000 N 
ATOM     14  H   UNL     1       1.476   7.360  21.983  0.00  0.00    +0.000 HD
ENDROOT
BRANCH   1  15
ATOM     15  S   UNL     1       2.707   6.206  20.019  0.00  0.00    +0.000 S 
BRANCH  15  16
ATOM     16  C   UNL     1       3.397   6.143  18.325  0.00  0.00    +0.000 C 
BRANCH  16  22
ATOM     17  C   UNL     1       6.714   3.981  13.314  0.00  0.00    +0.000 C 
ATOM     18  C   UNL     1       6.677   4.872  14.556  0.00  0.00    +0.000 C 
ATOM     19  C   UNL     1       6.968   4.050  15.820  0.00  0.00    +0.000 C 
ATOM     20  C   UNL     1       6.835   4.903  17.080  0.00  0.00    +0.000 C 
ATOM     21  N   UNL     1       5.526   5.554  17.135  0.00  0.00    +0.000 N 
ATOM     22  C   UNL     1       4.760   5.440  18.299  0.00  0.00    +0.000 C 
ATOM     23  O   UNL     1       5.173   4.781  19.256  0.00  0.00    +0.000 OA
ATOM     24  C   UNL     1       5.208   6.386  15.976  0.00  0.00    +0.000 C 
ATOM     25  C   UNL     1       5.316   5.579  14.680  0.00  0.00    +0.000 C 
ENDBRANCH  16  22
ENDBRANCH  15  16
ENDBRANCH   1  15
TORSDOF 3
ENDMDL
MODEL 8
REMARK VINA RESULT:      -7.3      5.358      6.924
REMARK  Name = 
REMARK  4 active torsions:
REMARK  status: ('A' for Active; 'I' for Inactive)
REMARK    1  A    between atoms: C_1  and  C_2
REMARK    2  A    between atoms: C_6  and  C_8
REMARK    3  A    between atoms: C_8  and  S_9
REMARK    4  A    between atoms: S_9  and  C_10
REMARK                            x       y       z     vdW  Elec       q    Type
REMARK                         _______ _______ _______ _____ _____    ______ ____
ROOT
ATOM      1  C   UNL     1       4.939   4.254  17.642  0.00  0.00    +0.000 C 
ATOM      2  N   UNL     1       3.935   4.913  17.198  0.00  0.00    +0.000 NA
ATOM      3  S   UNL     1       2.539   4.864  18.008  0.00  0.00    +0.000 S 
ATOM      4  O   UNL     1       2.292   6.179  18.565  0.00  0.00    +0.000 OA
ATOM      5  O   UNL     1       1.549   4.225  17.164  0.00  0.00    +0.000 OA
ATOM      6  C   UNL     1       2.729   3.797  19.397  0.00  0.00    +0.000 A 
ATOM      7  C   UNL     1       1.638   3.569  20.240  0.00  0.00    +0.000 A 
ATOM      8  C   UNL     1       1.808   2.733  21.332  0.00  0.00    +0.000 A 
ATOM      9  F   UNL     1       0.778   2.500  22.154  0.00  0.00    +0.000 F 
ATOM     10  C   UNL     1       3.039   2.134  21.584  0.00  0.00    +0.000 A 
ATOM     11  C   UNL     1       4.120   2.374  20.726  0.00  0.00    +0.000 A 
ATOM     12  C   UNL     1       3.974   3.212  19.614  0.00  0.00    +0.000 A 
ATOM     13  N   UNL     1       5.036   3.462  18.751  0.00  0.00    +0.000 N 
ATOM     14  H   UNL     1       5.926   3.014  18.921  0.00  0.00    +0.000 HD
ENDROOT
BRANCH   1  15
ATOM     15  S   UNL     1       6.452   4.323  16.750  0.00  0.00    +0.000 S 
BRANCH  15  16
ATOM     16  C   UNL     1       5.991   5.302  15.274  0.00  0.00    +0.000 C 
BRANCH  16  22
ATOM     17  C   UNL     1       6.128   0.629  10.924  0.00  0.00    +0.000 C 
ATOM     18  C   UNL     1       6.079   2.129  11.212  0.00  0.00    +0.000 C 
ATOM     19  C   UNL     1       7.487   2.671  11.500  0.00  0.00    +0.000 C 
ATOM     20  C   UNL     1       7.445   4.148  11.889  0.00  0.00    +0.000 C 
ATOM     21  N   UNL     1       6.530   4.367  13.010  0.00  0.00    +0.000 N 
ATOM     22  C   UNL     1       6.980   5.083  14.123  0.00  0.00    +0.000 C 
ATOM     23  O   UNL     1       8.139   5.502  14.169  0.00  0.00    +0.000 OA
ATOM     24  C   UNL     1       5.161   3.909  12.779  0.00  0.00    +0.000 C 
ATOM     25  C   UNL     1       5.139   2.429  12.393  0.00  0.00    +0.000 C 
ENDBRANCH  16  22
ENDBRANCH  15  16
ENDBRANCH   1  15
TORSDOF 3
ENDMDL
MODEL 9
REMARK VINA RESULT:      -7.3      4.079      8.792
REMARK  Name = 
REMARK  4 active torsions:
REMARK  status: ('A' for Active; 'I' for Inactive)
REMARK    1  A    between atoms: C_1  and  C_2
REMARK    2  A    between atoms: C_6  and  C_8
REMARK    3  A    between atoms: C_8  and  S_9
REMARK    4  A    between atoms: S_9  and  C_10
REMARK                            x       y       z     vdW  Elec       q    Type
REMARK                         _______ _______ _______ _____ _____    ______ ____
ROOT
ATOM      1  C   UNL     1       0.347  10.892  19.596  0.00  0.00    +0.000 C 
ATOM      2  N   UNL     1       0.057  10.583  20.804  0.00  0.00    +0.000 NA
ATOM      3  S   UNL     1       0.587   9.182  21.408  0.00  0.00    +0.000 S 
ATOM      4  O   UNL     1       1.565   9.474  22.436  0.00  0.00    +0.000 OA
ATOM      5  O   UNL     1      -0.565   8.353  21.703  0.00  0.00    +0.000 OA
ATOM      6  C   UNL     1       1.472   8.323  20.150  0.00  0.00    +0.000 A 
ATOM      7  C   UNL     1       2.005   7.061  20.428  0.00  0.00    +0.000 A 
ATOM      8  C   UNL     1       2.705   6.404  19.430  0.00  0.00    +0.000 A 
ATOM      9  F   UNL     1       3.226   5.195  19.672  0.00  0.00    +0.000 F 
ATOM     10  C   UNL     1       2.874   6.987  18.178  0.00  0.00    +0.000 A 
ATOM     11  C   UNL     1       2.331   8.252  17.918  0.00  0.00    +0.000 A 
ATOM     12  C   UNL     1       1.616   8.936  18.909  0.00  0.00    +0.000 A 
ATOM     13  N   UNL     1       1.069  10.193  18.670  0.00  0.00    +0.000 N 
ATOM     14  H   UNL     1       1.175  10.611  17.756  0.00  0.00    +0.000 HD
ENDROOT
BRANCH   1  15
ATOM     15  S   UNL     1      -0.234  12.422  18.955  0.00  0.00    +0.000 S 
BRANCH  15  16
ATOM     16  C   UNL     1      -1.939  12.499  19.615  0.00  0.00    +0.000 C 
BRANCH  16  22
ATOM     17  C   UNL     1      -7.915  10.588  20.805  0.00  0.00    +0.000 C 
ATOM     18  C   UNL     1      -6.970  11.421  19.940  0.00  0.00    +0.000 C 
ATOM     19  C   UNL     1      -6.302  10.546  18.870  0.00  0.00    +0.000 C 
ATOM     20  C   UNL     1      -5.278  11.340  18.062  0.00  0.00    +0.000 C 
ATOM     21  N   UNL     1      -4.299  11.979  18.942  0.00  0.00    +0.000 N 
ATOM     22  C   UNL     1      -2.937  11.808  18.678  0.00  0.00    +0.000 C 
ATOM     23  O   UNL     1      -2.567  11.109  17.732  0.00  0.00    +0.000 OA
ATOM     24  C   UNL     1      -4.873  12.860  19.957  0.00  0.00    +0.000 C 
ATOM     25  C   UNL     1      -5.903  12.113  20.807  0.00  0.00    +0.000 C 
ENDBRANCH  16  22
ENDBRANCH  15  16
ENDBRANCH   1  15
TORSDOF 3
ENDMDL
