MODEL 1
REMARK VINA RESULT:      -7.1      0.000      0.000
REMARK  Name = 
REMARK  3 active torsions:
REMARK  status: ('A' for Active; 'I' for Inactive)
REMARK    1  A    between atoms: C_1  and  C_2
REMARK    2  A    between atoms: C_2  and  C_3
REMARK    3  A    between atoms: C_10  and  S_11
REMARK                            x       y       z     vdW  Elec       q    Type
REMARK                         _______ _______ _______ _____ _____    ______ ____
ROOT
ATOM      1  C   UNL     1       6.895   4.403  15.841  0.00  0.00    +0.000 C 
ATOM      2  C   UNL     1       6.178   5.136  16.983  0.00  0.00    +0.000 C 
ATOM      3  C   UNL     1       7.246   5.811  17.861  0.00  0.00    +0.000 C 
ATOM      4  C   UNL     1       5.150   6.140  16.420  0.00  0.00    +0.000 C 
ATOM      5  C   UNL     1       4.169   6.610  17.476  0.00  0.00    +0.000 A 
ATOM      6  N   UNL     1       3.498   7.772  17.222  0.00  0.00    +0.000 NA
ATOM      7  C   UNL     1       2.629   8.122  18.195  0.00  0.00    +0.000 A 
ATOM      8  O   UNL     1       1.846   9.250  18.152  0.00  0.00    +0.000 OA
ATOM      9  C   UNL     1       1.123   9.271  19.314  0.00  0.00    +0.000 A 
ATOM     10  C   UNL     1       0.191  10.185  19.773  0.00  0.00    +0.000 A 
ATOM     11  N   UNL     1      -0.366   9.967  20.990  0.00  0.00    +0.000 NA
ATOM     12  C   UNL     1       0.009   8.874  21.683  0.00  0.00    +0.000 A 
ATOM     13  N   UNL     1       0.890   7.936  21.309  0.00  0.00    +0.000 NA
ATOM     14  C   UNL     1       1.439   8.173  20.094  0.00  0.00    +0.000 A 
ATOM     15  C   UNL     1       2.388   7.426  19.375  0.00  0.00    +0.000 A 
ATOM     16  C   UNL     1       3.083   6.234  19.593  0.00  0.00    +0.000 A 
ATOM     17  C   UNL     1       3.982   5.814  18.611  0.00  0.00    +0.000 A 
ATOM     18  C   UNL     1       4.772   4.559  18.843  0.00  0.00    +0.000 C 
ATOM     19  O   UNL     1       5.479   4.106  17.697  0.00  0.00    +0.000 OA
ENDROOT
BRANCH  10  20
ATOM     20  S   UNL     1      -0.301  11.605  18.858  0.00  0.00    +0.000 S 
ATOM     21  H   UNL     1      -0.003  12.510  19.798  0.00  0.00    +0.000 HD
ENDBRANCH  10  20
TORSDOF 1
ENDMDL
MODEL 2
REMARK VINA RESULT:      -7.0      1.660      2.158
REMARK  Name = 
REMARK  3 active torsions:
REMARK  status: ('A' for Active; 'I' for Inactive)
REMARK    1  A    between atoms: C_1  and  C_2
REMARK    2  A    between atoms: C_2  and  C_3
REMARK    3  A    between atoms: C_10  and  S_11
REMARK                            x       y       z     vdW  Elec       q    Type
REMARK                         _______ _______ _______ _____ _____    ______ ____
ROOT
ATOM      1  C   UNL     1       4.602   3.978  17.252  0.00  0.00    +0.000 C 
ATOM      2  C   UNL     1       4.134   4.910  18.379  0.00  0.00    +0.000 C 
ATOM      3  C   UNL     1       5.363   5.292  19.222  0.00  0.00    +0.000 C 
ATOM      4  C   UNL     1       3.407   6.140  17.796  0.00  0.00    +0.000 C 
ATOM      5  C   UNL     1       2.611   6.888  18.848  0.00  0.00    +0.000 A 
ATOM      6  N   UNL     1       2.276   8.181  18.565  0.00  0.00    +0.000 NA
ATOM      7  C   UNL     1       1.555   8.781  19.536  0.00  0.00    +0.000 A 
ATOM      8  O   UNL     1       1.107  10.078  19.467  0.00  0.00    +0.000 OA
ATOM      9  C   UNL     1       0.440  10.327  20.636  0.00  0.00    +0.000 A 
ATOM     10  C   UNL     1      -0.199  11.472  21.077  0.00  0.00    +0.000 A 
ATOM     11  N   UNL     1      -0.769  11.447  22.307  0.00  0.00    +0.000 NA
ATOM     12  C   UNL     1      -0.691  10.314  23.030  0.00  0.00    +0.000 A 
ATOM     13  N   UNL     1      -0.106   9.161  22.675  0.00  0.00    +0.000 NA
ATOM     14  C   UNL     1       0.462   9.207  21.447  0.00  0.00    +0.000 A 
ATOM     15  C   UNL     1       1.158   8.210  20.741  0.00  0.00    +0.000 A 
ATOM     16  C   UNL     1       1.507   6.880  20.989  0.00  0.00    +0.000 A 
ATOM     17  C   UNL     1       2.238   6.204  20.010  0.00  0.00    +0.000 A 
ATOM     18  C   UNL     1       2.662   4.789  20.273  0.00  0.00    +0.000 C 
ATOM     19  O   UNL     1       3.196   4.128  19.133  0.00  0.00    +0.000 OA
ENDROOT
BRANCH  10  20
ATOM     20  S   UNL     1      -0.305  12.947  20.123  0.00  0.00    +0.000 S 
ATOM     21  H   UNL     1      -1.412  12.619  19.446  0.00  0.00    +0.000 HD
ENDBRANCH  10  20
TORSDOF 1
ENDMDL
MODEL 3
REMARK VINA RESULT:      -7.0      2.225      3.185
REMARK  Name = 
REMARK  3 active torsions:
REMARK  status: ('A' for Active; 'I' for Inactive)
REMARK    1  A    between atoms: C_1  and  C_2
REMARK    2  A    between atoms: C_2  and  C_3
REMARK    3  A    between atoms: C_10  and  S_11
REMARK                            x       y       z     vdW  Elec       q    Type
REMARK                         _______ _______ _______ _____ _____    ______ ____
ROOT
ATOM      1  C   UNL     1       4.077   1.958  18.970  0.00  0.00    +0.000 C 
ATOM      2  C   UNL     1       3.327   3.263  18.667  0.00  0.00    +0.000 C 
ATOM      3  C   UNL     1       2.081   2.915  17.834  0.00  0.00    +0.000 C 
ATOM      4  C   UNL     1       2.979   4.002  19.977  0.00  0.00    +0.000 C 
ATOM      5  C   UNL     1       2.582   5.445  19.733  0.00  0.00    +0.000 A 
ATOM      6  N   UNL     1       1.873   6.066  20.722  0.00  0.00    +0.000 NA
ATOM      7  C   UNL     1       1.568   7.352  20.446  0.00  0.00    +0.000 A 
ATOM      8  O   UNL     1       0.862   8.170  21.296  0.00  0.00    +0.000 OA
ATOM      9  C   UNL     1       0.737   9.378  20.664  0.00  0.00    +0.000 A 
ATOM     10  C   UNL     1       0.116  10.544  21.076  0.00  0.00    +0.000 A 
ATOM     11  N   UNL     1       0.125  11.602  20.227  0.00  0.00    +0.000 NA
ATOM     12  C   UNL     1       0.741  11.467  19.037  0.00  0.00    +0.000 A 
ATOM     13  N   UNL     1       1.374  10.383  18.566  0.00  0.00    +0.000 NA
ATOM     14  C   UNL     1       1.350   9.336  19.425  0.00  0.00    +0.000 A 
ATOM     15  C   UNL     1       1.898   8.049  19.288  0.00  0.00    +0.000 A 
ATOM     16  C   UNL     1       2.636   7.385  18.306  0.00  0.00    +0.000 A 
ATOM     17  C   UNL     1       2.996   6.057  18.545  0.00  0.00    +0.000 A 
ATOM     18  C   UNL     1       3.752   5.311  17.485  0.00  0.00    +0.000 C 
ATOM     19  O   UNL     1       4.260   4.056  17.918  0.00  0.00    +0.000 OA
ENDROOT
BRANCH  10  20
ATOM     20  S   UNL     1      -0.678  10.716  22.637  0.00  0.00    +0.000 S 
ATOM     21  H   UNL     1      -1.571  11.639  22.259  0.00  0.00    +0.000 HD
ENDBRANCH  10  20
TORSDOF 1
ENDMDL
MODEL 4
REMARK VINA RESULT:      -6.9      3.097      6.519
REMARK  Name = 
REMARK  3 active torsions:
REMARK  status: ('A' for Active; 'I' for Inactive)
REMARK    1  A    between atoms: C_1  and  C_2
REMARK    2  A    between atoms: C_2  and  C_3
REMARK    3  A    between atoms: C_10  and  S_11
REMARK                            x       y       z     vdW  Elec       q    Type
REMARK                         _______ _______ _______ _____ _____    ______ ____
ROOT
ATOM      1  C   UNL     1      -0.123  12.609  19.375  0.00  0.00    +0.000 C 
ATOM      2  C   UNL     1       0.050  11.085  19.433  0.00  0.00    +0.000 C 
ATOM      3  C   UNL     1      -1.274  10.437  18.992  0.00  0.00    +0.000 C 
ATOM      4  C   UNL     1       1.246  10.643  18.563  0.00  0.00    +0.000 C 
ATOM      5  C   UNL     1       1.688   9.226  18.872  0.00  0.00    +0.000 A 
ATOM      6  N   UNL     1       2.433   8.590  17.921  0.00  0.00    +0.000 NA
ATOM      7  C   UNL     1       2.806   7.340  18.268  0.00  0.00    +0.000 A 
ATOM      8  O   UNL     1       3.561   6.516  17.467  0.00  0.00    +0.000 OA
ATOM      9  C   UNL     1       3.712   5.338  18.147  0.00  0.00    +0.000 A 
ATOM     10  C   UNL     1       4.378   4.178  17.794  0.00  0.00    +0.000 A 
ATOM     11  N   UNL     1       4.349   3.138  18.664  0.00  0.00    +0.000 NA
ATOM     12  C   UNL     1       3.683   3.289  19.825  0.00  0.00    +0.000 A 
ATOM     13  N   UNL     1       3.025   4.377  20.251  0.00  0.00    +0.000 NA
ATOM     14  C   UNL     1       3.061   5.402  19.366  0.00  0.00    +0.000 A 
ATOM     15  C   UNL     1       2.496   6.686  19.456  0.00  0.00    +0.000 A 
ATOM     16  C   UNL     1       1.744   7.373  20.411  0.00  0.00    +0.000 A 
ATOM     17  C   UNL     1       1.345   8.678  20.114  0.00  0.00    +0.000 A 
ATOM     18  C   UNL     1       0.500   9.421  21.106  0.00  0.00    +0.000 C 
ATOM     19  O   UNL     1       0.345  10.802  20.809  0.00  0.00    +0.000 OA
ENDROOT
BRANCH  10  20
ATOM     20  S   UNL     1       5.254   3.991  16.279  0.00  0.00    +0.000 S 
ATOM     21  H   UNL     1       5.741   2.769  16.528  0.00  0.00    +0.000 HD
ENDBRANCH  10  20
TORSDOF 1
ENDMDL
MODEL 5
REMARK VINA RESULT:      -6.9      3.621      6.331
REMARK  Name = 
REMARK  3 active torsions:
REMARK  status: ('A' for Active; 'I' for Inactive)
REMARK    1  A    between atoms: C_1  and  C_2
REMARK    2  A    between atoms: C_2  and  C_3
REMARK    3  A    between atoms: C_10  and  S_11
REMARK                            x       y       z     vdW  Elec       q    Type
REMARK                         _______ _______ _______ _____ _____    ______ ____
ROOT
ATOM      1  C   UNL     1       0.928  12.488  18.502  0.00  0.00    +0.000 C 
ATOM      2  C   UNL     1       0.729  11.043  18.978  0.00  0.00    +0.000 C 
ATOM      3  C   UNL     1      -0.756  10.683  18.804  0.00  0.00    +0.000 C 
ATOM      4  C   UNL     1       1.667  10.087  18.209  0.00  0.00    +0.000 C 
ATOM      5  C   UNL     1       1.784   8.734  18.882  0.00  0.00    +0.000 A 
ATOM      6  N   UNL     1       2.229   7.697  18.113  0.00  0.00    +0.000 NA
ATOM      7  C   UNL     1       2.325   6.527  18.779  0.00  0.00    +0.000 A 
ATOM      8  O   UNL     1       2.752   5.353  18.206  0.00  0.00    +0.000 OA
ATOM      9  C   UNL     1       2.694   4.395  19.182  0.00  0.00    +0.000 A 
ATOM     10  C   UNL     1       3.008   3.049  19.137  0.00  0.00    +0.000 A 
ATOM     11  N   UNL     1       2.833   2.317  20.265  0.00  0.00    +0.000 NA
ATOM     12  C   UNL     1       2.371   2.937  21.369  0.00  0.00    +0.000 A 
ATOM     13  N   UNL     1       2.056   4.233  21.503  0.00  0.00    +0.000 NA
ATOM     14  C   UNL     1       2.232   4.945  20.365  0.00  0.00    +0.000 A 
ATOM     15  C   UNL     1       2.012   6.311  20.117  0.00  0.00    +0.000 A 
ATOM     16  C   UNL     1       1.573   7.398  20.877  0.00  0.00    +0.000 A 
ATOM     17  C   UNL     1       1.472   8.639  20.243  0.00  0.00    +0.000 A 
ATOM     18  C   UNL     1       0.961   9.811  21.028  0.00  0.00    +0.000 C 
ATOM     19  O   UNL     1       1.113  11.058  20.361  0.00  0.00    +0.000 OA
ENDROOT
BRANCH  10  20
ATOM     20  S   UNL     1       3.620   2.248  17.694  0.00  0.00    +0.000 S 
ATOM     21  H   UNL     1       4.040   1.130  18.300  0.00  0.00    +0.000 HD
ENDBRANCH  10  20
TORSDOF 1
ENDMDL
MODEL 6
REMARK VINA RESULT:      -6.7      2.388      3.493
REMARK  Name = 
REMARK  3 active torsions:
REMARK  status: ('A' for Active; 'I' for Inactive)
REMARK    1  A    between atoms: C_1  and  C_2
REMARK    2  A    between atoms: C_2  and  C_3
REMARK    3  A    between atoms: C_10  and  S_11
REMARK                            x       y       z     vdW  Elec       q    Type
REMARK                         _______ _______ _______ _____ _____    ______ ____
ROOT
ATOM      1  C   UNL     1       4.232   3.779  18.812  0.00  0.00    +0.000 C 
ATOM      2  C   UNL     1       3.277   4.957  18.574  0.00  0.00    +0.000 C 
ATOM      3  C   UNL     1       2.050   4.430  17.810  0.00  0.00    +0.000 C 
ATOM      4  C   UNL     1       2.901   5.627  19.913  0.00  0.00    +0.000 C 
ATOM      5  C   UNL     1       2.277   6.994  19.716  0.00  0.00    +0.000 A 
ATOM      6  N   UNL     1       1.543   7.495  20.753  0.00  0.00    +0.000 NA
ATOM      7  C   UNL     1       1.032   8.721  20.516  0.00  0.00    +0.000 A 
ATOM      8  O   UNL     1       0.263   9.417  21.418  0.00  0.00    +0.000 OA
ATOM      9  C   UNL     1      -0.081  10.596  20.814  0.00  0.00    +0.000 A 
ATOM     10  C   UNL     1      -0.844  11.653  21.279  0.00  0.00    +0.000 A 
ATOM     11  N   UNL     1      -1.045  12.705  20.448  0.00  0.00    +0.000 NA
ATOM     12  C   UNL     1      -0.489  12.672  19.222  0.00  0.00    +0.000 A 
ATOM     13  N   UNL     1       0.271  11.700  18.698  0.00  0.00    +0.000 NA
ATOM     14  C   UNL     1       0.457  10.656  19.541  0.00  0.00    +0.000 A 
ATOM     15  C   UNL     1       1.183   9.468  19.352  0.00  0.00    +0.000 A 
ATOM     16  C   UNL     1       1.952   8.930  18.318  0.00  0.00    +0.000 A 
ATOM     17  C   UNL     1       2.522   7.670  18.515  0.00  0.00    +0.000 A 
ATOM     18  C   UNL     1       3.317   7.054  17.401  0.00  0.00    +0.000 C 
ATOM     19  O   UNL     1       4.033   5.887  17.785  0.00  0.00    +0.000 OA
ENDROOT
BRANCH  10  20
ATOM     20  S   UNL     1      -1.560  11.693  22.886  0.00  0.00    +0.000 S 
ATOM     21  H   UNL     1      -2.825  11.485  22.501  0.00  0.00    +0.000 HD
ENDBRANCH  10  20
TORSDOF 1
ENDMDL
MODEL 7
REMARK VINA RESULT:      -6.6      2.869      6.892
REMARK  Name = 
REMARK  3 active torsions:
REMARK  status: ('A' for Active; 'I' for Inactive)
REMARK    1  A    between atoms: C_1  and  C_2
REMARK    2  A    between atoms: C_2  and  C_3
REMARK    3  A    between atoms: C_10  and  S_11
REMARK                            x       y       z     vdW  Elec       q    Type
REMARK                         _______ _______ _______ _____ _____    ______ ____
ROOT
ATOM      1  C   UNL     1      -1.094  11.828  20.939  0.00  0.00    +0.000 C 
ATOM      2  C   UNL     1       0.136  11.119  20.357  0.00  0.00    +0.000 C 
ATOM      3  C   UNL     1       1.392  11.855  20.857  0.00  0.00    +0.000 C 
ATOM      4  C   UNL     1       0.131   9.624  20.743  0.00  0.00    +0.000 C 
ATOM      5  C   UNL     1       1.097   8.812  19.904  0.00  0.00    +0.000 A 
ATOM      6  N   UNL     1       1.484   7.601  20.405  0.00  0.00    +0.000 NA
ATOM      7  C   UNL     1       2.331   6.925  19.600  0.00  0.00    +0.000 A 
ATOM      8  O   UNL     1       2.847   5.687  19.901  0.00  0.00    +0.000 OA
ATOM      9  C   UNL     1       3.671   5.343  18.863  0.00  0.00    +0.000 A 
ATOM     10  C   UNL     1       4.435   4.207  18.665  0.00  0.00    +0.000 A 
ATOM     11  N   UNL     1       5.187   4.136  17.538  0.00  0.00    +0.000 NA
ATOM     12  C   UNL     1       5.144   5.165  16.670  0.00  0.00    +0.000 A 
ATOM     13  N   UNL     1       4.425   6.291  16.778  0.00  0.00    +0.000 NA
ATOM     14  C   UNL     1       3.686   6.346  17.911  0.00  0.00    +0.000 A 
ATOM     15  C   UNL     1       2.817   7.352  18.369  0.00  0.00    +0.000 A 
ATOM     16  C   UNL     1       2.389   8.589  17.882  0.00  0.00    +0.000 A 
ATOM     17  C   UNL     1       1.497   9.325  18.665  0.00  0.00    +0.000 A 
ATOM     18  C   UNL     1       1.057  10.676  18.183  0.00  0.00    +0.000 C 
ATOM     19  O   UNL     1      -0.013  11.233  18.935  0.00  0.00    +0.000 OA
ENDROOT
BRANCH  10  20
ATOM     20  S   UNL     1       4.478   2.861  19.798  0.00  0.00    +0.000 S 
ATOM     21  H   UNL     1       5.639   2.341  19.382  0.00  0.00    +0.000 HD
ENDBRANCH  10  20
TORSDOF 1
ENDMDL
MODEL 8
REMARK VINA RESULT:      -6.6      2.517      3.646
REMARK  Name = 
REMARK  3 active torsions:
REMARK  status: ('A' for Active; 'I' for Inactive)
REMARK    1  A    between atoms: C_1  and  C_2
REMARK    2  A    between atoms: C_2  and  C_3
REMARK    3  A    between atoms: C_10  and  S_11
REMARK                            x       y       z     vdW  Elec       q    Type
REMARK                         _______ _______ _______ _____ _____    ______ ____
ROOT
ATOM      1  C   UNL     1       3.337   2.615  19.897  0.00  0.00    +0.000 C 
ATOM      2  C   UNL     1       2.665   3.921  19.451  0.00  0.00    +0.000 C 
ATOM      3  C   UNL     1       1.431   3.559  18.607  0.00  0.00    +0.000 C 
ATOM      4  C   UNL     1       2.314   4.794  20.674  0.00  0.00    +0.000 C 
ATOM      5  C   UNL     1       2.000   6.225  20.287  0.00  0.00    +0.000 A 
ATOM      6  N   UNL     1       1.292   6.968  21.188  0.00  0.00    +0.000 NA
ATOM      7  C   UNL     1       1.062   8.236  20.787  0.00  0.00    +0.000 A 
ATOM      8  O   UNL     1       0.373   9.162  21.533  0.00  0.00    +0.000 OA
ATOM      9  C   UNL     1       0.330  10.312  20.791  0.00  0.00    +0.000 A 
ATOM     10  C   UNL     1      -0.242  11.540  21.072  0.00  0.00    +0.000 A 
ATOM     11  N   UNL     1      -0.151  12.513  20.132  0.00  0.00    +0.000 NA
ATOM     12  C   UNL     1       0.496  12.240  18.983  0.00  0.00    +0.000 A 
ATOM     13  N   UNL     1       1.087  11.088  18.636  0.00  0.00    +0.000 NA
ATOM     14  C   UNL     1       0.981  10.126  19.584  0.00  0.00    +0.000 A 
ATOM     15  C   UNL     1       1.466   8.807  19.584  0.00  0.00    +0.000 A 
ATOM     16  C   UNL     1       2.201   8.021  18.694  0.00  0.00    +0.000 A 
ATOM     17  C   UNL     1       2.484   6.705  19.065  0.00  0.00    +0.000 A 
ATOM     18  C   UNL     1       3.234   5.829  18.105  0.00  0.00    +0.000 C 
ATOM     19  O   UNL     1       3.662   4.596  18.669  0.00  0.00    +0.000 OA
ENDROOT
BRANCH  10  20
ATOM     20  S   UNL     1      -1.077  11.893  22.581  0.00  0.00    +0.000 S 
ATOM     21  H   UNL     1      -1.974  10.902  22.501  0.00  0.00    +0.000 HD
ENDBRANCH  10  20
TORSDOF 1
ENDMDL
MODEL 9
REMARK VINA RESULT:      -6.6      2.271      2.533
REMARK  Name = 
REMARK  3 active torsions:
REMARK  status: ('A' for Active; 'I' for Inactive)
REMARK    1  A    between atoms: C_1  and  C_2
REMARK    2  A    between atoms: C_2  and  C_3
REMARK    3  A    between atoms: C_10  and  S_11
REMARK                            x       y       z     vdW  Elec       q    Type
REMARK                         _______ _______ _______ _____ _____    ______ ____
ROOT
ATOM      1  C   UNL     1       3.571   1.802  17.891  0.00  0.00    +0.000 C 
ATOM      2  C   UNL     1       3.427   3.029  18.803  0.00  0.00    +0.000 C 
ATOM      3  C   UNL     1       4.775   3.262  19.506  0.00  0.00    +0.000 C 
ATOM      4  C   UNL     1       2.961   4.255  17.989  0.00  0.00    +0.000 C 
ATOM      5  C   UNL     1       2.450   5.372  18.877  0.00  0.00    +0.000 A 
ATOM      6  N   UNL     1       2.403   6.624  18.331  0.00  0.00    +0.000 NA
ATOM      7  C   UNL     1       1.924   7.566  19.170  0.00  0.00    +0.000 A 
ATOM      8  O   UNL     1       1.786   8.891  18.834  0.00  0.00    +0.000 OA
ATOM      9  C   UNL     1       1.293   9.528  19.941  0.00  0.00    +0.000 A 
ATOM     10  C   UNL     1       0.977  10.860  20.142  0.00  0.00    +0.000 A 
ATOM     11  N   UNL     1       0.519  11.226  21.365  0.00  0.00    +0.000 NA
ATOM     12  C   UNL     1       0.389  10.279  22.314  0.00  0.00    +0.000 A 
ATOM     13  N   UNL     1       0.659   8.971  22.200  0.00  0.00    +0.000 NA
ATOM     14  C   UNL     1       1.120   8.625  20.975  0.00  0.00    +0.000 A 
ATOM     15  C   UNL     1       1.504   7.367  20.482  0.00  0.00    +0.000 A 
ATOM     16  C   UNL     1       1.553   6.071  21.001  0.00  0.00    +0.000 A 
ATOM     17  C   UNL     1       2.024   5.052  20.171  0.00  0.00    +0.000 A 
ATOM     18  C   UNL     1       2.126   3.660  20.722  0.00  0.00    +0.000 C 
ATOM     19  O   UNL     1       2.397   2.671  19.737  0.00  0.00    +0.000 OA
ENDROOT
BRANCH  10  20
ATOM     20  S   UNL     1       1.140  12.090  18.894  0.00  0.00    +0.000 S 
ATOM     21  H   UNL     1       1.162  11.254  17.850  0.00  0.00    +0.000 HD
ENDBRANCH  10  20
TORSDOF 1
ENDMDL
