MODEL 1
REMARK VINA RESULT:      -9.7      0.000      0.000
REMARK  Name = 
REMARK  7 active torsions:
REMARK  status: ('A' for Active; 'I' for Inactive)
REMARK    1  A    between atoms: N_2  and  C_4
REMARK    2  A    between atoms: C_12  and  O_13
REMARK    3  A    between atoms: O_13  and  C_14
REMARK    4  A    between atoms: C_14  and  C_15
REMARK    5  A    between atoms: C_18  and  C_19
REMARK    6  A    between atoms: C_22  and  O_23
REMARK    7  A    between atoms: O_23  and  C_24
REMARK                            x       y       z     vdW  Elec       q    Type
REMARK                         _______ _______ _______ _____ _____    ______ ____
ROOT
ATOM      1  C   UNL     1       2.456   7.219  18.672  0.00  0.00    +0.000 A 
ATOM      2  C   UNL     1       2.060   8.431  18.122  0.00  0.00    +0.000 A 
ATOM      3  C   UNL     1       1.387   9.346  18.929  0.00  0.00    +0.000 A 
ATOM      4  C   UNL     1       1.108   9.049  20.270  0.00  0.00    +0.000 A 
ATOM      5  C   UNL     1       1.572   7.813  20.726  0.00  0.00    +0.000 A 
ATOM      6  N   UNL     1       2.230   6.902  19.971  0.00  0.00    +0.000 NA
ENDROOT
BRANCH   4   7
ATOM      7  C   UNL     1       0.355   9.969  21.137  0.00  0.00    +0.000 A 
ATOM      8  C   UNL     1       0.225  11.332  20.818  0.00  0.00    +0.000 A 
ATOM      9  C   UNL     1      -0.505  12.199  21.633  0.00  0.00    +0.000 A 
ATOM     10  C   UNL     1      -1.143  11.734  22.780  0.00  0.00    +0.000 A 
ATOM     11  C   UNL     1      -0.993  10.398  23.139  0.00  0.00    +0.000 A 
ATOM     12  C   UNL     1      -0.268   9.526  22.319  0.00  0.00    +0.000 A 
BRANCH  10  13
ATOM     13  O   UNL     1      -1.825  12.678  23.477  0.00  0.00    +0.000 OA
BRANCH  13  14
ATOM     14  C   UNL     1      -3.241  12.714  23.405  0.00  0.00    +0.000 C 
ATOM     15  F   UNL     1      -3.776  13.945  23.551  0.00  0.00    +0.000 F 
ATOM     16  F   UNL     1      -3.641  12.205  22.219  0.00  0.00    +0.000 F 
ATOM     17  F   UNL     1      -3.739  11.931  24.389  0.00  0.00    +0.000 F 
ENDBRANCH  13  14
ENDBRANCH  10  13
ENDBRANCH   4   7
BRANCH   1  18
ATOM     18  C   UNL     1       3.075   6.151  17.810  0.00  0.00    +0.000 C 
BRANCH  18  19
ATOM     19  O   UNL     1       3.210   4.911  18.522  0.00  0.00    +0.000 OA
BRANCH  19  28
ATOM     20  C   UNL     1       6.864   4.880  14.271  0.00  0.00    +0.000 A 
ATOM     21  C   UNL     1       5.662   4.292  14.606  0.00  0.00    +0.000 A 
ATOM     22  N   UNL     1       5.558   4.465  15.966  0.00  0.00    +0.000 N 
ATOM     23  C   UNL     1       6.679   5.109  16.395  0.00  0.00    +0.000 A 
ATOM     24  N   UNL     1       7.480   5.394  15.387  0.00  0.00    +0.000 NA
ATOM     25  S   UNL     1       7.094   5.481  18.021  0.00  0.00    +0.000 S 
ATOM     26  O   UNL     1       8.206   4.461  18.450  0.00  0.00    +0.000 OA
ATOM     27  C   UNL     1       5.600   5.078  18.904  0.00  0.00    +0.000 C 
ATOM     28  C   UNL     1       4.482   4.252  18.276  0.00  0.00    +0.000 C 
ATOM     29  C   UNL     1       4.515   3.901  16.782  0.00  0.00    +0.000 C 
BRANCH  20  31
ATOM     30  O   UNL     1       7.096   4.146  12.115  0.00  0.00    +0.000 OA
ATOM     31  N   UNL     1       7.487   4.962  12.967  0.00  0.00    +0.000 N 
ATOM     32  O   UNL     1       8.345   5.838  12.792  0.00  0.00    +0.000 OA
ENDBRANCH  20  31
ENDBRANCH  19  28
ENDBRANCH  18  19
ENDBRANCH   1  18
TORSDOF 7
ENDMDL
MODEL 2
REMARK VINA RESULT:      -9.4      0.280      1.122
REMARK  Name = 
REMARK  7 active torsions:
REMARK  status: ('A' for Active; 'I' for Inactive)
REMARK    1  A    between atoms: N_2  and  C_4
REMARK    2  A    between atoms: C_12  and  O_13
REMARK    3  A    between atoms: O_13  and  C_14
REMARK    4  A    between atoms: C_14  and  C_15
REMARK    5  A    between atoms: C_18  and  C_19
REMARK    6  A    between atoms: C_22  and  O_23
REMARK    7  A    between atoms: O_23  and  C_24
REMARK                            x       y       z     vdW  Elec       q    Type
REMARK                         _______ _______ _______ _____ _____    ______ ____
ROOT
ATOM      1  C   UNL     1       2.465   7.356  18.667  0.00  0.00    +0.000 A 
ATOM      2  C   UNL     1       2.081   8.538  18.051  0.00  0.00    +0.000 A 
ATOM      3  C   UNL     1       1.361   9.476  18.788  0.00  0.00    +0.000 A 
ATOM      4  C   UNL     1       1.026   9.232  20.127  0.00  0.00    +0.000 A 
ATOM      5  C   UNL     1       1.484   8.022  20.654  0.00  0.00    +0.000 A 
ATOM      6  N   UNL     1       2.185   7.089  19.967  0.00  0.00    +0.000 NA
ENDROOT
BRANCH   4   7
ATOM      7  C   UNL     1       0.224  10.176  20.920  0.00  0.00    +0.000 A 
ATOM      8  C   UNL     1      -0.126   9.896  22.253  0.00  0.00    +0.000 A 
ATOM      9  C   UNL     1      -0.871  10.801  23.010  0.00  0.00    +0.000 A 
ATOM     10  C   UNL     1      -1.276  12.019  22.472  0.00  0.00    +0.000 A 
ATOM     11  C   UNL     1      -0.978  12.300  21.142  0.00  0.00    +0.000 A 
ATOM     12  C   UNL     1      -0.225  11.396  20.384  0.00  0.00    +0.000 A 
BRANCH  10  13
ATOM     13  O   UNL     1      -1.986  12.810  23.316  0.00  0.00    +0.000 OA
BRANCH  13  14
ATOM     14  C   UNL     1      -3.383  12.611  23.453  0.00  0.00    +0.000 C 
ATOM     15  F   UNL     1      -3.724  11.579  24.255  0.00  0.00    +0.000 F 
ATOM     16  F   UNL     1      -3.950  13.739  23.935  0.00  0.00    +0.000 F 
ATOM     17  F   UNL     1      -3.903  12.369  22.228  0.00  0.00    +0.000 F 
ENDBRANCH  13  14
ENDBRANCH  10  13
ENDBRANCH   4   7
BRANCH   1  18
ATOM     18  C   UNL     1       3.134   6.261  17.879  0.00  0.00    +0.000 C 
BRANCH  18  19
ATOM     19  O   UNL     1       3.277   5.063  18.656  0.00  0.00    +0.000 OA
BRANCH  19  28
ATOM     20  C   UNL     1       6.814   4.874  14.311  0.00  0.00    +0.000 A 
ATOM     21  C   UNL     1       5.597   4.338  14.679  0.00  0.00    +0.000 A 
ATOM     22  N   UNL     1       5.536   4.516  16.041  0.00  0.00    +0.000 N 
ATOM     23  C   UNL     1       6.694   5.112  16.440  0.00  0.00    +0.000 A 
ATOM     24  N   UNL     1       7.480   5.362  15.411  0.00  0.00    +0.000 NA
ATOM     25  S   UNL     1       7.166   5.467  18.054  0.00  0.00    +0.000 S 
ATOM     26  O   UNL     1       8.245   4.400  18.455  0.00  0.00    +0.000 OA
ATOM     27  C   UNL     1       5.680   5.127  18.976  0.00  0.00    +0.000 C 
ATOM     28  C   UNL     1       4.512   4.349  18.378  0.00  0.00    +0.000 C 
ATOM     29  C   UNL     1       4.492   3.997  16.884  0.00  0.00    +0.000 C 
BRANCH  20  31
ATOM     30  O   UNL     1       7.006   4.086  12.172  0.00  0.00    +0.000 OA
ATOM     31  N   UNL     1       7.406   4.929  12.992  0.00  0.00    +0.000 N 
ATOM     32  O   UNL     1       8.249   5.810  12.774  0.00  0.00    +0.000 OA
ENDBRANCH  20  31
ENDBRANCH  19  28
ENDBRANCH  18  19
ENDBRANCH   1  18
TORSDOF 7
ENDMDL
MODEL 3
REMARK VINA RESULT:      -9.3      0.861      1.255
REMARK  Name = 
REMARK  7 active torsions:
REMARK  status: ('A' for Active; 'I' for Inactive)
REMARK    1  A    between atoms: N_2  and  C_4
REMARK    2  A    between atoms: C_12  and  O_13
REMARK    3  A    between atoms: O_13  and  C_14
REMARK    4  A    between atoms: C_14  and  C_15
REMARK    5  A    between atoms: C_18  and  C_19
REMARK    6  A    between atoms: C_22  and  O_23
REMARK    7  A    between atoms: O_23  and  C_24
REMARK                            x       y       z     vdW  Elec       q    Type
REMARK                         _______ _______ _______ _____ _____    ______ ____
ROOT
ATOM      1  C   UNL     1       2.408   7.612  18.694  0.00  0.00    +0.000 A 
ATOM      2  C   UNL     1       1.839   8.718  18.077  0.00  0.00    +0.000 A 
ATOM      3  C   UNL     1       1.032   9.566  18.833  0.00  0.00    +0.000 A 
ATOM      4  C   UNL     1       0.793   9.307  20.190  0.00  0.00    +0.000 A 
ATOM      5  C   UNL     1       1.435   8.182  20.713  0.00  0.00    +0.000 A 
ATOM      6  N   UNL     1       2.226   7.338  20.009  0.00  0.00    +0.000 NA
ENDROOT
BRANCH   4   7
ATOM      7  C   UNL     1      -0.094  10.150  21.006  0.00  0.00    +0.000 A 
ATOM      8  C   UNL     1      -0.306   9.881  22.369  0.00  0.00    +0.000 A 
ATOM      9  C   UNL     1      -1.134  10.694  23.146  0.00  0.00    +0.000 A 
ATOM     10  C   UNL     1      -1.762  11.808  22.596  0.00  0.00    +0.000 A 
ATOM     11  C   UNL     1      -1.601  12.069  21.238  0.00  0.00    +0.000 A 
ATOM     12  C   UNL     1      -0.766  11.260  20.460  0.00  0.00    +0.000 A 
BRANCH  10  13
ATOM     13  O   UNL     1      -2.532  12.517  23.460  0.00  0.00    +0.000 OA
BRANCH  13  14
ATOM     14  C   UNL     1      -2.226  13.877  23.716  0.00  0.00    +0.000 C 
ATOM     15  F   UNL     1      -0.904  14.149  23.786  0.00  0.00    +0.000 F 
ATOM     16  F   UNL     1      -2.775  14.648  22.751  0.00  0.00    +0.000 F 
ATOM     17  F   UNL     1      -2.780  14.225  24.899  0.00  0.00    +0.000 F 
ENDBRANCH  13  14
ENDBRANCH  10  13
ENDBRANCH   4   7
BRANCH   1  18
ATOM     18  C   UNL     1       3.186   6.602  17.892  0.00  0.00    +0.000 C 
BRANCH  18  19
ATOM     19  O   UNL     1       3.149   5.303  18.502  0.00  0.00    +0.000 OA
BRANCH  19  28
ATOM     20  C   UNL     1       6.798   4.891  14.267  0.00  0.00    +0.000 A 
ATOM     21  C   UNL     1       5.550   4.414  14.607  0.00  0.00    +0.000 A 
ATOM     22  N   UNL     1       5.457   4.617  15.964  0.00  0.00    +0.000 N 
ATOM     23  C   UNL     1       6.628   5.170  16.387  0.00  0.00    +0.000 A 
ATOM     24  N   UNL     1       7.453   5.370  15.379  0.00  0.00    +0.000 NA
ATOM     25  S   UNL     1       7.068   5.531  18.009  0.00  0.00    +0.000 S 
ATOM     26  O   UNL     1       8.087   4.427  18.459  0.00  0.00    +0.000 OA
ATOM     27  C   UNL     1       5.542   5.271  18.892  0.00  0.00    +0.000 C 
ATOM     28  C   UNL     1       4.360   4.533  18.272  0.00  0.00    +0.000 C 
ATOM     29  C   UNL     1       4.368   4.157  16.783  0.00  0.00    +0.000 C 
BRANCH  20  31
ATOM     30  O   UNL     1       7.050   4.032  12.162  0.00  0.00    +0.000 OA
ATOM     31  N   UNL     1       7.431   4.900  12.965  0.00  0.00    +0.000 N 
ATOM     32  O   UNL     1       8.285   5.769  12.744  0.00  0.00    +0.000 OA
ENDBRANCH  20  31
ENDBRANCH  19  28
ENDBRANCH  18  19
ENDBRANCH   1  18
TORSDOF 7
ENDMDL
MODEL 4
REMARK VINA RESULT:      -9.3      0.883      1.171
REMARK  Name = 
REMARK  7 active torsions:
REMARK  status: ('A' for Active; 'I' for Inactive)
REMARK    1  A    between atoms: N_2  and  C_4
REMARK    2  A    between atoms: C_12  and  O_13
REMARK    3  A    between atoms: O_13  and  C_14
REMARK    4  A    between atoms: C_14  and  C_15
REMARK    5  A    between atoms: C_18  and  C_19
REMARK    6  A    between atoms: C_22  and  O_23
REMARK    7  A    between atoms: O_23  and  C_24
REMARK                            x       y       z     vdW  Elec       q    Type
REMARK                         _______ _______ _______ _____ _____    ______ ____
ROOT
ATOM      1  C   UNL     1       2.422   7.612  18.719  0.00  0.00    +0.000 A 
ATOM      2  C   UNL     1       1.875   8.740  18.122  0.00  0.00    +0.000 A 
ATOM      3  C   UNL     1       1.069   9.580  18.887  0.00  0.00    +0.000 A 
ATOM      4  C   UNL     1       0.810   9.293  20.235  0.00  0.00    +0.000 A 
ATOM      5  C   UNL     1       1.430   8.147  20.739  0.00  0.00    +0.000 A 
ATOM      6  N   UNL     1       2.219   7.310  20.025  0.00  0.00    +0.000 NA
ENDROOT
BRANCH   4   7
ATOM      7  C   UNL     1      -0.076  10.129  21.059  0.00  0.00    +0.000 A 
ATOM      8  C   UNL     1      -0.773  11.218  20.508  0.00  0.00    +0.000 A 
ATOM      9  C   UNL     1      -1.627  12.000  21.289  0.00  0.00    +0.000 A 
ATOM     10  C   UNL     1      -1.828  11.711  22.635  0.00  0.00    +0.000 A 
ATOM     11  C   UNL     1      -1.117  10.663  23.213  0.00  0.00    +0.000 A 
ATOM     12  C   UNL     1      -0.266   9.875  22.430  0.00  0.00    +0.000 A 
BRANCH  10  13
ATOM     13  O   UNL     1      -2.689  12.542  23.276  0.00  0.00    +0.000 OA
BRANCH  13  14
ATOM     14  C   UNL     1      -2.262  13.841  23.648  0.00  0.00    +0.000 C 
ATOM     15  F   UNL     1      -2.496  14.793  22.720  0.00  0.00    +0.000 F 
ATOM     16  F   UNL     1      -2.873  14.200  24.799  0.00  0.00    +0.000 F 
ATOM     17  F   UNL     1      -0.929  13.806  23.873  0.00  0.00    +0.000 F 
ENDBRANCH  13  14
ENDBRANCH  10  13
ENDBRANCH   4   7
BRANCH   1  18
ATOM     18  C   UNL     1       3.196   6.610  17.903  0.00  0.00    +0.000 C 
BRANCH  18  19
ATOM     19  O   UNL     1       3.155   5.303  18.495  0.00  0.00    +0.000 OA
BRANCH  19  28
ATOM     20  C   UNL     1       6.806   4.894  14.262  0.00  0.00    +0.000 A 
ATOM     21  C   UNL     1       5.560   4.412  14.603  0.00  0.00    +0.000 A 
ATOM     22  N   UNL     1       5.467   4.620  15.959  0.00  0.00    +0.000 N 
ATOM     23  C   UNL     1       6.634   5.181  16.380  0.00  0.00    +0.000 A 
ATOM     24  N   UNL     1       7.459   5.381  15.371  0.00  0.00    +0.000 NA
ATOM     25  S   UNL     1       7.073   5.551  18.001  0.00  0.00    +0.000 S 
ATOM     26  O   UNL     1       8.098   4.454  18.455  0.00  0.00    +0.000 OA
ATOM     27  C   UNL     1       5.549   5.286  18.885  0.00  0.00    +0.000 C 
ATOM     28  C   UNL     1       4.370   4.539  18.268  0.00  0.00    +0.000 C 
ATOM     29  C   UNL     1       4.380   4.157  16.781  0.00  0.00    +0.000 C 
BRANCH  20  31
ATOM     30  O   UNL     1       8.303   5.772  12.770  0.00  0.00    +0.000 OA
ATOM     31  N   UNL     1       7.439   4.901  12.959  0.00  0.00    +0.000 N 
ATOM     32  O   UNL     1       7.086   4.039  12.143  0.00  0.00    +0.000 OA
ENDBRANCH  20  31
ENDBRANCH  19  28
ENDBRANCH  18  19
ENDBRANCH   1  18
TORSDOF 7
ENDMDL
MODEL 5
REMARK VINA RESULT:      -9.2      0.615      1.081
REMARK  Name = 
REMARK  7 active torsions:
REMARK  status: ('A' for Active; 'I' for Inactive)
REMARK    1  A    between atoms: N_2  and  C_4
REMARK    2  A    between atoms: C_12  and  O_13
REMARK    3  A    between atoms: O_13  and  C_14
REMARK    4  A    between atoms: C_14  and  C_15
REMARK    5  A    between atoms: C_18  and  C_19
REMARK    6  A    between atoms: C_22  and  O_23
REMARK    7  A    between atoms: O_23  and  C_24
REMARK                            x       y       z     vdW  Elec       q    Type
REMARK                         _______ _______ _______ _____ _____    ______ ____
ROOT
ATOM      1  C   UNL     1       2.435   7.616  18.594  0.00  0.00    +0.000 A 
ATOM      2  C   UNL     1       1.997   8.737  17.904  0.00  0.00    +0.000 A 
ATOM      3  C   UNL     1       1.224   9.680  18.578  0.00  0.00    +0.000 A 
ATOM      4  C   UNL     1       0.890   9.500  19.928  0.00  0.00    +0.000 A 
ATOM      5  C   UNL     1       1.404   8.350  20.530  0.00  0.00    +0.000 A 
ATOM      6  N   UNL     1       2.158   7.415  19.906  0.00  0.00    +0.000 NA
ENDROOT
BRANCH   4   7
ATOM      7  C   UNL     1       0.034  10.449  20.658  0.00  0.00    +0.000 A 
ATOM      8  C   UNL     1      -0.771  11.379  19.977  0.00  0.00    +0.000 A 
ATOM      9  C   UNL     1      -1.596  12.266  20.671  0.00  0.00    +0.000 A 
ATOM     10  C   UNL     1      -1.659  12.243  22.061  0.00  0.00    +0.000 A 
ATOM     11  C   UNL     1      -0.839  11.360  22.758  0.00  0.00    +0.000 A 
ATOM     12  C   UNL     1      -0.018  10.466  22.063  0.00  0.00    +0.000 A 
BRANCH  10  13
ATOM     13  O   UNL     1      -2.506  13.151  22.611  0.00  0.00    +0.000 OA
BRANCH  13  14
ATOM     14  C   UNL     1      -3.746  12.718  23.144  0.00  0.00    +0.000 C 
ATOM     15  F   UNL     1      -3.642  11.767  24.098  0.00  0.00    +0.000 F 
ATOM     16  F   UNL     1      -4.405  13.779  23.661  0.00  0.00    +0.000 F 
ATOM     17  F   UNL     1      -4.491  12.209  22.137  0.00  0.00    +0.000 F 
ENDBRANCH  13  14
ENDBRANCH  10  13
ENDBRANCH   4   7
BRANCH   1  18
ATOM     18  C   UNL     1       3.167   6.511  17.878  0.00  0.00    +0.000 C 
BRANCH  18  19
ATOM     19  O   UNL     1       3.266   5.331  18.690  0.00  0.00    +0.000 OA
BRANCH  19  28
ATOM     20  C   UNL     1       6.776   4.898  14.341  0.00  0.00    +0.000 A 
ATOM     21  C   UNL     1       5.538   4.425  14.722  0.00  0.00    +0.000 A 
ATOM     22  N   UNL     1       5.490   4.632  16.081  0.00  0.00    +0.000 N 
ATOM     23  C   UNL     1       6.674   5.183  16.464  0.00  0.00    +0.000 A 
ATOM     24  N   UNL     1       7.467   5.378  15.429  0.00  0.00    +0.000 NA
ATOM     25  S   UNL     1       7.167   5.549  18.070  0.00  0.00    +0.000 S 
ATOM     26  O   UNL     1       8.198   4.443  18.490  0.00  0.00    +0.000 OA
ATOM     27  C   UNL     1       5.671   5.294  19.002  0.00  0.00    +0.000 C 
ATOM     28  C   UNL     1       4.467   4.558  18.423  0.00  0.00    +0.000 C 
ATOM     29  C   UNL     1       4.426   4.177  16.937  0.00  0.00    +0.000 C 
BRANCH  20  31
ATOM     30  O   UNL     1       8.248   5.751  12.811  0.00  0.00    +0.000 OA
ATOM     31  N   UNL     1       7.366   4.900  13.019  0.00  0.00    +0.000 N 
ATOM     32  O   UNL     1       6.965   4.057  12.207  0.00  0.00    +0.000 OA
ENDBRANCH  20  31
ENDBRANCH  19  28
ENDBRANCH  18  19
ENDBRANCH   1  18
TORSDOF 7
ENDMDL
MODEL 6
REMARK VINA RESULT:      -9.1      0.677      1.142
REMARK  Name = 
REMARK  7 active torsions:
REMARK  status: ('A' for Active; 'I' for Inactive)
REMARK    1  A    between atoms: N_2  and  C_4
REMARK    2  A    between atoms: C_12  and  O_13
REMARK    3  A    between atoms: O_13  and  C_14
REMARK    4  A    between atoms: C_14  and  C_15
REMARK    5  A    between atoms: C_18  and  C_19
REMARK    6  A    between atoms: C_22  and  O_23
REMARK    7  A    between atoms: O_23  and  C_24
REMARK                            x       y       z     vdW  Elec       q    Type
REMARK                         _______ _______ _______ _____ _____    ______ ____
ROOT
ATOM      1  C   UNL     1       2.338   7.480  18.901  0.00  0.00    +0.000 A 
ATOM      2  C   UNL     1       2.001   7.100  20.193  0.00  0.00    +0.000 A 
ATOM      3  C   UNL     1       1.246   7.972  20.973  0.00  0.00    +0.000 A 
ATOM      4  C   UNL     1       0.837   9.214  20.469  0.00  0.00    +0.000 A 
ATOM      5  C   UNL     1       1.210   9.484  19.150  0.00  0.00    +0.000 A 
ATOM      6  N   UNL     1       1.941   8.660  18.364  0.00  0.00    +0.000 NA
ENDROOT
BRANCH   4   7
ATOM      7  C   UNL     1       0.083  10.182  21.281  0.00  0.00    +0.000 A 
ATOM      8  C   UNL     1      -0.124  11.501  20.840  0.00  0.00    +0.000 A 
ATOM      9  C   UNL     1      -0.855  12.412  21.604  0.00  0.00    +0.000 A 
ATOM     10  C   UNL     1      -1.418  12.035  22.820  0.00  0.00    +0.000 A 
ATOM     11  C   UNL     1      -1.190  10.748  23.297  0.00  0.00    +0.000 A 
ATOM     12  C   UNL     1      -0.464   9.831  22.529  0.00  0.00    +0.000 A 
BRANCH  10  13
ATOM     13  O   UNL     1      -2.111  13.013  23.457  0.00  0.00    +0.000 OA
BRANCH  13  14
ATOM     14  C   UNL     1      -3.410  13.357  23.008  0.00  0.00    +0.000 C 
ATOM     15  F   UNL     1      -3.451  14.419  22.176  0.00  0.00    +0.000 F 
ATOM     16  F   UNL     1      -3.962  12.294  22.380  0.00  0.00    +0.000 F 
ATOM     17  F   UNL     1      -4.172  13.651  24.086  0.00  0.00    +0.000 F 
ENDBRANCH  13  14
ENDBRANCH  10  13
ENDBRANCH   4   7
BRANCH   1  18
ATOM     18  C   UNL     1       3.255   6.627  18.064  0.00  0.00    +0.000 C 
BRANCH  18  19
ATOM     19  O   UNL     1       3.141   5.238  18.407  0.00  0.00    +0.000 OA
BRANCH  19  28
ATOM     20  C   UNL     1       6.980   5.013  14.328  0.00  0.00    +0.000 A 
ATOM     21  C   UNL     1       5.730   4.498  14.602  0.00  0.00    +0.000 A 
ATOM     22  N   UNL     1       5.574   4.667  15.957  0.00  0.00    +0.000 N 
ATOM     23  C   UNL     1       6.711   5.237  16.444  0.00  0.00    +0.000 A 
ATOM     24  N   UNL     1       7.574   5.480  15.477  0.00  0.00    +0.000 NA
ATOM     25  S   UNL     1       7.071   5.570  18.091  0.00  0.00    +0.000 S 
ATOM     26  O   UNL     1       8.097   4.480  18.560  0.00  0.00    +0.000 OA
ATOM     27  C   UNL     1       5.516   5.253  18.900  0.00  0.00    +0.000 C 
ATOM     28  C   UNL     1       4.380   4.502  18.212  0.00  0.00    +0.000 C 
ATOM     29  C   UNL     1       4.461   4.162  16.718  0.00  0.00    +0.000 C 
BRANCH  20  31
ATOM     30  O   UNL     1       8.631   5.849  12.981  0.00  0.00    +0.000 OA
ATOM     31  N   UNL     1       7.668   5.067  13.055  0.00  0.00    +0.000 N 
ATOM     32  O   UNL     1       7.261   4.329  12.148  0.00  0.00    +0.000 OA
ENDBRANCH  20  31
ENDBRANCH  19  28
ENDBRANCH  18  19
ENDBRANCH   1  18
TORSDOF 7
ENDMDL
MODEL 7
REMARK VINA RESULT:      -8.9      0.761      1.487
REMARK  Name = 
REMARK  7 active torsions:
REMARK  status: ('A' for Active; 'I' for Inactive)
REMARK    1  A    between atoms: N_2  and  C_4
REMARK    2  A    between atoms: C_12  and  O_13
REMARK    3  A    between atoms: O_13  and  C_14
REMARK    4  A    between atoms: C_14  and  C_15
REMARK    5  A    between atoms: C_18  and  C_19
REMARK    6  A    between atoms: C_22  and  O_23
REMARK    7  A    between atoms: O_23  and  C_24
REMARK                            x       y       z     vdW  Elec       q    Type
REMARK                         _______ _______ _______ _____ _____    ______ ____
ROOT
ATOM      1  C   UNL     1       2.280   7.667  18.850  0.00  0.00    +0.000 A 
ATOM      2  C   UNL     1       2.020   7.345  20.174  0.00  0.00    +0.000 A 
ATOM      3  C   UNL     1       1.249   8.217  20.939  0.00  0.00    +0.000 A 
ATOM      4  C   UNL     1       0.747   9.403  20.385  0.00  0.00    +0.000 A 
ATOM      5  C   UNL     1       1.048   9.616  19.038  0.00  0.00    +0.000 A 
ATOM      6  N   UNL     1       1.792   8.789  18.266  0.00  0.00    +0.000 NA
ENDROOT
BRANCH   4   7
ATOM      7  C   UNL     1      -0.028  10.373  21.175  0.00  0.00    +0.000 A 
ATOM      8  C   UNL     1      -0.524  10.045  22.449  0.00  0.00    +0.000 A 
ATOM      9  C   UNL     1      -1.244  10.972  23.204  0.00  0.00    +0.000 A 
ATOM     10  C   UNL     1      -1.476  12.258  22.725  0.00  0.00    +0.000 A 
ATOM     11  C   UNL     1      -1.031  12.592  21.449  0.00  0.00    +0.000 A 
ATOM     12  C   UNL     1      -0.303  11.665  20.694  0.00  0.00    +0.000 A 
BRANCH  10  13
ATOM     13  O   UNL     1      -2.180  13.063  23.562  0.00  0.00    +0.000 OA
BRANCH  13  14
ATOM     14  C   UNL     1      -3.550  13.317  23.300  0.00  0.00    +0.000 C 
ATOM     15  F   UNL     1      -4.291  13.569  24.401  0.00  0.00    +0.000 F 
ATOM     16  F   UNL     1      -3.656  14.369  22.457  0.00  0.00    +0.000 F 
ATOM     17  F   UNL     1      -4.078  12.233  22.689  0.00  0.00    +0.000 F 
ENDBRANCH  13  14
ENDBRANCH  10  13
ENDBRANCH   4   7
BRANCH   1  18
ATOM     18  C   UNL     1       3.209   6.819  18.021  0.00  0.00    +0.000 C 
BRANCH  18  19
ATOM     19  O   UNL     1       3.021   5.421  18.283  0.00  0.00    +0.000 OA
BRANCH  19  28
ATOM     20  C   UNL     1       6.963   5.032  14.317  0.00  0.00    +0.000 A 
ATOM     21  C   UNL     1       5.691   4.558  14.561  0.00  0.00    +0.000 A 
ATOM     22  N   UNL     1       5.503   4.748  15.910  0.00  0.00    +0.000 N 
ATOM     23  C   UNL     1       6.642   5.290  16.422  0.00  0.00    +0.000 A 
ATOM     24  N   UNL     1       7.539   5.495  15.477  0.00  0.00    +0.000 NA
ATOM     25  S   UNL     1       6.966   5.632  18.075  0.00  0.00    +0.000 S 
ATOM     26  O   UNL     1       7.946   4.518  18.585  0.00  0.00    +0.000 OA
ATOM     27  C   UNL     1       5.380   5.371  18.843  0.00  0.00    +0.000 C 
ATOM     28  C   UNL     1       4.242   4.646  18.132  0.00  0.00    +0.000 C 
ATOM     29  C   UNL     1       4.355   4.286  16.644  0.00  0.00    +0.000 C 
BRANCH  20  31
ATOM     30  O   UNL     1       8.646   5.837  12.991  0.00  0.00    +0.000 OA
ATOM     31  N   UNL     1       7.688   5.049  13.064  0.00  0.00    +0.000 N 
ATOM     32  O   UNL     1       7.314   4.278  12.170  0.00  0.00    +0.000 OA
ENDBRANCH  20  31
ENDBRANCH  19  28
ENDBRANCH  18  19
ENDBRANCH   1  18
TORSDOF 7
ENDMDL
MODEL 8
REMARK VINA RESULT:      -8.9      0.711      1.215
REMARK  Name = 
REMARK  7 active torsions:
REMARK  status: ('A' for Active; 'I' for Inactive)
REMARK    1  A    between atoms: N_2  and  C_4
REMARK    2  A    between atoms: C_12  and  O_13
REMARK    3  A    between atoms: O_13  and  C_14
REMARK    4  A    between atoms: C_14  and  C_15
REMARK    5  A    between atoms: C_18  and  C_19
REMARK    6  A    between atoms: C_22  and  O_23
REMARK    7  A    between atoms: O_23  and  C_24
REMARK                            x       y       z     vdW  Elec       q    Type
REMARK                         _______ _______ _______ _____ _____    ______ ____
ROOT
ATOM      1  C   UNL     1       2.289   6.419  18.871  0.00  0.00    +0.000 A 
ATOM      2  C   UNL     1       1.833   6.073  20.136  0.00  0.00    +0.000 A 
ATOM      3  C   UNL     1       1.209   7.046  20.913  0.00  0.00    +0.000 A 
ATOM      4  C   UNL     1       1.047   8.352  20.432  0.00  0.00    +0.000 A 
ATOM      5  C   UNL     1       1.520   8.584  19.139  0.00  0.00    +0.000 A 
ATOM      6  N   UNL     1       2.130   7.663  18.356  0.00  0.00    +0.000 NA
ENDROOT
BRANCH   4   7
ATOM      7  C   UNL     1       0.439   9.418  21.244  0.00  0.00    +0.000 A 
ATOM      8  C   UNL     1       0.507  10.766  20.849  0.00  0.00    +0.000 A 
ATOM      9  C   UNL     1      -0.086  11.773  21.612  0.00  0.00    +0.000 A 
ATOM     10  C   UNL     1      -0.780  11.471  22.780  0.00  0.00    +0.000 A 
ATOM     11  C   UNL     1      -0.825  10.149  23.213  0.00  0.00    +0.000 A 
ATOM     12  C   UNL     1      -0.237   9.137  22.446  0.00  0.00    +0.000 A 
BRANCH  10  13
ATOM     13  O   UNL     1      -1.316  12.540  23.421  0.00  0.00    +0.000 OA
BRANCH  13  14
ATOM     14  C   UNL     1      -2.702  12.810  23.295  0.00  0.00    +0.000 C 
ATOM     15  F   UNL     1      -3.225  12.494  22.091  0.00  0.00    +0.000 F 
ATOM     16  F   UNL     1      -3.377  12.134  24.251  0.00  0.00    +0.000 F 
ATOM     17  F   UNL     1      -2.901  14.133  23.495  0.00  0.00    +0.000 F 
ENDBRANCH  13  14
ENDBRANCH  10  13
ENDBRANCH   4   7
BRANCH   1  18
ATOM     18  C   UNL     1       3.078   5.438  18.044  0.00  0.00    +0.000 C 
BRANCH  18  19
ATOM     19  O   UNL     1       3.431   4.272  18.804  0.00  0.00    +0.000 OA
BRANCH  19  28
ATOM     20  C   UNL     1       7.043   4.851  14.557  0.00  0.00    +0.000 A 
ATOM     21  C   UNL     1       5.948   4.080  14.886  0.00  0.00    +0.000 A 
ATOM     22  N   UNL     1       5.819   4.222  16.247  0.00  0.00    +0.000 N 
ATOM     23  C   UNL     1       6.826   5.029  16.683  0.00  0.00    +0.000 A 
ATOM     24  N   UNL     1       7.572   5.445  15.679  0.00  0.00    +0.000 NA
ATOM     25  S   UNL     1       7.177   5.446  18.313  0.00  0.00    +0.000 S 
ATOM     26  O   UNL     1       8.435   4.608  18.734  0.00  0.00    +0.000 OA
ATOM     27  C   UNL     1       5.765   4.805  19.191  0.00  0.00    +0.000 C 
ATOM     28  C   UNL     1       4.790   3.821  18.553  0.00  0.00    +0.000 C 
ATOM     29  C   UNL     1       4.877   3.494  17.056  0.00  0.00    +0.000 C 
BRANCH  20  31
ATOM     30  O   UNL     1       7.086   4.479  12.300  0.00  0.00    +0.000 OA
ATOM     31  N   UNL     1       7.646   5.042  13.255  0.00  0.00    +0.000 N 
ATOM     32  O   UNL     1       8.656   5.756  13.186  0.00  0.00    +0.000 OA
ENDBRANCH  20  31
ENDBRANCH  19  28
ENDBRANCH  18  19
ENDBRANCH   1  18
TORSDOF 7
ENDMDL
MODEL 9
REMARK VINA RESULT:      -8.7      1.240      1.621
REMARK  Name = 
REMARK  7 active torsions:
REMARK  status: ('A' for Active; 'I' for Inactive)
REMARK    1  A    between atoms: N_2  and  C_4
REMARK    2  A    between atoms: C_12  and  O_13
REMARK    3  A    between atoms: O_13  and  C_14
REMARK    4  A    between atoms: C_14  and  C_15
REMARK    5  A    between atoms: C_18  and  C_19
REMARK    6  A    between atoms: C_22  and  O_23
REMARK    7  A    between atoms: O_23  and  C_24
REMARK                            x       y       z     vdW  Elec       q    Type
REMARK                         _______ _______ _______ _____ _____    ______ ____
ROOT
ATOM      1  C   UNL     1       2.631   7.106  18.462  0.00  0.00    +0.000 A 
ATOM      2  C   UNL     1       2.289   8.222  17.712  0.00  0.00    +0.000 A 
ATOM      3  C   UNL     1       1.559   9.241  18.321  0.00  0.00    +0.000 A 
ATOM      4  C   UNL     1       1.172   9.141  19.664  0.00  0.00    +0.000 A 
ATOM      5  C   UNL     1       1.590   7.987  20.330  0.00  0.00    +0.000 A 
ATOM      6  N   UNL     1       2.300   6.979  19.771  0.00  0.00    +0.000 NA
ENDROOT
BRANCH   4   7
ATOM      7  C   UNL     1       0.358  10.173  20.325  0.00  0.00    +0.000 A 
ATOM      8  C   UNL     1       0.165  10.169  21.718  0.00  0.00    +0.000 A 
ATOM      9  C   UNL     1      -0.593  11.159  22.345  0.00  0.00    +0.000 A 
ATOM     10  C   UNL     1      -1.168  12.192  21.611  0.00  0.00    +0.000 A 
ATOM     11  C   UNL     1      -1.026  12.193  20.226  0.00  0.00    +0.000 A 
ATOM     12  C   UNL     1      -0.261  11.205  19.597  0.00  0.00    +0.000 A 
BRANCH  10  13
ATOM     13  O   UNL     1      -1.871  13.093  22.343  0.00  0.00    +0.000 OA
BRANCH  13  14
ATOM     14  C   UNL     1      -1.200  14.196  22.929  0.00  0.00    +0.000 C 
ATOM     15  F   UNL     1      -1.806  15.387  22.734  0.00  0.00    +0.000 F 
ATOM     16  F   UNL     1      -1.075  13.987  24.259  0.00  0.00    +0.000 F 
ATOM     17  F   UNL     1       0.041  14.274  22.397  0.00  0.00    +0.000 F 
ENDBRANCH  13  14
ENDBRANCH  10  13
ENDBRANCH   4   7
BRANCH   1  18
ATOM     18  C   UNL     1       3.311   5.926  17.817  0.00  0.00    +0.000 C 
BRANCH  18  19
ATOM     19  O   UNL     1       3.728   4.960  18.792  0.00  0.00    +0.000 OA
BRANCH  19  28
ATOM     20  C   UNL     1       6.850   4.793  14.139  0.00  0.00    +0.000 A 
ATOM     21  C   UNL     1       5.639   4.311  14.591  0.00  0.00    +0.000 A 
ATOM     22  N   UNL     1       5.710   4.420  15.959  0.00  0.00    +0.000 N 
ATOM     23  C   UNL     1       6.933   4.926  16.278  0.00  0.00    +0.000 A 
ATOM     24  N   UNL     1       7.640   5.184  15.195  0.00  0.00    +0.000 NA
ATOM     25  S   UNL     1       7.567   5.168  17.858  0.00  0.00    +0.000 S 
ATOM     26  O   UNL     1       8.608   4.022  18.109  0.00  0.00    +0.000 OA
ATOM     27  C   UNL     1       6.150   4.868  18.894  0.00  0.00    +0.000 C 
ATOM     28  C   UNL     1       4.888   4.191  18.370  0.00  0.00    +0.000 C 
ATOM     29  C   UNL     1       4.714   3.919  16.869  0.00  0.00    +0.000 C 
BRANCH  20  31
ATOM     30  O   UNL     1       6.952   3.987  12.000  0.00  0.00    +0.000 OA
ATOM     31  N   UNL     1       7.326   4.883  12.775  0.00  0.00    +0.000 N 
ATOM     32  O   UNL     1       8.052   5.842  12.479  0.00  0.00    +0.000 OA
ENDBRANCH  20  31
ENDBRANCH  19  28
ENDBRANCH  18  19
ENDBRANCH   1  18
TORSDOF 7
ENDMDL
