MODEL 1
REMARK VINA RESULT:      -7.7      0.000      0.000
REMARK  Name = 
REMARK  9 active torsions:
REMARK  status: ('A' for Active; 'I' for Inactive)
REMARK    1  A    between atoms: C_1  and  C_2
REMARK    2  A    between atoms: C_2  and  C_3
REMARK    3  A    between atoms: C_3  and  C_4
REMARK    4  A    between atoms: C_4  and  N_5
REMARK    5  A    between atoms: C_10  and  C_11
REMARK    6  A    between atoms: C_11  and  N_12
REMARK    7  A    between atoms: N_12  and  C_13
REMARK    8  A    between atoms: C_19  and  O_20
REMARK    9  A    between atoms: O_20  and  C_21
REMARK                            x       y       z     vdW  Elec       q    Type
REMARK                         _______ _______ _______ _____ _____    ______ ____
ROOT
ATOM      1  C   UNL     1       2.029   5.156  20.721  0.00  0.00    +0.000 C 
ENDROOT
BRANCH   1   7
ATOM      2  N   UNL     1       0.779  10.902  19.143  0.00  0.00    +0.000 NA
ATOM      3  C   UNL     1       1.811  10.603  18.144  0.00  0.00    +0.000 C 
ATOM      4  C   UNL     1       2.218   9.137  17.920  0.00  0.00    +0.000 C 
ATOM      5  N   UNL     1       1.956   8.310  19.075  0.00  0.00    +0.000 N 
ATOM      6  N   UNL     1       2.321   7.014  19.099  0.00  0.00    +0.000 NA
ATOM      7  C   UNL     1       1.831   6.569  20.269  0.00  0.00    +0.000 A 
ATOM      8  C   UNL     1       1.176   7.600  20.983  0.00  0.00    +0.000 A 
ATOM      9  C   UNL     1       1.276   8.711  20.180  0.00  0.00    +0.000 A 
ATOM     10  C   UNL     1       0.818  10.102  20.364  0.00  0.00    +0.000 C 
BRANCH   2  11
ATOM     11  C   UNL     1      -0.521  11.294  18.605  0.00  0.00    +0.000 C 
BRANCH  11  12
ATOM     12  C   UNL     1      -1.537  10.142  18.505  0.00  0.00    +0.000 C 
BRANCH  12  14
ATOM     13  C   UNL     1      -2.592  11.131  16.458  0.00  0.00    +0.000 C 
ATOM     14  C   UNL     1      -1.989   9.873  17.070  0.00  0.00    +0.000 C 
ENDBRANCH  12  14
ENDBRANCH  11  12
ENDBRANCH   2  11
ENDBRANCH   1   7
BRANCH   1  15
ATOM     15  N   UNL     1       2.271   4.252  19.585  0.00  0.00    +0.000 NA
ATOM     16  H   UNL     1       2.374   4.858  18.767  0.00  0.00    +0.000 HD
BRANCH  15  17
ATOM     17  C   UNL     1       3.487   3.422  19.700  0.00  0.00    +0.000 C 
ATOM     18  C   UNL     1       3.610   2.328  18.629  0.00  0.00    +0.000 C 
ATOM     19  C   UNL     1       3.687   2.920  17.227  0.00  0.00    +0.000 C 
ATOM     20  C   UNL     1       4.716   4.013  17.109  0.00  0.00    +0.000 A 
ATOM     21  C   UNL     1       5.176   4.388  15.840  0.00  0.00    +0.000 A 
ATOM     22  C   UNL     1       6.115   5.409  15.703  0.00  0.00    +0.000 A 
ATOM     23  C   UNL     1       6.607   6.078  16.823  0.00  0.00    +0.000 A 
ATOM     24  C   UNL     1       6.139   5.721  18.087  0.00  0.00    +0.000 A 
ATOM     25  C   UNL     1       5.184   4.700  18.241  0.00  0.00    +0.000 A 
ATOM     26  C   UNL     1       4.743   4.320  19.636  0.00  0.00    +0.000 C 
BRANCH  23  27
ATOM     27  O   UNL     1       7.535   7.046  16.553  0.00  0.00    +0.000 OA
ATOM     28  C   UNL     1       7.898   7.900  17.631  0.00  0.00    +0.000 C 
ENDBRANCH  23  27
ENDBRANCH  15  17
ENDBRANCH   1  15
TORSDOF 7
ENDMDL
MODEL 2
REMARK VINA RESULT:      -7.3      1.441      2.052
REMARK  Name = 
REMARK  9 active torsions:
REMARK  status: ('A' for Active; 'I' for Inactive)
REMARK    1  A    between atoms: C_1  and  C_2
REMARK    2  A    between atoms: C_2  and  C_3
REMARK    3  A    between atoms: C_3  and  C_4
REMARK    4  A    between atoms: C_4  and  N_5
REMARK    5  A    between atoms: C_10  and  C_11
REMARK    6  A    between atoms: C_11  and  N_12
REMARK    7  A    between atoms: N_12  and  C_13
REMARK    8  A    between atoms: C_19  and  O_20
REMARK    9  A    between atoms: O_20  and  C_21
REMARK                            x       y       z     vdW  Elec       q    Type
REMARK                         _______ _______ _______ _____ _____    ______ ____
ROOT
ATOM      1  C   UNL     1       2.014   5.202  20.982  0.00  0.00    +0.000 C 
ENDROOT
BRANCH   1   7
ATOM      2  N   UNL     1       0.758  10.837  19.051  0.00  0.00    +0.000 NA
ATOM      3  C   UNL     1       1.794  10.480  18.075  0.00  0.00    +0.000 C 
ATOM      4  C   UNL     1       2.205   9.004  17.943  0.00  0.00    +0.000 C 
ATOM      5  N   UNL     1       1.940   8.249  19.145  0.00  0.00    +0.000 N 
ATOM      6  N   UNL     1       2.308   6.957  19.250  0.00  0.00    +0.000 NA
ATOM      7  C   UNL     1       1.815   6.584  20.443  0.00  0.00    +0.000 A 
ATOM      8  C   UNL     1       1.155   7.655  21.090  0.00  0.00    +0.000 A 
ATOM      9  C   UNL     1       1.255   8.715  20.221  0.00  0.00    +0.000 A 
ATOM     10  C   UNL     1       0.793  10.114  20.318  0.00  0.00    +0.000 C 
BRANCH   2  11
ATOM     11  C   UNL     1      -0.541  11.193  18.485  0.00  0.00    +0.000 C 
BRANCH  11  12
ATOM     12  C   UNL     1      -0.973  12.646  18.757  0.00  0.00    +0.000 C 
BRANCH  12  14
ATOM     13  C   UNL     1      -0.225  15.010  19.117  0.00  0.00    +0.000 C 
ATOM     14  C   UNL     1       0.159  13.651  18.546  0.00  0.00    +0.000 C 
ENDBRANCH  12  14
ENDBRANCH  11  12
ENDBRANCH   2  11
ENDBRANCH   1   7
BRANCH   1  15
ATOM     15  N   UNL     1       1.004   4.266  20.461  0.00  0.00    +0.000 NA
ATOM     16  H   UNL     1       0.598   4.726  19.642  0.00  0.00    +0.000 HD
BRANCH  15  17
ATOM     17  C   UNL     1       1.534   2.954  20.038  0.00  0.00    +0.000 C 
ATOM     18  C   UNL     1       1.193   2.572  18.590  0.00  0.00    +0.000 C 
ATOM     19  C   UNL     1       1.788   3.560  17.593  0.00  0.00    +0.000 C 
ATOM     20  C   UNL     1       3.252   3.822  17.831  0.00  0.00    +0.000 A 
ATOM     21  C   UNL     1       4.024   4.386  16.807  0.00  0.00    +0.000 A 
ATOM     22  C   UNL     1       5.377   4.655  17.009  0.00  0.00    +0.000 A 
ATOM     23  C   UNL     1       5.983   4.373  18.233  0.00  0.00    +0.000 A 
ATOM     24  C   UNL     1       5.215   3.828  19.261  0.00  0.00    +0.000 A 
ATOM     25  C   UNL     1       3.847   3.560  19.077  0.00  0.00    +0.000 A 
ATOM     26  C   UNL     1       3.069   2.928  20.209  0.00  0.00    +0.000 C 
BRANCH  23  27
ATOM     27  O   UNL     1       7.317   4.667  18.295  0.00  0.00    +0.000 OA
ATOM     28  C   UNL     1       7.663   5.972  18.744  0.00  0.00    +0.000 C 
ENDBRANCH  23  27
ENDBRANCH  15  17
ENDBRANCH   1  15
TORSDOF 7
ENDMDL
MODEL 3
REMARK VINA RESULT:      -7.2      1.125      1.570
REMARK  Name = 
REMARK  9 active torsions:
REMARK  status: ('A' for Active; 'I' for Inactive)
REMARK    1  A    between atoms: C_1  and  C_2
REMARK    2  A    between atoms: C_2  and  C_3
REMARK    3  A    between atoms: C_3  and  C_4
REMARK    4  A    between atoms: C_4  and  N_5
REMARK    5  A    between atoms: C_10  and  C_11
REMARK    6  A    between atoms: C_11  and  N_12
REMARK    7  A    between atoms: N_12  and  C_13
REMARK    8  A    between atoms: C_19  and  O_20
REMARK    9  A    between atoms: O_20  and  C_21
REMARK                            x       y       z     vdW  Elec       q    Type
REMARK                         _______ _______ _______ _____ _____    ______ ____
ROOT
ATOM      1  C   UNL     1       2.433   4.763  20.400  0.00  0.00    +0.000 C 
ENDROOT
BRANCH   1   7
ATOM      2  N   UNL     1       0.873  10.561  19.389  0.00  0.00    +0.000 NA
ATOM      3  C   UNL     1       1.805  10.370  18.272  0.00  0.00    +0.000 C 
ATOM      4  C   UNL     1       2.226   8.938  17.899  0.00  0.00    +0.000 C 
ATOM      5  N   UNL     1       2.106   8.023  19.010  0.00  0.00    +0.000 N 
ATOM      6  N   UNL     1       2.507   6.741  18.900  0.00  0.00    +0.000 NA
ATOM      7  C   UNL     1       2.151   6.197  20.077  0.00  0.00    +0.000 A 
ATOM      8  C   UNL     1       1.545   7.151  20.928  0.00  0.00    +0.000 A 
ATOM      9  C   UNL     1       1.532   8.320  20.204  0.00  0.00    +0.000 A 
ATOM     10  C   UNL     1       1.058   9.678  20.537  0.00  0.00    +0.000 C 
BRANCH   2  11
ATOM     11  C   UNL     1      -0.485  10.946  19.014  0.00  0.00    +0.000 C 
BRANCH  11  12
ATOM     12  C   UNL     1      -0.849  12.401  19.365  0.00  0.00    +0.000 C 
BRANCH  12  14
ATOM     13  C   UNL     1      -0.186  14.760  18.847  0.00  0.00    +0.000 C 
ATOM     14  C   UNL     1      -0.483  13.387  18.257  0.00  0.00    +0.000 C 
ENDBRANCH  12  14
ENDBRANCH  11  12
ENDBRANCH   2  11
ENDBRANCH   1   7
BRANCH   1  15
ATOM     15  N   UNL     1       2.413   3.922  19.193  0.00  0.00    +0.000 NA
ATOM     16  H   UNL     1       2.425   4.572  18.403  0.00  0.00    +0.000 HD
BRANCH  15  17
ATOM     17  C   UNL     1       3.567   3.009  19.055  0.00  0.00    +0.000 C 
ATOM     18  C   UNL     1       3.821   2.524  17.620  0.00  0.00    +0.000 C 
ATOM     19  C   UNL     1       4.142   3.684  16.684  0.00  0.00    +0.000 C 
ATOM     20  C   UNL     1       5.214   4.593  17.224  0.00  0.00    +0.000 A 
ATOM     21  C   UNL     1       5.884   5.459  16.351  0.00  0.00    +0.000 A 
ATOM     22  C   UNL     1       6.867   6.324  16.830  0.00  0.00    +0.000 A 
ATOM     23  C   UNL     1       7.196   6.345  18.185  0.00  0.00    +0.000 A 
ATOM     24  C   UNL     1       6.520   5.498  19.061  0.00  0.00    +0.000 A 
ATOM     25  C   UNL     1       5.518   4.627  18.596  0.00  0.00    +0.000 A 
ATOM     26  C   UNL     1       4.847   3.697  19.579  0.00  0.00    +0.000 C 
BRANCH  23  27
ATOM     27  O   UNL     1       8.188   7.225  18.521  0.00  0.00    +0.000 OA
ATOM     28  C   UNL     1       8.138   8.508  17.910  0.00  0.00    +0.000 C 
ENDBRANCH  23  27
ENDBRANCH  15  17
ENDBRANCH   1  15
TORSDOF 7
ENDMDL
MODEL 4
REMARK VINA RESULT:      -7.2      1.598      2.638
REMARK  Name = 
REMARK  9 active torsions:
REMARK  status: ('A' for Active; 'I' for Inactive)
REMARK    1  A    between atoms: C_1  and  C_2
REMARK    2  A    between atoms: C_2  and  C_3
REMARK    3  A    between atoms: C_3  and  C_4
REMARK    4  A    between atoms: C_4  and  N_5
REMARK    5  A    between atoms: C_10  and  C_11
REMARK    6  A    between atoms: C_11  and  N_12
REMARK    7  A    between atoms: N_12  and  C_13
REMARK    8  A    between atoms: C_19  and  O_20
REMARK    9  A    between atoms: O_20  and  C_21
REMARK                            x       y       z     vdW  Elec       q    Type
REMARK                         _______ _______ _______ _____ _____    ______ ____
ROOT
ATOM      1  C   UNL     1       2.601   5.174  20.377  0.00  0.00    +0.000 C 
ENDROOT
BRANCH   1   7
ATOM      2  N   UNL     1       1.431  10.810  18.396  0.00  0.00    +0.000 NA
ATOM      3  C   UNL     1       0.583  10.802  19.593  0.00  0.00    +0.000 C 
ATOM      4  C   UNL     1       0.788   9.688  20.634  0.00  0.00    +0.000 C 
ATOM      5  N   UNL     1       1.380   8.502  20.061  0.00  0.00    +0.000 N 
ATOM      6  N   UNL     1       1.561   7.390  20.799  0.00  0.00    +0.000 NA
ATOM      7  C   UNL     1       2.211   6.559  19.966  0.00  0.00    +0.000 A 
ATOM      8  C   UNL     1       2.417   7.153  18.698  0.00  0.00    +0.000 A 
ATOM      9  C   UNL     1       1.867   8.409  18.797  0.00  0.00    +0.000 A 
ATOM     10  C   UNL     1       1.738   9.506  17.818  0.00  0.00    +0.000 C 
BRANCH   2  11
ATOM     11  C   UNL     1       2.456  11.850  18.360  0.00  0.00    +0.000 C 
BRANCH  11  12
ATOM     12  C   UNL     1       1.905  13.276  18.174  0.00  0.00    +0.000 C 
BRANCH  12  14
ATOM     13  C   UNL     1       3.724  14.614  19.259  0.00  0.00    +0.000 C 
ATOM     14  C   UNL     1       2.258  14.206  19.333  0.00  0.00    +0.000 C 
ENDBRANCH  12  14
ENDBRANCH  11  12
ENDBRANCH   2  11
ENDBRANCH   1   7
BRANCH   1  15
ATOM     15  N   UNL     1       2.407   4.210  19.281  0.00  0.00    +0.000 NA
ATOM     16  H   UNL     1       2.318   4.772  18.431  0.00  0.00    +0.000 HD
BRANCH  15  17
ATOM     17  C   UNL     1       3.520   3.258  19.089  0.00  0.00    +0.000 C 
ATOM     18  C   UNL     1       3.707   2.788  17.639  0.00  0.00    +0.000 C 
ATOM     19  C   UNL     1       4.038   3.950  16.710  0.00  0.00    +0.000 C 
ATOM     20  C   UNL     1       5.161   4.812  17.226  0.00  0.00    +0.000 A 
ATOM     21  C   UNL     1       5.831   5.667  16.342  0.00  0.00    +0.000 A 
ATOM     22  C   UNL     1       6.862   6.488  16.800  0.00  0.00    +0.000 A 
ATOM     23  C   UNL     1       7.238   6.475  18.142  0.00  0.00    +0.000 A 
ATOM     24  C   UNL     1       6.562   5.638  19.029  0.00  0.00    +0.000 A 
ATOM     25  C   UNL     1       5.513   4.812  18.586  0.00  0.00    +0.000 A 
ATOM     26  C   UNL     1       4.842   3.891  19.579  0.00  0.00    +0.000 C 
BRANCH  23  27
ATOM     27  O   UNL     1       8.272   7.313  18.457  0.00  0.00    +0.000 OA
ATOM     28  C   UNL     1       8.187   8.646  17.969  0.00  0.00    +0.000 C 
ENDBRANCH  23  27
ENDBRANCH  15  17
ENDBRANCH   1  15
TORSDOF 7
ENDMDL
MODEL 5
REMARK VINA RESULT:      -7.0      1.702      2.557
REMARK  Name = 
REMARK  9 active torsions:
REMARK  status: ('A' for Active; 'I' for Inactive)
REMARK    1  A    between atoms: C_1  and  C_2
REMARK    2  A    between atoms: C_2  and  C_3
REMARK    3  A    between atoms: C_3  and  C_4
REMARK    4  A    between atoms: C_4  and  N_5
REMARK    5  A    between atoms: C_10  and  C_11
REMARK    6  A    between atoms: C_11  and  N_12
REMARK    7  A    between atoms: N_12  and  C_13
REMARK    8  A    between atoms: C_19  and  O_20
REMARK    9  A    between atoms: O_20  and  C_21
REMARK                            x       y       z     vdW  Elec       q    Type
REMARK                         _______ _______ _______ _____ _____    ______ ____
ROOT
ATOM      1  C   UNL     1       2.188   5.436  20.818  0.00  0.00    +0.000 C 
ENDROOT
BRANCH   1   7
ATOM      2  N   UNL     1       1.500  10.921  18.268  0.00  0.00    +0.000 NA
ATOM      3  C   UNL     1       0.557  11.061  19.383  0.00  0.00    +0.000 C 
ATOM      4  C   UNL     1       0.613  10.036  20.529  0.00  0.00    +0.000 C 
ATOM      5  N   UNL     1       1.184   8.777  20.113  0.00  0.00    +0.000 N 
ATOM      6  N   UNL     1       1.242   7.728  20.957  0.00  0.00    +0.000 NA
ATOM      7  C   UNL     1       1.912   6.796  20.257  0.00  0.00    +0.000 A 
ATOM      8  C   UNL     1       2.254   7.263  18.966  0.00  0.00    +0.000 A 
ATOM      9  C   UNL     1       1.768   8.547  18.909  0.00  0.00    +0.000 A 
ATOM     10  C   UNL     1       1.782   9.557  17.832  0.00  0.00    +0.000 C 
BRANCH   2  11
ATOM     11  C   UNL     1       2.581  11.904  18.234  0.00  0.00    +0.000 C 
BRANCH  11  12
ATOM     12  C   UNL     1       2.390  13.086  19.202  0.00  0.00    +0.000 C 
BRANCH  12  14
ATOM     13  C   UNL     1       0.714  14.925  18.907  0.00  0.00    +0.000 C 
ATOM     14  C   UNL     1       2.079  14.398  18.483  0.00  0.00    +0.000 C 
ENDBRANCH  12  14
ENDBRANCH  11  12
ENDBRANCH   2  11
ENDBRANCH   1   7
BRANCH   1  15
ATOM     15  N   UNL     1       1.342   4.409  20.189  0.00  0.00    +0.000 NA
ATOM     16  H   UNL     1       1.019   4.818  19.308  0.00  0.00    +0.000 HD
BRANCH  15  17
ATOM     17  C   UNL     1       2.033   3.140  19.880  0.00  0.00    +0.000 C 
ATOM     18  C   UNL     1       1.733   2.581  18.481  0.00  0.00    +0.000 C 
ATOM     19  C   UNL     1       2.190   3.536  17.385  0.00  0.00    +0.000 C 
ATOM     20  C   UNL     1       3.610   4.003  17.569  0.00  0.00    +0.000 A 
ATOM     21  C   UNL     1       4.295   4.559  16.481  0.00  0.00    +0.000 A 
ATOM     22  C   UNL     1       5.604   5.016  16.631  0.00  0.00    +0.000 A 
ATOM     23  C   UNL     1       6.250   4.932  17.864  0.00  0.00    +0.000 A 
ATOM     24  C   UNL     1       5.566   4.395  18.953  0.00  0.00    +0.000 A 
ATOM     25  C   UNL     1       4.242   3.940  18.822  0.00  0.00    +0.000 A 
ATOM     26  C   UNL     1       3.560   3.325  20.023  0.00  0.00    +0.000 C 
BRANCH  23  27
ATOM     27  O   UNL     1       7.536   5.398  17.872  0.00  0.00    +0.000 OA
ATOM     28  C   UNL     1       8.070   5.776  19.135  0.00  0.00    +0.000 C 
ENDBRANCH  23  27
ENDBRANCH  15  17
ENDBRANCH   1  15
TORSDOF 7
ENDMDL
MODEL 6
REMARK VINA RESULT:      -6.8      1.492      1.977
REMARK  Name = 
REMARK  9 active torsions:
REMARK  status: ('A' for Active; 'I' for Inactive)
REMARK    1  A    between atoms: C_1  and  C_2
REMARK    2  A    between atoms: C_2  and  C_3
REMARK    3  A    between atoms: C_3  and  C_4
REMARK    4  A    between atoms: C_4  and  N_5
REMARK    5  A    between atoms: C_10  and  C_11
REMARK    6  A    between atoms: C_11  and  N_12
REMARK    7  A    between atoms: N_12  and  C_13
REMARK    8  A    between atoms: C_19  and  O_20
REMARK    9  A    between atoms: O_20  and  C_21
REMARK                            x       y       z     vdW  Elec       q    Type
REMARK                         _______ _______ _______ _____ _____    ______ ____
ROOT
ATOM      1  C   UNL     1       1.785   6.434  20.949  0.00  0.00    +0.000 C 
ENDROOT
BRANCH   1   7
ATOM      2  N   UNL     1      -0.765  11.795  19.603  0.00  0.00    +0.000 NA
ATOM      3  C   UNL     1       0.462  11.913  18.808  0.00  0.00    +0.000 C 
ATOM      4  C   UNL     1       1.302  10.649  18.556  0.00  0.00    +0.000 C 
ATOM      5  N   UNL     1       1.095   9.641  19.569  0.00  0.00    +0.000 N 
ATOM      6  N   UNL     1       1.805   8.496  19.565  0.00  0.00    +0.000 NA
ATOM      7  C   UNL     1       1.272   7.789  20.577  0.00  0.00    +0.000 A 
ATOM      8  C   UNL     1       0.239   8.508  21.224  0.00  0.00    +0.000 A 
ATOM      9  C   UNL     1       0.153   9.700  20.545  0.00  0.00    +0.000 A 
ATOM     10  C   UNL     1      -0.708  10.884  20.741  0.00  0.00    +0.000 C 
BRANCH   2  11
ATOM     11  C   UNL     1      -2.013  11.895  18.849  0.00  0.00    +0.000 C 
BRANCH  11  12
ATOM     12  C   UNL     1      -2.155  10.855  17.722  0.00  0.00    +0.000 C 
BRANCH  12  14
ATOM     13  C   UNL     1      -4.613  11.326  17.831  0.00  0.00    +0.000 C 
ATOM     14  C   UNL     1      -3.554  10.246  17.649  0.00  0.00    +0.000 C 
ENDBRANCH  12  14
ENDBRANCH  11  12
ENDBRANCH   2  11
ENDBRANCH   1   7
BRANCH   1  15
ATOM     15  N   UNL     1       0.925   5.364  20.418  0.00  0.00    +0.000 NA
ATOM     16  H   UNL     1       0.841   5.549  19.415  0.00  0.00    +0.000 HD
BRANCH  15  17
ATOM     17  C   UNL     1       1.457   3.997  20.591  0.00  0.00    +0.000 C 
ATOM     18  C   UNL     1       1.038   3.011  19.490  0.00  0.00    +0.000 C 
ATOM     19  C   UNL     1       1.550   3.447  18.122  0.00  0.00    +0.000 C 
ATOM     20  C   UNL     1       3.019   3.777  18.124  0.00  0.00    +0.000 A 
ATOM     21  C   UNL     1       3.715   3.819  16.909  0.00  0.00    +0.000 A 
ATOM     22  C   UNL     1       5.071   4.140  16.884  0.00  0.00    +0.000 A 
ATOM     23  C   UNL     1       5.756   4.430  18.063  0.00  0.00    +0.000 A 
ATOM     24  C   UNL     1       5.064   4.406  19.273  0.00  0.00    +0.000 A 
ATOM     25  C   UNL     1       3.693   4.094  19.315  0.00  0.00    +0.000 A 
ATOM     26  C   UNL     1       3.000   4.039  20.657  0.00  0.00    +0.000 C 
BRANCH  23  27
ATOM     27  O   UNL     1       7.085   4.711  17.902  0.00  0.00    +0.000 OA
ATOM     28  C   UNL     1       7.652   5.653  18.804  0.00  0.00    +0.000 C 
ENDBRANCH  23  27
ENDBRANCH  15  17
ENDBRANCH   1  15
TORSDOF 7
ENDMDL
MODEL 7
REMARK VINA RESULT:      -6.8      4.496      7.254
REMARK  Name = 
REMARK  9 active torsions:
REMARK  status: ('A' for Active; 'I' for Inactive)
REMARK    1  A    between atoms: C_1  and  C_2
REMARK    2  A    between atoms: C_2  and  C_3
REMARK    3  A    between atoms: C_3  and  C_4
REMARK    4  A    between atoms: C_4  and  N_5
REMARK    5  A    between atoms: C_10  and  C_11
REMARK    6  A    between atoms: C_11  and  N_12
REMARK    7  A    between atoms: N_12  and  C_13
REMARK    8  A    between atoms: C_19  and  O_20
REMARK    9  A    between atoms: O_20  and  C_21
REMARK                            x       y       z     vdW  Elec       q    Type
REMARK                         _______ _______ _______ _____ _____    ______ ____
ROOT
ATOM      1  C   UNL     1       7.594   7.227  17.252  0.00  0.00    +0.000 C 
ENDROOT
BRANCH   1   7
ATOM      2  N   UNL     1       9.560  12.232  20.107  0.00  0.00    +0.000 NA
ATOM      3  C   UNL     1       9.285  12.808  18.785  0.00  0.00    +0.000 C 
ATOM      4  C   UNL     1       8.447  11.993  17.786  0.00  0.00    +0.000 C 
ATOM      5  N   UNL     1       8.506  10.574  18.046  0.00  0.00    +0.000 N 
ATOM      6  N   UNL     1       7.903   9.691  17.227  0.00  0.00    +0.000 NA
ATOM      7  C   UNL     1       8.093   8.510  17.839  0.00  0.00    +0.000 A 
ATOM      8  C   UNL     1       8.835   8.659  19.035  0.00  0.00    +0.000 A 
ATOM      9  C   UNL     1       9.084  10.006  19.136  0.00  0.00    +0.000 A 
ATOM     10  C   UNL     1       9.826  10.797  20.139  0.00  0.00    +0.000 C 
BRANCH   2  11
ATOM     11  C   UNL     1       8.825  12.832  21.218  0.00  0.00    +0.000 C 
BRANCH  11  12
ATOM     12  C   UNL     1       8.376  11.827  22.295  0.00  0.00    +0.000 C 
BRANCH  12  14
ATOM     13  C   UNL     1       7.393  11.660  24.593  0.00  0.00    +0.000 C 
ATOM     14  C   UNL     1       7.361  12.417  23.271  0.00  0.00    +0.000 C 
ENDBRANCH  12  14
ENDBRANCH  11  12
ENDBRANCH   2  11
ENDBRANCH   1   7
BRANCH   1  15
ATOM     15  N   UNL     1       6.276   6.859  17.795  0.00  0.00    +0.000 NA
ATOM     16  H   UNL     1       6.101   7.513  18.563  0.00  0.00    +0.000 HD
BRANCH  15  17
ATOM     17  C   UNL     1       5.158   6.966  16.835  0.00  0.00    +0.000 C 
ATOM     18  C   UNL     1       5.202   5.936  15.697  0.00  0.00    +0.000 C 
ATOM     19  C   UNL     1       5.112   4.509  16.226  0.00  0.00    +0.000 C 
ATOM     20  C   UNL     1       3.970   4.312  17.188  0.00  0.00    +0.000 A 
ATOM     21  C   UNL     1       3.520   3.015  17.462  0.00  0.00    +0.000 A 
ATOM     22  C   UNL     1       2.477   2.805  18.364  0.00  0.00    +0.000 A 
ATOM     23  C   UNL     1       1.870   3.880  19.011  0.00  0.00    +0.000 A 
ATOM     24  C   UNL     1       2.326   5.173  18.755  0.00  0.00    +0.000 A 
ATOM     25  C   UNL     1       3.384   5.400  17.857  0.00  0.00    +0.000 A 
ATOM     26  C   UNL     1       3.812   6.823  17.580  0.00  0.00    +0.000 C 
BRANCH  23  27
ATOM     27  O   UNL     1       0.849   3.541  19.856  0.00  0.00    +0.000 OA
ATOM     28  C   UNL     1       1.215   2.931  21.087  0.00  0.00    +0.000 C 
ENDBRANCH  23  27
ENDBRANCH  15  17
ENDBRANCH   1  15
TORSDOF 7
ENDMDL
MODEL 8
REMARK VINA RESULT:      -6.8      3.961      6.692
REMARK  Name = 
REMARK  9 active torsions:
REMARK  status: ('A' for Active; 'I' for Inactive)
REMARK    1  A    between atoms: C_1  and  C_2
REMARK    2  A    between atoms: C_2  and  C_3
REMARK    3  A    between atoms: C_3  and  C_4
REMARK    4  A    between atoms: C_4  and  N_5
REMARK    5  A    between atoms: C_10  and  C_11
REMARK    6  A    between atoms: C_11  and  N_12
REMARK    7  A    between atoms: N_12  and  C_13
REMARK    8  A    between atoms: C_19  and  O_20
REMARK    9  A    between atoms: O_20  and  C_21
REMARK                            x       y       z     vdW  Elec       q    Type
REMARK                         _______ _______ _______ _____ _____    ______ ____
ROOT
ATOM      1  C   UNL     1       2.588   5.552  20.140  0.00  0.00    +0.000 C 
ENDROOT
BRANCH   1   7
ATOM      2  N   UNL     1       6.492   5.571  15.468  0.00  0.00    +0.000 NA
ATOM      3  C   UNL     1       7.438   5.332  16.564  0.00  0.00    +0.000 C 
ATOM      4  C   UNL     1       6.886   4.914  17.938  0.00  0.00    +0.000 C 
ATOM      5  N   UNL     1       5.521   5.341  18.135  0.00  0.00    +0.000 N 
ATOM      6  N   UNL     1       4.892   5.140  19.309  0.00  0.00    +0.000 NA
ATOM      7  C   UNL     1       3.641   5.573  19.076  0.00  0.00    +0.000 A 
ATOM      8  C   UNL     1       3.499   6.063  17.757  0.00  0.00    +0.000 A 
ATOM      9  C   UNL     1       4.734   5.897  17.178  0.00  0.00    +0.000 A 
ATOM     10  C   UNL     1       5.242   6.231  15.832  0.00  0.00    +0.000 C 
BRANCH   2  11
ATOM     11  C   UNL     1       6.464   4.545  14.428  0.00  0.00    +0.000 C 
BRANCH  11  12
ATOM     12  C   UNL     1       7.309   4.882  13.186  0.00  0.00    +0.000 C 
BRANCH  12  14
ATOM     13  C   UNL     1       5.722   3.217  12.191  0.00  0.00    +0.000 C 
ATOM     14  C   UNL     1       7.062   3.923  12.022  0.00  0.00    +0.000 C 
ENDBRANCH  12  14
ENDBRANCH  11  12
ENDBRANCH   2  11
ENDBRANCH   1   7
BRANCH   1  15
ATOM     15  N   UNL     1       1.271   5.192  19.591  0.00  0.00    +0.000 NA
ATOM     16  H   UNL     1       1.413   5.075  18.584  0.00  0.00    +0.000 HD
BRANCH  15  17
ATOM     17  C   UNL     1       0.699   3.939  20.124  0.00  0.00    +0.000 C 
ATOM     18  C   UNL     1       0.407   2.873  19.057  0.00  0.00    +0.000 C 
ATOM     19  C   UNL     1       1.678   2.434  18.340  0.00  0.00    +0.000 C 
ATOM     20  C   UNL     1       2.789   2.066  19.288  0.00  0.00    +0.000 A 
ATOM     21  C   UNL     1       3.862   1.296  18.822  0.00  0.00    +0.000 A 
ATOM     22  C   UNL     1       4.911   0.958  19.675  0.00  0.00    +0.000 A 
ATOM     23  C   UNL     1       4.913   1.384  21.003  0.00  0.00    +0.000 A 
ATOM     24  C   UNL     1       3.856   2.165  21.467  0.00  0.00    +0.000 A 
ATOM     25  C   UNL     1       2.795   2.524  20.616  0.00  0.00    +0.000 A 
ATOM     26  C   UNL     1       1.651   3.335  21.180  0.00  0.00    +0.000 C 
BRANCH  23  27
ATOM     27  O   UNL     1       5.990   0.970  21.737  0.00  0.00    +0.000 OA
ATOM     28  C   UNL     1       6.170  -0.435  21.871  0.00  0.00    +0.000 C 
ENDBRANCH  23  27
ENDBRANCH  15  17
ENDBRANCH   1  15
TORSDOF 7
ENDMDL
MODEL 9
REMARK VINA RESULT:      -6.8      2.025      3.102
REMARK  Name = 
REMARK  9 active torsions:
REMARK  status: ('A' for Active; 'I' for Inactive)
REMARK    1  A    between atoms: C_1  and  C_2
REMARK    2  A    between atoms: C_2  and  C_3
REMARK    3  A    between atoms: C_3  and  C_4
REMARK    4  A    between atoms: C_4  and  N_5
REMARK    5  A    between atoms: C_10  and  C_11
REMARK    6  A    between atoms: C_11  and  N_12
REMARK    7  A    between atoms: N_12  and  C_13
REMARK    8  A    between atoms: C_19  and  O_20
REMARK    9  A    between atoms: O_20  and  C_21
REMARK                            x       y       z     vdW  Elec       q    Type
REMARK                         _______ _______ _______ _____ _____    ______ ____
ROOT
ATOM      1  C   UNL     1       2.021   5.940  20.727  0.00  0.00    +0.000 C 
ENDROOT
BRANCH   1   7
ATOM      2  N   UNL     1       0.822  11.766  19.431  0.00  0.00    +0.000 NA
ATOM      3  C   UNL     1      -0.036  11.607  20.611  0.00  0.00    +0.000 C 
ATOM      4  C   UNL     1       0.169  10.377  21.511  0.00  0.00    +0.000 C 
ATOM      5  N   UNL     1       0.776   9.273  20.805  0.00  0.00    +0.000 N 
ATOM      6  N   UNL     1       0.960   8.081  21.405  0.00  0.00    +0.000 NA
ATOM      7  C   UNL     1       1.624   7.362  20.483  0.00  0.00    +0.000 A 
ATOM      8  C   UNL     1       1.835   8.106  19.298  0.00  0.00    +0.000 A 
ATOM      9  C   UNL     1       1.274   9.337  19.543  0.00  0.00    +0.000 A 
ATOM     10  C   UNL     1       1.145  10.544  18.703  0.00  0.00    +0.000 C 
BRANCH   2  11
ATOM     11  C   UNL     1       1.839  12.810  19.532  0.00  0.00    +0.000 C 
BRANCH  11  12
ATOM     12  C   UNL     1       2.641  13.038  18.237  0.00  0.00    +0.000 C 
BRANCH  12  14
ATOM     13  C   UNL     1       4.068  14.866  19.183  0.00  0.00    +0.000 C 
ATOM     14  C   UNL     1       3.100  14.485  18.070  0.00  0.00    +0.000 C 
ENDBRANCH  12  14
ENDBRANCH  11  12
ENDBRANCH   2  11
ENDBRANCH   1   7
BRANCH   1  15
ATOM     15  N   UNL     1       0.987   5.001  20.261  0.00  0.00    +0.000 NA
ATOM     16  H   UNL     1       0.700   5.341  19.340  0.00  0.00    +0.000 HD
BRANCH  15  17
ATOM     17  C   UNL     1       1.439   3.602  20.116  0.00  0.00    +0.000 C 
ATOM     18  C   UNL     1       1.098   2.965  18.761  0.00  0.00    +0.000 C 
ATOM     19  C   UNL     1       1.770   3.702  17.608  0.00  0.00    +0.000 C 
ATOM     20  C   UNL     1       3.244   3.918  17.832  0.00  0.00    +0.000 A 
ATOM     21  C   UNL     1       4.066   4.224  16.740  0.00  0.00    +0.000 A 
ATOM     22  C   UNL     1       5.430   4.447  16.924  0.00  0.00    +0.000 A 
ATOM     23  C   UNL     1       5.997   4.375  18.195  0.00  0.00    +0.000 A 
ATOM     24  C   UNL     1       5.180   4.088  19.288  0.00  0.00    +0.000 A 
ATOM     25  C   UNL     1       3.801   3.871  19.121  0.00  0.00    +0.000 A 
ATOM     26  C   UNL     1       2.967   3.520  20.332  0.00  0.00    +0.000 C 
BRANCH  23  27
ATOM     27  O   UNL     1       7.346   4.597  18.236  0.00  0.00    +0.000 OA
ATOM     28  C   UNL     1       7.783   5.754  18.939  0.00  0.00    +0.000 C 
ENDBRANCH  23  27
ENDBRANCH  15  17
ENDBRANCH   1  15
TORSDOF 7
ENDMDL
