MODEL 1
REMARK VINA RESULT:      -7.5      0.000      0.000
REMARK  Name = 
REMARK  10 active torsions:
REMARK  status: ('A' for Active; 'I' for Inactive)
REMARK    1  A    between atoms: C_1  and  C_2
REMARK    2  A    between atoms: C_2  and  C_3
REMARK    3  A    between atoms: C_8  and  C_9
REMARK    4  A    between atoms: C_15  and  C_16
REMARK    5  A    between atoms: C_16  and  N_17
REMARK    6  A    between atoms: N_17  and  C_18
REMARK    7  A    between atoms: C_18  and  CA_19
REMARK    8  A    between atoms: CA_19  and  N_20
REMARK    9  A    between atoms: CA_19  and  C_21
REMARK   10  A    between atoms: C_21  and  OXT_23
REMARK                            x       y       z     vdW  Elec       q    Type
REMARK                         _______ _______ _______ _____ _____    ______ ____
ROOT
ATOM      1  C   UNL     1       4.170   3.714  17.522  0.00  0.00    +0.000 A 
ATOM      2  C   UNL     1       3.945   2.364  17.889  0.00  0.00    +0.000 A 
ATOM      3  C   UNL     1       2.972   1.967  18.796  0.00  0.00    +0.000 A 
ATOM      4  C   UNL     1       2.225   2.922  19.463  0.00  0.00    +0.000 A 
ATOM      5  C   UNL     1       2.449   4.294  19.226  0.00  0.00    +0.000 A 
ATOM      6  C   UNL     1       1.855   5.415  19.898  0.00  0.00    +0.000 A 
ATOM      7  C   UNL     1       2.330   6.627  19.461  0.00  0.00    +0.000 A 
ATOM      8  S   UNL     1       3.350   6.420  18.112  0.00  0.00    +0.000 S 
ATOM      9  C   UNL     1       3.383   4.679  18.244  0.00  0.00    +0.000 A 
ENDROOT
BRANCH   1  15
ATOM     10  C   UNL     1       6.523   4.566  16.812  0.00  0.00    +0.000 A 
ATOM     11  C   UNL     1       7.391   4.942  15.755  0.00  0.00    +0.000 A 
ATOM     12  C   UNL     1       7.036   4.778  14.420  0.00  0.00    +0.000 A 
ATOM     13  C   UNL     1       5.790   4.273  14.105  0.00  0.00    +0.000 A 
ATOM     14  C   UNL     1       4.892   3.956  15.126  0.00  0.00    +0.000 A 
ATOM     15  C   UNL     1       5.216   4.063  16.500  0.00  0.00    +0.000 A 
BRANCH  10  17
ATOM     16  C   UNL     1       7.620   6.159  18.560  0.00  0.00    +0.000 C 
ATOM     17  C   UNL     1       7.009   4.797  18.236  0.00  0.00    +0.000 C 
ENDBRANCH  10  17
ENDBRANCH   1  15
BRANCH   7  18
ATOM     18  C   UNL     1       2.018   7.993  20.005  0.00  0.00    +0.000 C 
BRANCH  18  19
ATOM     19  N   UNL     1       1.443   7.943  21.363  0.00  0.00    +0.000 NA
ATOM     20  H   UNL     1       2.054   8.452  21.997  0.00  0.00    +0.000 HD
BRANCH  19  21
ATOM     21  C   UNL     1       0.080   8.505  21.403  0.00  0.00    +0.000 C 
BRANCH  21  22
ATOM     22  CA  UNL     1       0.089  10.038  21.582  0.00  0.00    +0.000 C 
BRANCH  22  23
ATOM     23  N   UNL     1      -0.754  10.756  20.569  0.00  0.00    +0.000 NA
ATOM     24  H1  UNL     1      -1.367  10.063  20.125  0.00  0.00    +0.000 HD
ATOM     25  H2  UNL     1      -0.119  11.054  19.823  0.00  0.00    +0.000 HD
ENDBRANCH  22  23
BRANCH  22  26
ATOM     26  C   UNL     1      -0.418  10.409  22.981  0.00  0.00    +0.000 C 
ATOM     27  O   UNL     1      -1.019  11.432  23.273  0.00  0.00    +0.000 OA
BRANCH  26  28
ATOM     28  OXT UNL     1      -0.136   9.427  23.882  0.00  0.00    +0.000 OA
ATOM     29  HXT UNL     1      -0.003   9.888  24.747  0.00  0.00    +0.000 HD
ENDBRANCH  26  28
ENDBRANCH  22  26
ENDBRANCH  21  22
ENDBRANCH  19  21
ENDBRANCH  18  19
ENDBRANCH   7  18
TORSDOF 9
ENDMDL
MODEL 2
REMARK VINA RESULT:      -7.4      2.629      3.152
REMARK  Name = 
REMARK  10 active torsions:
REMARK  status: ('A' for Active; 'I' for Inactive)
REMARK    1  A    between atoms: C_1  and  C_2
REMARK    2  A    between atoms: C_2  and  C_3
REMARK    3  A    between atoms: C_8  and  C_9
REMARK    4  A    between atoms: C_15  and  C_16
REMARK    5  A    between atoms: C_16  and  N_17
REMARK    6  A    between atoms: N_17  and  C_18
REMARK    7  A    between atoms: C_18  and  CA_19
REMARK    8  A    between atoms: CA_19  and  N_20
REMARK    9  A    between atoms: CA_19  and  C_21
REMARK   10  A    between atoms: C_21  and  OXT_23
REMARK                            x       y       z     vdW  Elec       q    Type
REMARK                         _______ _______ _______ _____ _____    ______ ____
ROOT
ATOM      1  C   UNL     1       3.973   5.026  18.560  0.00  0.00    +0.000 A 
ATOM      2  C   UNL     1       3.729   4.122  19.623  0.00  0.00    +0.000 A 
ATOM      3  C   UNL     1       2.751   4.318  20.589  0.00  0.00    +0.000 A 
ATOM      4  C   UNL     1       2.020   5.493  20.596  0.00  0.00    +0.000 A 
ATOM      5  C   UNL     1       2.263   6.489  19.628  0.00  0.00    +0.000 A 
ATOM      6  C   UNL     1       1.687   7.801  19.546  0.00  0.00    +0.000 A 
ATOM      7  C   UNL     1       2.179   8.549  18.505  0.00  0.00    +0.000 A 
ATOM      8  S   UNL     1       3.194   7.604  17.515  0.00  0.00    +0.000 S 
ATOM      9  C   UNL     1       3.201   6.241  18.606  0.00  0.00    +0.000 A 
ENDROOT
BRANCH   1  15
ATOM     10  C   UNL     1       6.425   4.980  17.691  0.00  0.00    +0.000 A 
ATOM     11  C   UNL     1       7.306   4.733  16.608  0.00  0.00    +0.000 A 
ATOM     12  C   UNL     1       6.860   4.188  15.409  0.00  0.00    +0.000 A 
ATOM     13  C   UNL     1       5.516   3.914  15.244  0.00  0.00    +0.000 A 
ATOM     14  C   UNL     1       4.618   4.210  16.272  0.00  0.00    +0.000 A 
ATOM     15  C   UNL     1       5.023   4.724  17.527  0.00  0.00    +0.000 A 
BRANCH  10  17
ATOM     16  C   UNL     1       8.058   6.694  18.786  0.00  0.00    +0.000 C 
ATOM     17  C   UNL     1       7.018   5.587  18.956  0.00  0.00    +0.000 C 
ENDBRANCH  10  17
ENDBRANCH   1  15
BRANCH   7  18
ATOM     18  C   UNL     1       1.888   9.988  18.181  0.00  0.00    +0.000 C 
BRANCH  18  19
ATOM     19  N   UNL     1       0.448  10.244  17.992  0.00  0.00    +0.000 NA
ATOM     20  H   UNL     1      -0.041   9.354  17.949  0.00  0.00    +0.000 HD
BRANCH  19  21
ATOM     21  C   UNL     1      -0.108  11.081  19.073  0.00  0.00    +0.000 C 
BRANCH  21  22
ATOM     22  CA  UNL     1      -1.604  11.389  18.856  0.00  0.00    +0.000 C 
BRANCH  22  23
ATOM     23  N   UNL     1      -1.909  12.859  18.845  0.00  0.00    +0.000 NA
ATOM     24  H1  UNL     1      -1.016  13.363  18.821  0.00  0.00    +0.000 HD
ATOM     25  H2  UNL     1      -2.304  13.080  19.764  0.00  0.00    +0.000 HD
ENDBRANCH  22  23
BRANCH  22  26
ATOM     26  C   UNL     1      -2.081  10.789  17.529  0.00  0.00    +0.000 C 
ATOM     27  O   UNL     1      -2.536   9.666  17.377  0.00  0.00    +0.000 OA
BRANCH  26  28
ATOM     28  OXT UNL     1      -1.961  11.688  16.512  0.00  0.00    +0.000 OA
ATOM     29  HXT UNL     1      -2.780  12.243  16.547  0.00  0.00    +0.000 HD
ENDBRANCH  26  28
ENDBRANCH  22  26
ENDBRANCH  21  22
ENDBRANCH  19  21
ENDBRANCH  18  19
ENDBRANCH   7  18
TORSDOF 9
ENDMDL
MODEL 3
REMARK VINA RESULT:      -7.3      3.968      5.417
REMARK  Name = 
REMARK  10 active torsions:
REMARK  status: ('A' for Active; 'I' for Inactive)
REMARK    1  A    between atoms: C_1  and  C_2
REMARK    2  A    between atoms: C_2  and  C_3
REMARK    3  A    between atoms: C_8  and  C_9
REMARK    4  A    between atoms: C_15  and  C_16
REMARK    5  A    between atoms: C_16  and  N_17
REMARK    6  A    between atoms: N_17  and  C_18
REMARK    7  A    between atoms: C_18  and  CA_19
REMARK    8  A    between atoms: CA_19  and  N_20
REMARK    9  A    between atoms: CA_19  and  C_21
REMARK   10  A    between atoms: C_21  and  OXT_23
REMARK                            x       y       z     vdW  Elec       q    Type
REMARK                         _______ _______ _______ _____ _____    ______ ____
ROOT
ATOM      1  C   UNL     1       4.115   6.593  17.555  0.00  0.00    +0.000 A 
ATOM      2  C   UNL     1       3.603   7.833  17.100  0.00  0.00    +0.000 A 
ATOM      3  C   UNL     1       2.657   8.575  17.794  0.00  0.00    +0.000 A 
ATOM      4  C   UNL     1       2.095   8.060  18.949  0.00  0.00    +0.000 A 
ATOM      5  C   UNL     1       2.479   6.789  19.423  0.00  0.00    +0.000 A 
ATOM      6  C   UNL     1       1.931   6.055  20.528  0.00  0.00    +0.000 A 
ATOM      7  C   UNL     1       2.497   4.815  20.694  0.00  0.00    +0.000 A 
ATOM      8  S   UNL     1       3.819   4.613  19.638  0.00  0.00    +0.000 S 
ATOM      9  C   UNL     1       3.499   6.085  18.753  0.00  0.00    +0.000 A 
ENDROOT
BRANCH   1  15
ATOM     10  C   UNL     1       6.583   6.006  16.979  0.00  0.00    +0.000 A 
ATOM     11  C   UNL     1       7.482   5.335  16.111  0.00  0.00    +0.000 A 
ATOM     12  C   UNL     1       7.034   4.494  15.098  0.00  0.00    +0.000 A 
ATOM     13  C   UNL     1       5.678   4.332  14.898  0.00  0.00    +0.000 A 
ATOM     14  C   UNL     1       4.771   5.033  15.697  0.00  0.00    +0.000 A 
ATOM     15  C   UNL     1       5.171   5.868  16.768  0.00  0.00    +0.000 A 
BRANCH  10  17
ATOM     16  C   UNL     1       7.751   8.254  17.599  0.00  0.00    +0.000 C 
ATOM     17  C   UNL     1       7.182   6.909  18.049  0.00  0.00    +0.000 C 
ENDBRANCH  10  17
ENDBRANCH   1  15
BRANCH   7  18
ATOM     18  C   UNL     1       2.103   3.741  21.670  0.00  0.00    +0.000 C 
BRANCH  18  19
ATOM     19  N   UNL     1       1.139   2.784  21.097  0.00  0.00    +0.000 NA
ATOM     20  H   UNL     1       0.439   3.299  20.568  0.00  0.00    +0.000 HD
BRANCH  19  21
ATOM     21  C   UNL     1       1.801   1.788  20.233  0.00  0.00    +0.000 C 
BRANCH  21  22
ATOM     22  CA  UNL     1       1.288   1.847  18.779  0.00  0.00    +0.000 C 
BRANCH  22  23
ATOM     23  N   UNL     1       0.234   2.895  18.566  0.00  0.00    +0.000 NA
ATOM     24  H1  UNL     1       0.307   3.218  17.596  0.00  0.00    +0.000 HD
ATOM     25  H2  UNL     1       0.513   3.704  19.128  0.00  0.00    +0.000 HD
ENDBRANCH  22  23
BRANCH  22  26
ATOM     26  C   UNL     1       2.450   2.132  17.821  0.00  0.00    +0.000 C 
ATOM     27  O   UNL     1       3.531   1.563  17.821  0.00  0.00    +0.000 OA
BRANCH  26  28
ATOM     28  OXT UNL     1       2.120   3.103  16.924  0.00  0.00    +0.000 OA
ATOM     29  HXT UNL     1       2.777   3.022  16.188  0.00  0.00    +0.000 HD
ENDBRANCH  26  28
ENDBRANCH  22  26
ENDBRANCH  21  22
ENDBRANCH  19  21
ENDBRANCH  18  19
ENDBRANCH   7  18
TORSDOF 9
ENDMDL
MODEL 4
REMARK VINA RESULT:      -7.3      1.137      1.235
REMARK  Name = 
REMARK  10 active torsions:
REMARK  status: ('A' for Active; 'I' for Inactive)
REMARK    1  A    between atoms: C_1  and  C_2
REMARK    2  A    between atoms: C_2  and  C_3
REMARK    3  A    between atoms: C_8  and  C_9
REMARK    4  A    between atoms: C_15  and  C_16
REMARK    5  A    between atoms: C_16  and  N_17
REMARK    6  A    between atoms: N_17  and  C_18
REMARK    7  A    between atoms: C_18  and  CA_19
REMARK    8  A    between atoms: CA_19  and  N_20
REMARK    9  A    between atoms: CA_19  and  C_21
REMARK   10  A    between atoms: C_21  and  OXT_23
REMARK                            x       y       z     vdW  Elec       q    Type
REMARK                         _______ _______ _______ _____ _____    ______ ____
ROOT
ATOM      1  C   UNL     1       3.886   3.872  18.114  0.00  0.00    +0.000 A 
ATOM      2  C   UNL     1       3.621   2.529  18.479  0.00  0.00    +0.000 A 
ATOM      3  C   UNL     1       2.601   2.154  19.342  0.00  0.00    +0.000 A 
ATOM      4  C   UNL     1       1.842   3.126  19.971  0.00  0.00    +0.000 A 
ATOM      5  C   UNL     1       2.101   4.493  19.737  0.00  0.00    +0.000 A 
ATOM      6  C   UNL     1       1.498   5.628  20.375  0.00  0.00    +0.000 A 
ATOM      7  C   UNL     1       2.014   6.829  19.954  0.00  0.00    +0.000 A 
ATOM      8  S   UNL     1       3.090   6.596  18.653  0.00  0.00    +0.000 S 
ATOM      9  C   UNL     1       3.085   4.855  18.796  0.00  0.00    +0.000 A 
ENDROOT
BRANCH   1  15
ATOM     10  C   UNL     1       6.241   4.788  17.495  0.00  0.00    +0.000 A 
ATOM     11  C   UNL     1       7.162   5.127  16.471  0.00  0.00    +0.000 A 
ATOM     12  C   UNL     1       6.908   4.845  15.133  0.00  0.00    +0.000 A 
ATOM     13  C   UNL     1       5.711   4.254  14.777  0.00  0.00    +0.000 A 
ATOM     14  C   UNL     1       4.760   3.970  15.760  0.00  0.00    +0.000 A 
ATOM     15  C   UNL     1       4.984   4.196  17.139  0.00  0.00    +0.000 A 
BRANCH  10  17
ATOM     16  C   UNL     1       7.911   5.934  19.138  0.00  0.00    +0.000 C 
ATOM     17  C   UNL     1       6.617   5.150  18.926  0.00  0.00    +0.000 C 
ENDBRANCH  10  17
ENDBRANCH   1  15
BRANCH   7  18
ATOM     18  C   UNL     1       1.702   8.204  20.476  0.00  0.00    +0.000 C 
BRANCH  18  19
ATOM     19  N   UNL     1       0.618   8.195  21.476  0.00  0.00    +0.000 NA
ATOM     20  H   UNL     1       1.029   8.240  22.406  0.00  0.00    +0.000 HD
BRANCH  19  21
ATOM     21  C   UNL     1      -0.321   9.315  21.278  0.00  0.00    +0.000 C 
BRANCH  21  22
ATOM     22  CA  UNL     1      -0.659  10.032  22.602  0.00  0.00    +0.000 C 
BRANCH  22  23
ATOM     23  N   UNL     1       0.184   9.570  23.756  0.00  0.00    +0.000 NA
ATOM     24  H1  UNL     1      -0.250   9.918  24.618  0.00  0.00    +0.000 HD
ATOM     25  H2  UNL     1       1.069  10.080  23.689  0.00  0.00    +0.000 HD
ENDBRANCH  22  23
BRANCH  22  26
ATOM     26  C   UNL     1      -0.473  11.546  22.446  0.00  0.00    +0.000 C 
ATOM     27  O   UNL     1      -1.157  12.407  22.977  0.00  0.00    +0.000 OA
BRANCH  26  28
ATOM     28  OXT UNL     1       0.592  11.829  21.645  0.00  0.00    +0.000 OA
ATOM     29  HXT UNL     1       1.186  11.039  21.699  0.00  0.00    +0.000 HD
ENDBRANCH  26  28
ENDBRANCH  22  26
ENDBRANCH  21  22
ENDBRANCH  19  21
ENDBRANCH  18  19
ENDBRANCH   7  18
TORSDOF 9
ENDMDL
MODEL 5
REMARK VINA RESULT:      -7.2      4.744      7.759
REMARK  Name = 
REMARK  10 active torsions:
REMARK  status: ('A' for Active; 'I' for Inactive)
REMARK    1  A    between atoms: C_1  and  C_2
REMARK    2  A    between atoms: C_2  and  C_3
REMARK    3  A    between atoms: C_8  and  C_9
REMARK    4  A    between atoms: C_15  and  C_16
REMARK    5  A    between atoms: C_16  and  N_17
REMARK    6  A    between atoms: N_17  and  C_18
REMARK    7  A    between atoms: C_18  and  CA_19
REMARK    8  A    between atoms: CA_19  and  N_20
REMARK    9  A    between atoms: CA_19  and  C_21
REMARK   10  A    between atoms: C_21  and  OXT_23
REMARK                            x       y       z     vdW  Elec       q    Type
REMARK                         _______ _______ _______ _____ _____    ______ ____
ROOT
ATOM      1  C   UNL     1       2.238   6.259  19.831  0.00  0.00    +0.000 A 
ATOM      2  C   UNL     1       1.269   5.436  20.457  0.00  0.00    +0.000 A 
ATOM      3  C   UNL     1       1.507   4.123  20.837  0.00  0.00    +0.000 A 
ATOM      4  C   UNL     1       2.714   3.525  20.520  0.00  0.00    +0.000 A 
ATOM      5  C   UNL     1       3.701   4.244  19.813  0.00  0.00    +0.000 A 
ATOM      6  C   UNL     1       4.954   3.760  19.306  0.00  0.00    +0.000 A 
ATOM      7  C   UNL     1       5.665   4.709  18.614  0.00  0.00    +0.000 A 
ATOM      8  S   UNL     1       4.911   6.232  18.737  0.00  0.00    +0.000 S 
ATOM      9  C   UNL     1       3.476   5.600  19.507  0.00  0.00    +0.000 A 
ENDROOT
BRANCH   1  15
ATOM     10  C   UNL     1       1.308   8.625  20.384  0.00  0.00    +0.000 A 
ATOM     11  C   UNL     1       0.975   9.921  19.913  0.00  0.00    +0.000 A 
ATOM     12  C   UNL     1       1.281  10.332  18.620  0.00  0.00    +0.000 A 
ATOM     13  C   UNL     1       1.890   9.448  17.751  0.00  0.00    +0.000 A 
ATOM     14  C   UNL     1       2.169   8.145  18.171  0.00  0.00    +0.000 A 
ATOM     15  C   UNL     1       1.918   7.688  19.487  0.00  0.00    +0.000 A 
BRANCH  10  17
ATOM     16  C   UNL     1       0.465   9.421  22.721  0.00  0.00    +0.000 C 
ATOM     17  C   UNL     1       0.918   8.277  21.815  0.00  0.00    +0.000 C 
ENDBRANCH  10  17
ENDBRANCH   1  15
BRANCH   7  18
ATOM     18  C   UNL     1       6.954   4.532  17.860  0.00  0.00    +0.000 C 
BRANCH  18  19
ATOM     19  N   UNL     1       6.766   3.825  16.579  0.00  0.00    +0.000 NA
ATOM     20  H   UNL     1       6.896   2.829  16.732  0.00  0.00    +0.000 HD
BRANCH  19  21
ATOM     21  C   UNL     1       5.436   4.086  15.998  0.00  0.00    +0.000 C 
BRANCH  21  22
ATOM     22  CA  UNL     1       5.509   5.022  14.773  0.00  0.00    +0.000 C 
BRANCH  22  23
ATOM     23  N   UNL     1       5.500   6.477  15.141  0.00  0.00    +0.000 NA
ATOM     24  H1  UNL     1       6.448   6.842  14.995  0.00  0.00    +0.000 HD
ATOM     25  H2  UNL     1       5.362   6.519  16.155  0.00  0.00    +0.000 HD
ENDBRANCH  22  23
BRANCH  22  26
ATOM     26  C   UNL     1       6.782   4.737  13.967  0.00  0.00    +0.000 C 
ATOM     27  O   UNL     1       7.783   5.437  13.944  0.00  0.00    +0.000 OA
BRANCH  26  28
ATOM     28  OXT UNL     1       6.676   3.565  13.280  0.00  0.00    +0.000 OA
ATOM     29  HXT UNL     1       7.210   3.689  12.456  0.00  0.00    +0.000 HD
ENDBRANCH  26  28
ENDBRANCH  22  26
ENDBRANCH  21  22
ENDBRANCH  19  21
ENDBRANCH  18  19
ENDBRANCH   7  18
TORSDOF 9
ENDMDL
MODEL 6
REMARK VINA RESULT:      -7.2      2.266      2.513
REMARK  Name = 
REMARK  10 active torsions:
REMARK  status: ('A' for Active; 'I' for Inactive)
REMARK    1  A    between atoms: C_1  and  C_2
REMARK    2  A    between atoms: C_2  and  C_3
REMARK    3  A    between atoms: C_8  and  C_9
REMARK    4  A    between atoms: C_15  and  C_16
REMARK    5  A    between atoms: C_16  and  N_17
REMARK    6  A    between atoms: N_17  and  C_18
REMARK    7  A    between atoms: C_18  and  CA_19
REMARK    8  A    between atoms: CA_19  and  N_20
REMARK    9  A    between atoms: CA_19  and  C_21
REMARK   10  A    between atoms: C_21  and  OXT_23
REMARK                            x       y       z     vdW  Elec       q    Type
REMARK                         _______ _______ _______ _____ _____    ______ ____
ROOT
ATOM      1  C   UNL     1       4.247   4.211  18.490  0.00  0.00    +0.000 A 
ATOM      2  C   UNL     1       4.257   2.983  19.198  0.00  0.00    +0.000 A 
ATOM      3  C   UNL     1       3.405   2.700  20.256  0.00  0.00    +0.000 A 
ATOM      4  C   UNL     1       2.552   3.681  20.731  0.00  0.00    +0.000 A 
ATOM      5  C   UNL     1       2.544   4.963  20.143  0.00  0.00    +0.000 A 
ATOM      6  C   UNL     1       1.815   6.125  20.567  0.00  0.00    +0.000 A 
ATOM      7  C   UNL     1       2.070   7.237  19.805  0.00  0.00    +0.000 A 
ATOM      8  S   UNL     1       3.041   6.835  18.463  0.00  0.00    +0.000 S 
ATOM      9  C   UNL     1       3.355   5.209  19.018  0.00  0.00    +0.000 A 
ENDROOT
BRANCH   1  15
ATOM     10  C   UNL     1       6.495   4.976  17.426  0.00  0.00    +0.000 A 
ATOM     11  C   UNL     1       7.239   5.215  16.243  0.00  0.00    +0.000 A 
ATOM     12  C   UNL     1       6.749   4.872  14.987  0.00  0.00    +0.000 A 
ATOM     13  C   UNL     1       5.488   4.321  14.875  0.00  0.00    +0.000 A 
ATOM     14  C   UNL     1       4.709   4.137  16.020  0.00  0.00    +0.000 A 
ATOM     15  C   UNL     1       5.173   4.427  17.325  0.00  0.00    +0.000 A 
BRANCH  10  17
ATOM     16  C   UNL     1       7.984   6.661  18.748  0.00  0.00    +0.000 C 
ATOM     17  C   UNL     1       7.123   5.398  18.748  0.00  0.00    +0.000 C 
ENDBRANCH  10  17
ENDBRANCH   1  15
BRANCH   7  18
ATOM     18  C   UNL     1       1.574   8.640  20.020  0.00  0.00    +0.000 C 
BRANCH  18  19
ATOM     19  N   UNL     1       1.449   9.394  18.758  0.00  0.00    +0.000 NA
ATOM     20  H   UNL     1       1.669   8.775  17.982  0.00  0.00    +0.000 HD
BRANCH  19  21
ATOM     21  C   UNL     1       0.100   9.965  18.590  0.00  0.00    +0.000 C 
BRANCH  21  22
ATOM     22  CA  UNL     1       0.074  11.484  18.862  0.00  0.00    +0.000 C 
BRANCH  22  23
ATOM     23  N   UNL     1       1.159  12.232  18.144  0.00  0.00    +0.000 NA
ATOM     24  H1  UNL     1       2.060  11.875  18.481  0.00  0.00    +0.000 HD
ATOM     25  H2  UNL     1       1.121  13.197  18.485  0.00  0.00    +0.000 HD
ENDBRANCH  22  23
BRANCH  22  26
ATOM     26  C   UNL     1      -1.277  12.073  18.440  0.00  0.00    +0.000 C 
ATOM     27  O   UNL     1      -2.322  11.984  19.068  0.00  0.00    +0.000 OA
BRANCH  26  28
ATOM     28  OXT UNL     1      -1.171  12.752  17.264  0.00  0.00    +0.000 OA
ATOM     29  HXT UNL     1      -1.803  13.510  17.334  0.00  0.00    +0.000 HD
ENDBRANCH  26  28
ENDBRANCH  22  26
ENDBRANCH  21  22
ENDBRANCH  19  21
ENDBRANCH  18  19
ENDBRANCH   7  18
TORSDOF 9
ENDMDL
MODEL 7
REMARK VINA RESULT:      -7.2      2.064      2.230
REMARK  Name = 
REMARK  10 active torsions:
REMARK  status: ('A' for Active; 'I' for Inactive)
REMARK    1  A    between atoms: C_1  and  C_2
REMARK    2  A    between atoms: C_2  and  C_3
REMARK    3  A    between atoms: C_8  and  C_9
REMARK    4  A    between atoms: C_15  and  C_16
REMARK    5  A    between atoms: C_16  and  N_17
REMARK    6  A    between atoms: N_17  and  C_18
REMARK    7  A    between atoms: C_18  and  CA_19
REMARK    8  A    between atoms: CA_19  and  N_20
REMARK    9  A    between atoms: CA_19  and  C_21
REMARK   10  A    between atoms: C_21  and  OXT_23
REMARK                            x       y       z     vdW  Elec       q    Type
REMARK                         _______ _______ _______ _____ _____    ______ ____
ROOT
ATOM      1  C   UNL     1       3.858   3.749  18.032  0.00  0.00    +0.000 A 
ATOM      2  C   UNL     1       3.656   2.355  18.181  0.00  0.00    +0.000 A 
ATOM      3  C   UNL     1       2.645   1.804  18.956  0.00  0.00    +0.000 A 
ATOM      4  C   UNL     1       1.831   2.630  19.710  0.00  0.00    +0.000 A 
ATOM      5  C   UNL     1       2.024   4.028  19.694  0.00  0.00    +0.000 A 
ATOM      6  C   UNL     1       1.357   5.021  20.486  0.00  0.00    +0.000 A 
ATOM      7  C   UNL     1       1.818   6.295  20.265  0.00  0.00    +0.000 A 
ATOM      8  S   UNL     1       2.921   6.317  18.966  0.00  0.00    +0.000 S 
ATOM      9  C   UNL     1       3.001   4.577  18.840  0.00  0.00    +0.000 A 
ENDROOT
BRANCH   1  15
ATOM     10  C   UNL     1       6.117   4.966  17.604  0.00  0.00    +0.000 A 
ATOM     11  C   UNL     1       7.034   5.488  16.656  0.00  0.00    +0.000 A 
ATOM     12  C   UNL     1       6.870   5.290  15.289  0.00  0.00    +0.000 A 
ATOM     13  C   UNL     1       5.764   4.602  14.830  0.00  0.00    +0.000 A 
ATOM     14  C   UNL     1       4.812   4.135  15.739  0.00  0.00    +0.000 A 
ATOM     15  C   UNL     1       4.951   4.271  17.141  0.00  0.00    +0.000 A 
BRANCH  10  17
ATOM     16  C   UNL     1       7.791   5.730  19.453  0.00  0.00    +0.000 C 
ATOM     17  C   UNL     1       6.390   5.250  19.075  0.00  0.00    +0.000 C 
ENDBRANCH  10  17
ENDBRANCH   1  15
BRANCH   7  18
ATOM     18  C   UNL     1       1.432   7.557  20.986  0.00  0.00    +0.000 C 
BRANCH  18  19
ATOM     19  N   UNL     1       1.418   8.733  20.096  0.00  0.00    +0.000 NA
ATOM     20  H   UNL     1       0.840   8.524  19.286  0.00  0.00    +0.000 HD
BRANCH  19  21
ATOM     21  C   UNL     1       0.917   9.937  20.785  0.00  0.00    +0.000 C 
BRANCH  21  22
ATOM     22  CA  UNL     1       0.292  10.950  19.802  0.00  0.00    +0.000 C 
BRANCH  22  23
ATOM     23  N   UNL     1       0.988  12.281  19.803  0.00  0.00    +0.000 NA
ATOM     24  H1  UNL     1       1.946  12.131  20.136  0.00  0.00    +0.000 HD
ATOM     25  H2  UNL     1       0.544  12.838  20.539  0.00  0.00    +0.000 HD
ENDBRANCH  22  23
BRANCH  22  26
ATOM     26  C   UNL     1       0.325  10.391  18.375  0.00  0.00    +0.000 C 
ATOM     27  O   UNL     1      -0.604   9.840  17.804  0.00  0.00    +0.000 OA
BRANCH  26  28
ATOM     28  OXT UNL     1       1.535  10.610  17.790  0.00  0.00    +0.000 OA
ATOM     29  HXT UNL     1       1.578   9.986  17.022  0.00  0.00    +0.000 HD
ENDBRANCH  26  28
ENDBRANCH  22  26
ENDBRANCH  21  22
ENDBRANCH  19  21
ENDBRANCH  18  19
ENDBRANCH   7  18
TORSDOF 9
ENDMDL
MODEL 8
REMARK VINA RESULT:      -7.1      2.413      2.636
REMARK  Name = 
REMARK  10 active torsions:
REMARK  status: ('A' for Active; 'I' for Inactive)
REMARK    1  A    between atoms: C_1  and  C_2
REMARK    2  A    between atoms: C_2  and  C_3
REMARK    3  A    between atoms: C_8  and  C_9
REMARK    4  A    between atoms: C_15  and  C_16
REMARK    5  A    between atoms: C_16  and  N_17
REMARK    6  A    between atoms: N_17  and  C_18
REMARK    7  A    between atoms: C_18  and  CA_19
REMARK    8  A    between atoms: CA_19  and  N_20
REMARK    9  A    between atoms: CA_19  and  C_21
REMARK   10  A    between atoms: C_21  and  OXT_23
REMARK                            x       y       z     vdW  Elec       q    Type
REMARK                         _______ _______ _______ _____ _____    ______ ____
ROOT
ATOM      1  C   UNL     1       4.381   4.174  18.330  0.00  0.00    +0.000 A 
ATOM      2  C   UNL     1       4.409   2.976  19.086  0.00  0.00    +0.000 A 
ATOM      3  C   UNL     1       3.562   2.724  20.156  0.00  0.00    +0.000 A 
ATOM      4  C   UNL     1       2.695   3.711  20.593  0.00  0.00    +0.000 A 
ATOM      5  C   UNL     1       2.669   4.969  19.955  0.00  0.00    +0.000 A 
ATOM      6  C   UNL     1       1.925   6.136  20.333  0.00  0.00    +0.000 A 
ATOM      7  C   UNL     1       2.164   7.221  19.527  0.00  0.00    +0.000 A 
ATOM      8  S   UNL     1       3.139   6.779  18.201  0.00  0.00    +0.000 S 
ATOM      9  C   UNL     1       3.475   5.181  18.820  0.00  0.00    +0.000 A 
ENDROOT
BRANCH   1  15
ATOM     10  C   UNL     1       6.655   4.828  17.248  0.00  0.00    +0.000 A 
ATOM     11  C   UNL     1       7.396   5.043  16.058  0.00  0.00    +0.000 A 
ATOM     12  C   UNL     1       6.871   4.750  14.803  0.00  0.00    +0.000 A 
ATOM     13  C   UNL     1       5.579   4.274  14.701  0.00  0.00    +0.000 A 
ATOM     14  C   UNL     1       4.805   4.115  15.853  0.00  0.00    +0.000 A 
ATOM     15  C   UNL     1       5.303   4.357  17.156  0.00  0.00    +0.000 A 
BRANCH  10  17
ATOM     16  C   UNL     1       7.934   6.587  18.687  0.00  0.00    +0.000 C 
ATOM     17  C   UNL     1       7.323   5.191  18.567  0.00  0.00    +0.000 C 
ENDBRANCH  10  17
ENDBRANCH   1  15
BRANCH   7  18
ATOM     18  C   UNL     1       1.649   8.624  19.687  0.00  0.00    +0.000 C 
BRANCH  18  19
ATOM     19  N   UNL     1       1.437   9.298  18.392  0.00  0.00    +0.000 NA
ATOM     20  H   UNL     1       0.918   8.675  17.779  0.00  0.00    +0.000 HD
BRANCH  19  21
ATOM     21  C   UNL     1       0.717  10.577  18.549  0.00  0.00    +0.000 C 
BRANCH  21  22
ATOM     22  CA  UNL     1      -0.780  10.366  18.856  0.00  0.00    +0.000 C 
BRANCH  22  23
ATOM     23  N   UNL     1      -1.295  11.271  19.938  0.00  0.00    +0.000 NA
ATOM     24  H1  UNL     1      -0.815  12.173  19.845  0.00  0.00    +0.000 HD
ATOM     25  H2  UNL     1      -0.952  10.888  20.823  0.00  0.00    +0.000 HD
ENDBRANCH  22  23
BRANCH  22  26
ATOM     26  C   UNL     1      -1.617  10.602  17.593  0.00  0.00    +0.000 C 
ATOM     27  O   UNL     1      -2.287   9.760  17.015  0.00  0.00    +0.000 OA
BRANCH  26  28
ATOM     28  OXT UNL     1      -1.546  11.902  17.193  0.00  0.00    +0.000 OA
ATOM     29  HXT UNL     1      -1.905  11.918  16.271  0.00  0.00    +0.000 HD
ENDBRANCH  26  28
ENDBRANCH  22  26
ENDBRANCH  21  22
ENDBRANCH  19  21
ENDBRANCH  18  19
ENDBRANCH   7  18
TORSDOF 9
ENDMDL
MODEL 9
REMARK VINA RESULT:      -7.1      1.190      1.333
REMARK  Name = 
REMARK  10 active torsions:
REMARK  status: ('A' for Active; 'I' for Inactive)
REMARK    1  A    between atoms: C_1  and  C_2
REMARK    2  A    between atoms: C_2  and  C_3
REMARK    3  A    between atoms: C_8  and  C_9
REMARK    4  A    between atoms: C_15  and  C_16
REMARK    5  A    between atoms: C_16  and  N_17
REMARK    6  A    between atoms: N_17  and  C_18
REMARK    7  A    between atoms: C_18  and  CA_19
REMARK    8  A    between atoms: CA_19  and  N_20
REMARK    9  A    between atoms: CA_19  and  C_21
REMARK   10  A    between atoms: C_21  and  OXT_23
REMARK                            x       y       z     vdW  Elec       q    Type
REMARK                         _______ _______ _______ _____ _____    ______ ____
ROOT
ATOM      1  C   UNL     1       4.027   3.741  17.687  0.00  0.00    +0.000 A 
ATOM      2  C   UNL     1       3.763   2.385  18.003  0.00  0.00    +0.000 A 
ATOM      3  C   UNL     1       2.742   1.979  18.851  0.00  0.00    +0.000 A 
ATOM      4  C   UNL     1       1.981   2.927  19.512  0.00  0.00    +0.000 A 
ATOM      5  C   UNL     1       2.238   4.302  19.327  0.00  0.00    +0.000 A 
ATOM      6  C   UNL     1       1.632   5.413  20.003  0.00  0.00    +0.000 A 
ATOM      7  C   UNL     1       2.147   6.628  19.626  0.00  0.00    +0.000 A 
ATOM      8  S   UNL     1       3.225   6.443  18.319  0.00  0.00    +0.000 S 
ATOM      9  C   UNL     1       3.223   4.698  18.401  0.00  0.00    +0.000 A 
ENDROOT
BRANCH   1  15
ATOM     10  C   UNL     1       6.378   4.688  17.103  0.00  0.00    +0.000 A 
ATOM     11  C   UNL     1       7.300   5.063  16.093  0.00  0.00    +0.000 A 
ATOM     12  C   UNL     1       7.052   4.821  14.746  0.00  0.00    +0.000 A 
ATOM     13  C   UNL     1       5.860   4.235  14.369  0.00  0.00    +0.000 A 
ATOM     14  C   UNL     1       4.907   3.915  15.339  0.00  0.00    +0.000 A 
ATOM     15  C   UNL     1       5.125   4.101  16.725  0.00  0.00    +0.000 A 
BRANCH  10  17
ATOM     16  C   UNL     1       7.793   6.098  18.780  0.00  0.00    +0.000 C 
ATOM     17  C   UNL     1       6.748   5.008  18.545  0.00  0.00    +0.000 C 
ENDBRANCH  10  17
ENDBRANCH   1  15
BRANCH   7  18
ATOM     18  C   UNL     1       1.832   7.984  20.196  0.00  0.00    +0.000 C 
BRANCH  18  19
ATOM     19  N   UNL     1       1.465   7.925  21.623  0.00  0.00    +0.000 NA
ATOM     20  H   UNL     1       2.128   7.326  22.108  0.00  0.00    +0.000 HD
BRANCH  19  21
ATOM     21  C   UNL     1       1.439   9.264  22.240  0.00  0.00    +0.000 C 
BRANCH  21  22
ATOM     22  CA  UNL     1       0.065   9.950  22.081  0.00  0.00    +0.000 C 
BRANCH  22  23
ATOM     23  N   UNL     1      -0.489  10.468  23.377  0.00  0.00    +0.000 NA
ATOM     24  H1  UNL     1      -0.005   9.984  24.140  0.00  0.00    +0.000 HD
ATOM     25  H2  UNL     1      -1.455  10.133  23.432  0.00  0.00    +0.000 HD
ENDBRANCH  22  23
BRANCH  22  26
ATOM     26  C   UNL     1       0.171  11.123  21.099  0.00  0.00    +0.000 C 
ATOM     27  O   UNL     1       1.209  11.596  20.663  0.00  0.00    +0.000 OA
BRANCH  26  28
ATOM     28  OXT UNL     1      -1.063  11.572  20.736  0.00  0.00    +0.000 OA
ATOM     29  HXT UNL     1      -1.444  10.868  20.154  0.00  0.00    +0.000 HD
ENDBRANCH  26  28
ENDBRANCH  22  26
ENDBRANCH  21  22
ENDBRANCH  19  21
ENDBRANCH  18  19
ENDBRANCH   7  18
TORSDOF 9
ENDMDL
