MODEL 1
REMARK VINA RESULT:      -9.8      0.000      0.000
REMARK  Name = 
REMARK  4 active torsions:
REMARK  status: ('A' for Active; 'I' for Inactive)
REMARK    1  A    between atoms: C_1  and  C_2
REMARK    2  A    between atoms: C_5  and  C_6
REMARK    3  A    between atoms: C_8  and  C_9
REMARK    4  A    between atoms: C_24  and  C_25
REMARK                            x       y       z     vdW  Elec       q    Type
REMARK                         _______ _______ _______ _____ _____    ______ ____
ROOT
ATOM      1  C   UNL     1       8.472   8.941  18.360  0.00  0.00    +0.000 A 
ATOM      2  C   UNL     1       8.366   7.611  18.894  0.00  0.00    +0.000 A 
ATOM      3  C   UNL     1       7.529   6.918  18.052  0.00  0.00    +0.000 A 
ATOM      4  N   UNL     1       7.175   7.854  17.098  0.00  0.00    +0.000 N 
ATOM      5  N   UNL     1       7.697   9.057  17.273  0.00  0.00    +0.000 NA
ATOM      6  H   UNL     1       6.544   7.685  16.325  0.00  0.00    +0.000 HD
ENDROOT
BRANCH   3   7
ATOM      7  C   UNL     1       6.910   5.630  17.909  0.00  0.00    +0.000 C 
ATOM      8  O   UNL     1       7.639   4.653  18.097  0.00  0.00    +0.000 OA
ATOM      9  N   UNL     1       5.592   5.430  17.512  0.00  0.00    +0.000 N 
ATOM     10  C   UNL     1       5.328   4.016  17.180  0.00  0.00    +0.000 C 
ATOM     11  C   UNL     1       3.878   3.616  17.239  0.00  0.00    +0.000 C 
ATOM     12  C   UNL     1       3.327   4.236  18.484  0.00  0.00    +0.000 A 
ATOM     13  C   UNL     1       2.942   3.517  19.607  0.00  0.00    +0.000 A 
ATOM     14  C   UNL     1       2.295   4.186  20.640  0.00  0.00    +0.000 A 
ATOM     15  C   UNL     1       1.969   5.537  20.493  0.00  0.00    +0.000 A 
ATOM     16  C   UNL     1       2.514   6.278  19.440  0.00  0.00    +0.000 A 
ATOM     17  C   UNL     1       3.349   5.636  18.530  0.00  0.00    +0.000 A 
ATOM     18  C   UNL     1       4.412   6.331  17.685  0.00  0.00    +0.000 C 
ENDBRANCH   3   7
BRANCH   1  23
ATOM     19  C   UNL     1      11.106  13.786  20.028  0.00  0.00    +0.000 C 
ATOM     20  C   UNL     1      10.571  12.455  19.577  0.00  0.00    +0.000 A 
ATOM     21  C   UNL     1      10.021  11.588  20.527  0.00  0.00    +0.000 A 
ATOM     22  C   UNL     1       9.402  10.407  20.123  0.00  0.00    +0.000 A 
ATOM     23  C   UNL     1       9.307  10.069  18.765  0.00  0.00    +0.000 A 
ATOM     24  C   UNL     1       9.931  10.890  17.824  0.00  0.00    +0.000 A 
ATOM     25  C   UNL     1      10.567  12.083  18.217  0.00  0.00    +0.000 A 
ATOM     26  C   UNL     1      11.173  12.967  17.165  0.00  0.00    +0.000 C 
ENDBRANCH   1  23
TORSDOF 2
ENDMDL
MODEL 2
REMARK VINA RESULT:      -9.3      1.200      1.647
REMARK  Name = 
REMARK  4 active torsions:
REMARK  status: ('A' for Active; 'I' for Inactive)
REMARK    1  A    between atoms: C_1  and  C_2
REMARK    2  A    between atoms: C_5  and  C_6
REMARK    3  A    between atoms: C_8  and  C_9
REMARK    4  A    between atoms: C_24  and  C_25
REMARK                            x       y       z     vdW  Elec       q    Type
REMARK                         _______ _______ _______ _____ _____    ______ ____
ROOT
ATOM      1  C   UNL     1       8.134   8.501  18.214  0.00  0.00    +0.000 A 
ATOM      2  C   UNL     1       7.128   7.925  17.365  0.00  0.00    +0.000 A 
ATOM      3  C   UNL     1       7.011   6.607  17.737  0.00  0.00    +0.000 A 
ATOM      4  N   UNL     1       7.944   6.467  18.747  0.00  0.00    +0.000 N 
ATOM      5  N   UNL     1       8.634   7.560  19.028  0.00  0.00    +0.000 NA
ATOM      6  H   UNL     1       8.139   5.605  19.241  0.00  0.00    +0.000 HD
ENDROOT
BRANCH   3   7
ATOM      7  C   UNL     1       6.308   5.407  17.378  0.00  0.00    +0.000 C 
ATOM      8  O   UNL     1       7.008   4.442  17.062  0.00  0.00    +0.000 OA
ATOM      9  N   UNL     1       4.924   5.298  17.302  0.00  0.00    +0.000 N 
ATOM     10  C   UNL     1       4.508   4.047  16.639  0.00  0.00    +0.000 C 
ATOM     11  C   UNL     1       3.103   3.605  16.953  0.00  0.00    +0.000 C 
ATOM     12  C   UNL     1       2.929   3.796  18.427  0.00  0.00    +0.000 A 
ATOM     13  C   UNL     1       2.811   2.757  19.339  0.00  0.00    +0.000 A 
ATOM     14  C   UNL     1       2.491   3.057  20.657  0.00  0.00    +0.000 A 
ATOM     15  C   UNL     1       2.210   4.378  21.018  0.00  0.00    +0.000 A 
ATOM     16  C   UNL     1       2.502   5.422  20.135  0.00  0.00    +0.000 A 
ATOM     17  C   UNL     1       3.036   5.115  18.888  0.00  0.00    +0.000 A 
ATOM     18  C   UNL     1       3.878   6.068  18.044  0.00  0.00    +0.000 C 
ENDBRANCH   3   7
BRANCH   1  23
ATOM     19  C   UNL     1      10.340  13.822  18.114  0.00  0.00    +0.000 C 
ATOM     20  C   UNL     1       9.691  12.476  18.283  0.00  0.00    +0.000 A 
ATOM     21  C   UNL     1       8.567  12.164  17.512  0.00  0.00    +0.000 A 
ATOM     22  C   UNL     1       8.022  10.882  17.553  0.00  0.00    +0.000 A 
ATOM     23  C   UNL     1       8.592   9.881  18.353  0.00  0.00    +0.000 A 
ATOM     24  C   UNL     1       9.660  10.215  19.188  0.00  0.00    +0.000 A 
ATOM     25  C   UNL     1      10.216  11.508  19.163  0.00  0.00    +0.000 A 
ATOM     26  C   UNL     1      11.402  11.808  20.034  0.00  0.00    +0.000 C 
ENDBRANCH   1  23
TORSDOF 2
ENDMDL
MODEL 3
REMARK VINA RESULT:      -9.2      0.459      1.380
REMARK  Name = 
REMARK  4 active torsions:
REMARK  status: ('A' for Active; 'I' for Inactive)
REMARK    1  A    between atoms: C_1  and  C_2
REMARK    2  A    between atoms: C_5  and  C_6
REMARK    3  A    between atoms: C_8  and  C_9
REMARK    4  A    between atoms: C_24  and  C_25
REMARK                            x       y       z     vdW  Elec       q    Type
REMARK                         _______ _______ _______ _____ _____    ______ ____
ROOT
ATOM      1  C   UNL     1       8.411   9.008  18.257  0.00  0.00    +0.000 A 
ATOM      2  C   UNL     1       8.345   7.708  18.866  0.00  0.00    +0.000 A 
ATOM      3  C   UNL     1       7.562   6.931  18.046  0.00  0.00    +0.000 A 
ATOM      4  N   UNL     1       7.196   7.794  17.029  0.00  0.00    +0.000 N 
ATOM      5  N   UNL     1       7.663   9.026  17.145  0.00  0.00    +0.000 NA
ATOM      6  H   UNL     1       6.595   7.552  16.251  0.00  0.00    +0.000 HD
ENDROOT
BRANCH   3   7
ATOM      7  C   UNL     1       7.000   5.612  17.964  0.00  0.00    +0.000 C 
ATOM      8  O   UNL     1       7.767   4.679  18.215  0.00  0.00    +0.000 OA
ATOM      9  N   UNL     1       5.699   5.334  17.561  0.00  0.00    +0.000 N 
ATOM     10  C   UNL     1       5.501   3.894  17.302  0.00  0.00    +0.000 C 
ATOM     11  C   UNL     1       4.069   3.435  17.362  0.00  0.00    +0.000 C 
ATOM     12  C   UNL     1       3.471   4.096  18.564  0.00  0.00    +0.000 A 
ATOM     13  C   UNL     1       3.098   3.423  19.719  0.00  0.00    +0.000 A 
ATOM     14  C   UNL     1       2.407   4.118  20.704  0.00  0.00    +0.000 A 
ATOM     15  C   UNL     1       2.026   5.443  20.479  0.00  0.00    +0.000 A 
ATOM     16  C   UNL     1       2.556   6.150  19.395  0.00  0.00    +0.000 A 
ATOM     17  C   UNL     1       3.432   5.497  18.534  0.00  0.00    +0.000 A 
ATOM     18  C   UNL     1       4.479   6.191  17.667  0.00  0.00    +0.000 C 
ENDBRANCH   3   7
BRANCH   1  23
ATOM     19  C   UNL     1      12.056  13.195  19.795  0.00  0.00    +0.000 C 
ATOM     20  C   UNL     1      10.989  12.221  19.378  0.00  0.00    +0.000 A 
ATOM     21  C   UNL     1      11.002  11.719  18.073  0.00  0.00    +0.000 A 
ATOM     22  C   UNL     1      10.106  10.720  17.697  0.00  0.00    +0.000 A 
ATOM     23  C   UNL     1       9.186  10.192  18.615  0.00  0.00    +0.000 A 
ATOM     24  C   UNL     1       9.115  10.753  19.892  0.00  0.00    +0.000 A 
ATOM     25  C   UNL     1      10.008  11.768  20.284  0.00  0.00    +0.000 A 
ATOM     26  C   UNL     1       9.937  12.301  21.686  0.00  0.00    +0.000 C 
ENDBRANCH   1  23
TORSDOF 2
ENDMDL
MODEL 4
REMARK VINA RESULT:      -9.1      1.396      1.597
REMARK  Name = 
REMARK  4 active torsions:
REMARK  status: ('A' for Active; 'I' for Inactive)
REMARK    1  A    between atoms: C_1  and  C_2
REMARK    2  A    between atoms: C_5  and  C_6
REMARK    3  A    between atoms: C_8  and  C_9
REMARK    4  A    between atoms: C_24  and  C_25
REMARK                            x       y       z     vdW  Elec       q    Type
REMARK                         _______ _______ _______ _____ _____    ______ ____
ROOT
ATOM      1  C   UNL     1       8.034   8.200  18.179  0.00  0.00    +0.000 A 
ATOM      2  C   UNL     1       6.985   7.678  17.348  0.00  0.00    +0.000 A 
ATOM      3  C   UNL     1       6.815   6.363  17.714  0.00  0.00    +0.000 A 
ATOM      4  N   UNL     1       7.762   6.172  18.703  0.00  0.00    +0.000 N 
ATOM      5  N   UNL     1       8.507   7.231  18.976  0.00  0.00    +0.000 NA
ATOM      6  H   UNL     1       7.928   5.299  19.187  0.00  0.00    +0.000 HD
ENDROOT
BRANCH   3   7
ATOM      7  C   UNL     1       6.050   5.199  17.362  0.00  0.00    +0.000 C 
ATOM      8  O   UNL     1       6.695   4.224  16.970  0.00  0.00    +0.000 OA
ATOM      9  N   UNL     1       4.661   5.138  17.372  0.00  0.00    +0.000 N 
ATOM     10  C   UNL     1       4.162   3.924  16.697  0.00  0.00    +0.000 C 
ATOM     11  C   UNL     1       2.766   3.516  17.087  0.00  0.00    +0.000 C 
ATOM     12  C   UNL     1       2.692   3.661  18.574  0.00  0.00    +0.000 A 
ATOM     13  C   UNL     1       2.597   2.595  19.457  0.00  0.00    +0.000 A 
ATOM     14  C   UNL     1       2.373   2.859  20.803  0.00  0.00    +0.000 A 
ATOM     15  C   UNL     1       2.160   4.174  21.225  0.00  0.00    +0.000 A 
ATOM     16  C   UNL     1       2.431   5.239  20.359  0.00  0.00    +0.000 A 
ATOM     17  C   UNL     1       2.873   4.959  19.071  0.00  0.00    +0.000 A 
ATOM     18  C   UNL     1       3.692   5.913  18.206  0.00  0.00    +0.000 C 
ENDBRANCH   3   7
BRANCH   1  23
ATOM     19  C   UNL     1       9.635  13.611  19.338  0.00  0.00    +0.000 C 
ATOM     20  C   UNL     1       9.319  12.207  18.904  0.00  0.00    +0.000 A 
ATOM     21  C   UNL     1       9.900  11.137  19.591  0.00  0.00    +0.000 A 
ATOM     22  C   UNL     1       9.526   9.827  19.295  0.00  0.00    +0.000 A 
ATOM     23  C   UNL     1       8.558   9.556  18.318  0.00  0.00    +0.000 A 
ATOM     24  C   UNL     1       8.041  10.618  17.572  0.00  0.00    +0.000 A 
ATOM     25  C   UNL     1       8.415  11.945  17.854  0.00  0.00    +0.000 A 
ATOM     26  C   UNL     1       7.789  13.062  17.067  0.00  0.00    +0.000 C 
ENDBRANCH   1  23
TORSDOF 2
ENDMDL
MODEL 5
REMARK VINA RESULT:      -8.7      0.802      1.220
REMARK  Name = 
REMARK  4 active torsions:
REMARK  status: ('A' for Active; 'I' for Inactive)
REMARK    1  A    between atoms: C_1  and  C_2
REMARK    2  A    between atoms: C_5  and  C_6
REMARK    3  A    between atoms: C_8  and  C_9
REMARK    4  A    between atoms: C_24  and  C_25
REMARK                            x       y       z     vdW  Elec       q    Type
REMARK                         _______ _______ _______ _____ _____    ______ ____
ROOT
ATOM      1  C   UNL     1       8.258   9.224  18.070  0.00  0.00    +0.000 A 
ATOM      2  C   UNL     1       8.337   7.946  18.721  0.00  0.00    +0.000 A 
ATOM      3  C   UNL     1       7.517   7.097  18.016  0.00  0.00    +0.000 A 
ATOM      4  N   UNL     1       6.991   7.900  17.022  0.00  0.00    +0.000 N 
ATOM      5  N   UNL     1       7.392   9.160  17.048  0.00  0.00    +0.000 NA
ATOM      6  H   UNL     1       6.323   7.597  16.323  0.00  0.00    +0.000 HD
ENDROOT
BRANCH   3   7
ATOM      7  C   UNL     1       7.031   5.745  18.036  0.00  0.00    +0.000 C 
ATOM      8  O   UNL     1       7.841   4.882  18.383  0.00  0.00    +0.000 OA
ATOM      9  N   UNL     1       5.758   5.361  17.630  0.00  0.00    +0.000 N 
ATOM     10  C   UNL     1       5.646   3.896  17.493  0.00  0.00    +0.000 C 
ATOM     11  C   UNL     1       4.239   3.363  17.560  0.00  0.00    +0.000 C 
ATOM     12  C   UNL     1       3.575   4.089  18.688  0.00  0.00    +0.000 A 
ATOM     13  C   UNL     1       3.209   3.496  19.888  0.00  0.00    +0.000 A 
ATOM     14  C   UNL     1       2.455   4.231  20.794  0.00  0.00    +0.000 A 
ATOM     15  C   UNL     1       2.008   5.509  20.448  0.00  0.00    +0.000 A 
ATOM     16  C   UNL     1       2.528   6.151  19.319  0.00  0.00    +0.000 A 
ATOM     17  C   UNL     1       3.460   5.477  18.537  0.00  0.00    +0.000 A 
ATOM     18  C   UNL     1       4.490   6.154  17.636  0.00  0.00    +0.000 C 
ENDBRANCH   3   7
BRANCH   1  23
ATOM     19  C   UNL     1      11.444  14.019  18.280  0.00  0.00    +0.000 C 
ATOM     20  C   UNL     1      10.568  12.801  18.383  0.00  0.00    +0.000 A 
ATOM     21  C   UNL     1       9.311  12.815  17.770  0.00  0.00    +0.000 A 
ATOM     22  C   UNL     1       8.533  11.660  17.738  0.00  0.00    +0.000 A 
ATOM     23  C   UNL     1       8.995  10.463  18.304  0.00  0.00    +0.000 A 
ATOM     24  C   UNL     1      10.211  10.470  18.991  0.00  0.00    +0.000 A 
ATOM     25  C   UNL     1      11.004  11.632  19.039  0.00  0.00    +0.000 A 
ATOM     26  C   UNL     1      12.333  11.579  19.736  0.00  0.00    +0.000 C 
ENDBRANCH   1  23
TORSDOF 2
ENDMDL
MODEL 6
REMARK VINA RESULT:      -8.4      1.804      2.295
REMARK  Name = 
REMARK  4 active torsions:
REMARK  status: ('A' for Active; 'I' for Inactive)
REMARK    1  A    between atoms: C_1  and  C_2
REMARK    2  A    between atoms: C_5  and  C_6
REMARK    3  A    between atoms: C_8  and  C_9
REMARK    4  A    between atoms: C_24  and  C_25
REMARK                            x       y       z     vdW  Elec       q    Type
REMARK                         _______ _______ _______ _____ _____    ______ ____
ROOT
ATOM      1  C   UNL     1       8.890  10.284  18.157  0.00  0.00    +0.000 A 
ATOM      2  C   UNL     1       8.116   9.318  17.427  0.00  0.00    +0.000 A 
ATOM      3  C   UNL     1       8.094   8.176  18.192  0.00  0.00    +0.000 A 
ATOM      4  N   UNL     1       8.853   8.508  19.298  0.00  0.00    +0.000 N 
ATOM      5  N   UNL     1       9.352   9.733  19.288  0.00  0.00    +0.000 NA
ATOM      6  H   UNL     1       9.062   7.884  20.067  0.00  0.00    +0.000 HD
ENDROOT
BRANCH   3   7
ATOM      7  C   UNL     1       7.608   6.825  18.162  0.00  0.00    +0.000 C 
ATOM      8  O   UNL     1       8.259   6.000  18.808  0.00  0.00    +0.000 OA
ATOM      9  N   UNL     1       6.519   6.397  17.411  0.00  0.00    +0.000 N 
ATOM     10  C   UNL     1       6.436   4.924  17.356  0.00  0.00    +0.000 C 
ATOM     11  C   UNL     1       5.072   4.382  17.024  0.00  0.00    +0.000 C 
ATOM     12  C   UNL     1       4.100   5.184  17.831  0.00  0.00    +0.000 A 
ATOM     13  C   UNL     1       3.372   4.679  18.900  0.00  0.00    +0.000 A 
ATOM     14  C   UNL     1       2.383   5.473  19.469  0.00  0.00    +0.000 A 
ATOM     15  C   UNL     1       2.082   6.716  18.905  0.00  0.00    +0.000 A 
ATOM     16  C   UNL     1       2.935   7.275  17.948  0.00  0.00    +0.000 A 
ATOM     17  C   UNL     1       4.055   6.555  17.547  0.00  0.00    +0.000 A 
ATOM     18  C   UNL     1       5.322   7.173  16.963  0.00  0.00    +0.000 C 
ENDBRANCH   3   7
BRANCH   1  23
ATOM     19  C   UNL     1      10.081  15.913  17.864  0.00  0.00    +0.000 C 
ATOM     20  C   UNL     1       9.734  14.452  17.778  0.00  0.00    +0.000 A 
ATOM     21  C   UNL     1      10.767  13.510  17.748  0.00  0.00    +0.000 A 
ATOM     22  C   UNL     1      10.476  12.148  17.799  0.00  0.00    +0.000 A 
ATOM     23  C   UNL     1       9.151  11.696  17.892  0.00  0.00    +0.000 A 
ATOM     24  C   UNL     1       8.117  12.632  17.834  0.00  0.00    +0.000 A 
ATOM     25  C   UNL     1       8.395  14.011  17.775  0.00  0.00    +0.000 A 
ATOM     26  C   UNL     1       7.253  14.986  17.776  0.00  0.00    +0.000 C 
ENDBRANCH   1  23
TORSDOF 2
ENDMDL
MODEL 7
REMARK VINA RESULT:      -8.4      1.170      1.292
REMARK  Name = 
REMARK  4 active torsions:
REMARK  status: ('A' for Active; 'I' for Inactive)
REMARK    1  A    between atoms: C_1  and  C_2
REMARK    2  A    between atoms: C_5  and  C_6
REMARK    3  A    between atoms: C_8  and  C_9
REMARK    4  A    between atoms: C_24  and  C_25
REMARK                            x       y       z     vdW  Elec       q    Type
REMARK                         _______ _______ _______ _____ _____    ______ ____
ROOT
ATOM      1  C   UNL     1       8.583   8.716  18.581  0.00  0.00    +0.000 A 
ATOM      2  C   UNL     1       7.767   8.276  17.484  0.00  0.00    +0.000 A 
ATOM      3  C   UNL     1       7.488   6.949  17.712  0.00  0.00    +0.000 A 
ATOM      4  N   UNL     1       8.154   6.673  18.891  0.00  0.00    +0.000 N 
ATOM      5  N   UNL     1       8.825   7.689  19.407  0.00  0.00    +0.000 NA
ATOM      6  H   UNL     1       8.179   5.769  19.346  0.00  0.00    +0.000 HD
ENDROOT
BRANCH   3   7
ATOM      7  C   UNL     1       6.816   5.832  17.109  0.00  0.00    +0.000 C 
ATOM      8  O   UNL     1       7.538   4.997  16.558  0.00  0.00    +0.000 OA
ATOM      9  N   UNL     1       5.435   5.682  17.052  0.00  0.00    +0.000 N 
ATOM     10  C   UNL     1       5.039   4.598  16.132  0.00  0.00    +0.000 C 
ATOM     11  C   UNL     1       3.665   4.034  16.379  0.00  0.00    +0.000 C 
ATOM     12  C   UNL     1       3.543   3.875  17.862  0.00  0.00    +0.000 A 
ATOM     13  C   UNL     1       3.500   2.651  18.514  0.00  0.00    +0.000 A 
ATOM     14  C   UNL     1       3.222   2.628  19.875  0.00  0.00    +0.000 A 
ATOM     15  C   UNL     1       2.908   3.817  20.539  0.00  0.00    +0.000 A 
ATOM     16  C   UNL     1       3.125   5.047  19.911  0.00  0.00    +0.000 A 
ATOM     17  C   UNL     1       3.620   5.057  18.611  0.00  0.00    +0.000 A 
ATOM     18  C   UNL     1       4.393   6.214  17.983  0.00  0.00    +0.000 C 
ENDBRANCH   3   7
BRANCH   1  23
ATOM     19  C   UNL     1       9.799  14.145  20.080  0.00  0.00    +0.000 C 
ATOM     20  C   UNL     1       9.645  12.709  19.662  0.00  0.00    +0.000 A 
ATOM     21  C   UNL     1       9.444  11.733  20.643  0.00  0.00    +0.000 A 
ATOM     22  C   UNL     1       9.170  10.417  20.279  0.00  0.00    +0.000 A 
ATOM     23  C   UNL     1       9.079  10.045  18.930  0.00  0.00    +0.000 A 
ATOM     24  C   UNL     1       9.365  10.999  17.950  0.00  0.00    +0.000 A 
ATOM     25  C   UNL     1       9.650  12.331  18.303  0.00  0.00    +0.000 A 
ATOM     26  C   UNL     1       9.893  13.338  17.215  0.00  0.00    +0.000 C 
ENDBRANCH   1  23
TORSDOF 2
ENDMDL
MODEL 8
REMARK VINA RESULT:      -8.2      5.733      9.070
REMARK  Name = 
REMARK  4 active torsions:
REMARK  status: ('A' for Active; 'I' for Inactive)
REMARK    1  A    between atoms: C_1  and  C_2
REMARK    2  A    between atoms: C_5  and  C_6
REMARK    3  A    between atoms: C_8  and  C_9
REMARK    4  A    between atoms: C_24  and  C_25
REMARK                            x       y       z     vdW  Elec       q    Type
REMARK                         _______ _______ _______ _____ _____    ______ ____
ROOT
ATOM      1  C   UNL     1       2.513   7.580  18.447  0.00  0.00    +0.000 A 
ATOM      2  C   UNL     1       1.888   8.717  17.831  0.00  0.00    +0.000 A 
ATOM      3  C   UNL     1       1.207   9.376  18.827  0.00  0.00    +0.000 A 
ATOM      4  N   UNL     1       1.441   8.604  19.950  0.00  0.00    +0.000 N 
ATOM      5  N   UNL     1       2.185   7.530  19.746  0.00  0.00    +0.000 NA
ATOM      6  H   UNL     1       1.067   8.792  20.872  0.00  0.00    +0.000 HD
ENDROOT
BRANCH   3   7
ATOM      7  C   UNL     1       0.341  10.505  19.027  0.00  0.00    +0.000 C 
ATOM      8  O   UNL     1      -0.769  10.260  19.504  0.00  0.00    +0.000 OA
ATOM      9  N   UNL     1       0.651  11.809  18.656  0.00  0.00    +0.000 N 
ATOM     10  C   UNL     1      -0.530  12.692  18.721  0.00  0.00    +0.000 C 
ATOM     11  C   UNL     1      -0.213  14.159  18.838  0.00  0.00    +0.000 C 
ATOM     12  C   UNL     1       0.891  14.266  19.842  0.00  0.00    +0.000 A 
ATOM     13  C   UNL     1       0.744  14.819  21.106  0.00  0.00    +0.000 A 
ATOM     14  C   UNL     1       1.877  15.010  21.888  0.00  0.00    +0.000 A 
ATOM     15  C   UNL     1       3.139  14.728  21.360  0.00  0.00    +0.000 A 
ATOM     16  C   UNL     1       3.253  14.015  20.162  0.00  0.00    +0.000 A 
ATOM     17  C   UNL     1       2.093  13.633  19.497  0.00  0.00    +0.000 A 
ATOM     18  C   UNL     1       1.992  12.457  18.529  0.00  0.00    +0.000 C 
ENDBRANCH   3   7
BRANCH   1  23
ATOM     19  C   UNL     1       5.819   3.774  15.659  0.00  0.00    +0.000 C 
ATOM     20  C   UNL     1       5.047   4.733  16.522  0.00  0.00    +0.000 A 
ATOM     21  C   UNL     1       5.296   6.104  16.404  0.00  0.00    +0.000 A 
ATOM     22  C   UNL     1       4.508   7.022  17.095  0.00  0.00    +0.000 A 
ATOM     23  C   UNL     1       3.449   6.596  17.909  0.00  0.00    +0.000 A 
ATOM     24  C   UNL     1       3.254   5.226  18.095  0.00  0.00    +0.000 A 
ATOM     25  C   UNL     1       4.047   4.286  17.410  0.00  0.00    +0.000 A 
ATOM     26  C   UNL     1       3.765   2.822  17.593  0.00  0.00    +0.000 C 
ENDBRANCH   1  23
TORSDOF 2
ENDMDL
MODEL 9
REMARK VINA RESULT:      -8.2      5.382      8.810
REMARK  Name = 
REMARK  4 active torsions:
REMARK  status: ('A' for Active; 'I' for Inactive)
REMARK    1  A    between atoms: C_1  and  C_2
REMARK    2  A    between atoms: C_5  and  C_6
REMARK    3  A    between atoms: C_8  and  C_9
REMARK    4  A    between atoms: C_24  and  C_25
REMARK                            x       y       z     vdW  Elec       q    Type
REMARK                         _______ _______ _______ _____ _____    ______ ____
ROOT
ATOM      1  C   UNL     1       2.378   6.740  19.310  0.00  0.00    +0.000 A 
ATOM      2  C   UNL     1       2.063   8.135  19.444  0.00  0.00    +0.000 A 
ATOM      3  C   UNL     1       1.510   8.292  20.693  0.00  0.00    +0.000 A 
ATOM      4  N   UNL     1       1.506   7.012  21.214  0.00  0.00    +0.000 N 
ATOM      5  N   UNL     1       1.989   6.079  20.409  0.00  0.00    +0.000 NA
ATOM      6  H   UNL     1       1.145   6.756  22.124  0.00  0.00    +0.000 HD
ENDROOT
BRANCH   3   7
ATOM      7  C   UNL     1       0.922   9.299  21.533  0.00  0.00    +0.000 C 
ATOM      8  O   UNL     1       1.463   9.477  22.627  0.00  0.00    +0.000 OA
ATOM      9  N   UNL     1      -0.230  10.011  21.218  0.00  0.00    +0.000 N 
ATOM     10  C   UNL     1      -0.747  10.757  22.382  0.00  0.00    +0.000 C 
ATOM     11  C   UNL     1      -1.645  11.916  22.039  0.00  0.00    +0.000 C 
ATOM     12  C   UNL     1      -0.990  12.622  20.894  0.00  0.00    +0.000 A 
ATOM     13  C   UNL     1      -0.414  13.882  20.982  0.00  0.00    +0.000 A 
ATOM     14  C   UNL     1       0.019  14.502  19.817  0.00  0.00    +0.000 A 
ATOM     15  C   UNL     1      -0.211  13.892  18.580  0.00  0.00    +0.000 A 
ATOM     16  C   UNL     1      -0.630  12.559  18.525  0.00  0.00    +0.000 A 
ATOM     17  C   UNL     1      -0.848  11.876  19.716  0.00  0.00    +0.000 A 
ATOM     18  C   UNL     1      -0.782  10.359  19.873  0.00  0.00    +0.000 C 
ENDBRANCH   3   7
BRANCH   1  23
ATOM     19  C   UNL     1       5.583   3.585  15.710  0.00  0.00    +0.000 C 
ATOM     20  C   UNL     1       4.669   4.468  16.514  0.00  0.00    +0.000 A 
ATOM     21  C   UNL     1       3.583   3.892  17.180  0.00  0.00    +0.000 A 
ATOM     22  C   UNL     1       2.797   4.662  18.035  0.00  0.00    +0.000 A 
ATOM     23  C   UNL     1       3.082   6.017  18.254  0.00  0.00    +0.000 A 
ATOM     24  C   UNL     1       4.112   6.613  17.523  0.00  0.00    +0.000 A 
ATOM     25  C   UNL     1       4.910   5.850  16.650  0.00  0.00    +0.000 A 
ATOM     26  C   UNL     1       6.046   6.518  15.930  0.00  0.00    +0.000 C 
ENDBRANCH   1  23
TORSDOF 2
ENDMDL
