MODEL 1
REMARK VINA RESULT:      -7.3      0.000      0.000
REMARK  Name = 
REMARK  8 active torsions:
REMARK  status: ('A' for Active; 'I' for Inactive)
REMARK    1  A    between atoms: C_1  and  O_2
REMARK    2  A    between atoms: O_2  and  C_3
REMARK    3  A    between atoms: C_6  and  C_7
REMARK    4  A    between atoms: C_7  and  N_8
REMARK    5  A    between atoms: N_8  and  C_9
REMARK    6  A    between atoms: C_10  and  C_12
REMARK    7  A    between atoms: C_22  and  O_23
REMARK    8  A    between atoms: O_23  and  C_24
REMARK                            x       y       z     vdW  Elec       q    Type
REMARK                         _______ _______ _______ _____ _____    ______ ____
ROOT
ATOM      1  N   UNL     1       2.215   7.855  18.975  0.00  0.00    +0.000 N 
ATOM      2  C   UNL     1       2.961   7.771  17.729  0.00  0.00    +0.000 C 
ATOM      3  C   UNL     1       1.933   6.766  19.822  0.00  0.00    +0.000 C 
ATOM      4  O   UNL     1       1.425   6.961  20.939  0.00  0.00    +0.000 OA
ENDROOT
BRANCH   3   5
ATOM      5  C   UNL     1       2.301   5.289  19.410  0.00  0.00    +0.000 C 
ATOM      6  C   UNL     1       3.819   5.044  19.610  0.00  0.00    +0.000 C 
ATOM      7  C   UNL     1       4.224   3.620  19.208  0.00  0.00    +0.000 C 
ATOM      8  C   UNL     1       3.512   2.614  20.119  0.00  0.00    +0.000 C 
ATOM      9  C   UNL     1       1.991   2.788  19.992  0.00  0.00    +0.000 C 
ATOM     10  C   UNL     1       1.588   2.485  18.540  0.00  0.00    +0.000 C 
ATOM     11  C   UNL     1       2.280   3.474  17.605  0.00  0.00    +0.000 C 
ATOM     12  C   UNL     1       3.810   3.377  17.749  0.00  0.00    +0.000 C 
ATOM     13  C   UNL     1       1.833   4.895  17.984  0.00  0.00    +0.000 C 
ATOM     14  C   UNL     1       1.595   4.245  20.355  0.00  0.00    +0.000 C 
ENDBRANCH   3   5
BRANCH   1  15
ATOM     15  C   UNL     1       2.074   9.220  19.549  0.00  0.00    +0.000 C 
BRANCH  15  19
ATOM     16  C   UNL     1      -1.789  11.170  19.050  0.00  0.00    +0.000 A 
ATOM     17  C   UNL     1      -1.185  10.507  17.986  0.00  0.00    +0.000 A 
ATOM     18  C   UNL     1       0.050   9.875  18.157  0.00  0.00    +0.000 A 
ATOM     19  C   UNL     1       0.707   9.884  19.405  0.00  0.00    +0.000 A 
ATOM     20  C   UNL     1       0.075  10.526  20.482  0.00  0.00    +0.000 A 
ATOM     21  C   UNL     1      -1.163  11.171  20.296  0.00  0.00    +0.000 A 
BRANCH  16  23
ATOM     22  C   UNL     1      -3.619  11.389  17.553  0.00  0.00    +0.000 C 
ATOM     23  O   UNL     1      -2.967  11.800  18.750  0.00  0.00    +0.000 OA
ENDBRANCH  16  23
BRANCH  20  24
ATOM     24  O   UNL     1       0.715  10.470  21.693  0.00  0.00    +0.000 OA
ATOM     25  C   UNL     1      -0.029   9.890  22.759  0.00  0.00    +0.000 C 
ENDBRANCH  20  24
ENDBRANCH  15  19
ENDBRANCH   1  15
TORSDOF 5
ENDMDL
MODEL 2
REMARK VINA RESULT:      -7.3      0.193      1.530
REMARK  Name = 
REMARK  8 active torsions:
REMARK  status: ('A' for Active; 'I' for Inactive)
REMARK    1  A    between atoms: C_1  and  O_2
REMARK    2  A    between atoms: O_2  and  C_3
REMARK    3  A    between atoms: C_6  and  C_7
REMARK    4  A    between atoms: C_7  and  N_8
REMARK    5  A    between atoms: N_8  and  C_9
REMARK    6  A    between atoms: C_10  and  C_12
REMARK    7  A    between atoms: C_22  and  O_23
REMARK    8  A    between atoms: O_23  and  C_24
REMARK                            x       y       z     vdW  Elec       q    Type
REMARK                         _______ _______ _______ _____ _____    ______ ____
ROOT
ATOM      1  N   UNL     1       2.142   7.889  19.049  0.00  0.00    +0.000 N 
ATOM      2  C   UNL     1       2.914   7.759  17.822  0.00  0.00    +0.000 C 
ATOM      3  C   UNL     1       1.838   6.832  19.927  0.00  0.00    +0.000 C 
ATOM      4  O   UNL     1       1.308   7.067  21.026  0.00  0.00    +0.000 OA
ENDROOT
BRANCH   3   5
ATOM      5  C   UNL     1       2.210   5.340  19.576  0.00  0.00    +0.000 C 
ATOM      6  C   UNL     1       1.374   4.365  20.445  0.00  0.00    +0.000 C 
ATOM      7  C   UNL     1       1.715   2.900  20.144  0.00  0.00    +0.000 C 
ATOM      8  C   UNL     1       1.352   2.583  18.689  0.00  0.00    +0.000 C 
ATOM      9  C   UNL     1       2.132   3.512  17.748  0.00  0.00    +0.000 C 
ATOM     10  C   UNL     1       3.634   3.241  17.935  0.00  0.00    +0.000 C 
ATOM     11  C   UNL     1       4.030   3.551  19.376  0.00  0.00    +0.000 C 
ATOM     12  C   UNL     1       3.221   2.683  20.359  0.00  0.00    +0.000 C 
ATOM     13  C   UNL     1       3.729   5.031  19.655  0.00  0.00    +0.000 C 
ATOM     14  C   UNL     1       1.818   4.993  18.089  0.00  0.00    +0.000 C 
ENDBRANCH   3   5
BRANCH   1  15
ATOM     15  C   UNL     1       1.995   9.274  19.571  0.00  0.00    +0.000 C 
BRANCH  15  19
ATOM     16  C   UNL     1      -1.873  11.191  18.981  0.00  0.00    +0.000 A 
ATOM     17  C   UNL     1      -1.268  10.479  17.950  0.00  0.00    +0.000 A 
ATOM     18  C   UNL     1      -0.032   9.858  18.150  0.00  0.00    +0.000 A 
ATOM     19  C   UNL     1       0.626   9.927  19.396  0.00  0.00    +0.000 A 
ATOM     20  C   UNL     1      -0.007  10.619  20.442  0.00  0.00    +0.000 A 
ATOM     21  C   UNL     1      -1.246  11.252  20.225  0.00  0.00    +0.000 A 
BRANCH  16  23
ATOM     22  C   UNL     1      -3.658  11.398  17.429  0.00  0.00    +0.000 C 
ATOM     23  O   UNL     1      -3.052  11.803  18.653  0.00  0.00    +0.000 OA
ENDBRANCH  16  23
BRANCH  20  24
ATOM     24  O   UNL     1       0.633  10.621  21.653  0.00  0.00    +0.000 OA
ATOM     25  C   UNL     1      -0.070  10.003  22.726  0.00  0.00    +0.000 C 
ENDBRANCH  20  24
ENDBRANCH  15  19
ENDBRANCH   1  15
TORSDOF 5
ENDMDL
MODEL 3
REMARK VINA RESULT:      -7.2      1.161      2.000
REMARK  Name = 
REMARK  8 active torsions:
REMARK  status: ('A' for Active; 'I' for Inactive)
REMARK    1  A    between atoms: C_1  and  O_2
REMARK    2  A    between atoms: O_2  and  C_3
REMARK    3  A    between atoms: C_6  and  C_7
REMARK    4  A    between atoms: C_7  and  N_8
REMARK    5  A    between atoms: N_8  and  C_9
REMARK    6  A    between atoms: C_10  and  C_12
REMARK    7  A    between atoms: C_22  and  O_23
REMARK    8  A    between atoms: O_23  and  C_24
REMARK                            x       y       z     vdW  Elec       q    Type
REMARK                         _______ _______ _______ _____ _____    ______ ____
ROOT
ATOM      1  N   UNL     1       1.843   8.149  19.819  0.00  0.00    +0.000 N 
ATOM      2  C   UNL     1       1.075   7.829  21.012  0.00  0.00    +0.000 C 
ATOM      3  C   UNL     1       2.377   7.203  18.924  0.00  0.00    +0.000 C 
ATOM      4  O   UNL     1       2.884   7.575  17.852  0.00  0.00    +0.000 OA
ENDROOT
BRANCH   3   5
ATOM      5  C   UNL     1       2.299   5.656  19.222  0.00  0.00    +0.000 C 
ATOM      6  C   UNL     1       1.838   4.892  17.955  0.00  0.00    +0.000 C 
ATOM      7  C   UNL     1       1.735   3.383  18.206  0.00  0.00    +0.000 C 
ATOM      8  C   UNL     1       3.123   2.830  18.548  0.00  0.00    +0.000 C 
ATOM      9  C   UNL     1       3.668   3.538  19.796  0.00  0.00    +0.000 C 
ATOM     10  C   UNL     1       2.729   3.233  20.975  0.00  0.00    +0.000 C 
ATOM     11  C   UNL     1       1.336   3.775  20.666  0.00  0.00    +0.000 C 
ATOM     12  C   UNL     1       0.778   3.135  19.381  0.00  0.00    +0.000 C 
ATOM     13  C   UNL     1       1.439   5.294  20.463  0.00  0.00    +0.000 C 
ATOM     14  C   UNL     1       3.725   5.070  19.552  0.00  0.00    +0.000 C 
ENDBRANCH   3   5
BRANCH   1  15
ATOM     15  C   UNL     1       1.728   9.552  19.339  0.00  0.00    +0.000 C 
BRANCH  15  19
ATOM     16  C   UNL     1      -2.255  11.012  18.344  0.00  0.00    +0.000 A 
ATOM     17  C   UNL     1      -1.601  10.107  17.513  0.00  0.00    +0.000 A 
ATOM     18  C   UNL     1      -0.328   9.636  17.844  0.00  0.00    +0.000 A 
ATOM     19  C   UNL     1       0.320  10.053  19.025  0.00  0.00    +0.000 A 
ATOM     20  C   UNL     1      -0.361  10.940  19.876  0.00  0.00    +0.000 A 
ATOM     21  C   UNL     1      -1.637  11.419  19.526  0.00  0.00    +0.000 A 
BRANCH  16  23
ATOM     22  C   UNL     1      -3.765  11.189  16.520  0.00  0.00    +0.000 C 
ATOM     23  O   UNL     1      -3.471  11.446  17.889  0.00  0.00    +0.000 OA
ENDBRANCH  16  23
BRANCH  20  24
ATOM     24  O   UNL     1       0.274  11.283  21.041  0.00  0.00    +0.000 OA
ATOM     25  C   UNL     1      -0.420  10.964  22.242  0.00  0.00    +0.000 C 
ENDBRANCH  20  24
ENDBRANCH  15  19
ENDBRANCH   1  15
TORSDOF 5
ENDMDL
MODEL 4
REMARK VINA RESULT:      -7.2      1.390      2.318
REMARK  Name = 
REMARK  8 active torsions:
REMARK  status: ('A' for Active; 'I' for Inactive)
REMARK    1  A    between atoms: C_1  and  O_2
REMARK    2  A    between atoms: O_2  and  C_3
REMARK    3  A    between atoms: C_6  and  C_7
REMARK    4  A    between atoms: C_7  and  N_8
REMARK    5  A    between atoms: N_8  and  C_9
REMARK    6  A    between atoms: C_10  and  C_12
REMARK    7  A    between atoms: C_22  and  O_23
REMARK    8  A    between atoms: O_23  and  C_24
REMARK                            x       y       z     vdW  Elec       q    Type
REMARK                         _______ _______ _______ _____ _____    ______ ____
ROOT
ATOM      1  N   UNL     1       1.988   8.505  19.128  0.00  0.00    +0.000 N 
ATOM      2  C   UNL     1       1.356   8.044  20.354  0.00  0.00    +0.000 C 
ATOM      3  C   UNL     1       2.564   7.668  18.153  0.00  0.00    +0.000 C 
ATOM      4  O   UNL     1       2.940   8.143  17.068  0.00  0.00    +0.000 OA
ENDROOT
BRANCH   3   5
ATOM      5  C   UNL     1       2.694   6.113  18.379  0.00  0.00    +0.000 C 
ATOM      6  C   UNL     1       1.415   5.394  17.880  0.00  0.00    +0.000 C 
ATOM      7  C   UNL     1       1.495   3.877  18.094  0.00  0.00    +0.000 C 
ATOM      8  C   UNL     1       2.649   3.307  17.262  0.00  0.00    +0.000 C 
ATOM      9  C   UNL     1       3.967   3.971  17.685  0.00  0.00    +0.000 C 
ATOM     10  C   UNL     1       4.230   3.631  19.161  0.00  0.00    +0.000 C 
ATOM     11  C   UNL     1       3.097   4.189  20.019  0.00  0.00    +0.000 C 
ATOM     12  C   UNL     1       1.744   3.595  19.583  0.00  0.00    +0.000 C 
ATOM     13  C   UNL     1       3.054   5.714  19.835  0.00  0.00    +0.000 C 
ATOM     14  C   UNL     1       3.863   5.510  17.510  0.00  0.00    +0.000 C 
ENDBRANCH   3   5
BRANCH   1  15
ATOM     15  C   UNL     1       1.670   9.901  18.727  0.00  0.00    +0.000 C 
BRANCH  15  19
ATOM     16  C   UNL     1      -2.538  10.960  18.341  0.00  0.00    +0.000 A 
ATOM     17  C   UNL     1      -1.946  10.065  17.456  0.00  0.00    +0.000 A 
ATOM     18  C   UNL     1      -0.599   9.722  17.592  0.00  0.00    +0.000 A 
ATOM     19  C   UNL     1       0.190  10.263  18.629  0.00  0.00    +0.000 A 
ATOM     20  C   UNL     1      -0.423  11.140  19.539  0.00  0.00    +0.000 A 
ATOM     21  C   UNL     1      -1.778  11.488  19.384  0.00  0.00    +0.000 A 
BRANCH  16  23
ATOM     22  C   UNL     1      -4.232  11.264  16.705  0.00  0.00    +0.000 C 
ATOM     23  O   UNL     1      -3.846  11.264  18.075  0.00  0.00    +0.000 OA
ENDBRANCH  16  23
BRANCH  20  24
ATOM     24  O   UNL     1       0.357  11.605  20.566  0.00  0.00    +0.000 OA
ATOM     25  C   UNL     1      -0.320  11.858  21.792  0.00  0.00    +0.000 C 
ENDBRANCH  20  24
ENDBRANCH  15  19
ENDBRANCH   1  15
TORSDOF 5
ENDMDL
MODEL 5
REMARK VINA RESULT:      -7.1      0.188      1.531
REMARK  Name = 
REMARK  8 active torsions:
REMARK  status: ('A' for Active; 'I' for Inactive)
REMARK    1  A    between atoms: C_1  and  O_2
REMARK    2  A    between atoms: O_2  and  C_3
REMARK    3  A    between atoms: C_6  and  C_7
REMARK    4  A    between atoms: C_7  and  N_8
REMARK    5  A    between atoms: N_8  and  C_9
REMARK    6  A    between atoms: C_10  and  C_12
REMARK    7  A    between atoms: C_22  and  O_23
REMARK    8  A    between atoms: O_23  and  C_24
REMARK                            x       y       z     vdW  Elec       q    Type
REMARK                         _______ _______ _______ _____ _____    ______ ____
ROOT
ATOM      1  N   UNL     1       2.127   7.930  19.067  0.00  0.00    +0.000 N 
ATOM      2  C   UNL     1       2.882   7.839  17.826  0.00  0.00    +0.000 C 
ATOM      3  C   UNL     1       1.854   6.851  19.927  0.00  0.00    +0.000 C 
ATOM      4  O   UNL     1       1.337   7.055  21.039  0.00  0.00    +0.000 OA
ENDROOT
BRANCH   3   5
ATOM      5  C   UNL     1       2.245   5.373  19.540  0.00  0.00    +0.000 C 
ATOM      6  C   UNL     1       1.856   5.088  18.066  0.00  0.00    +0.000 C 
ATOM      7  C   UNL     1       2.208   3.654  17.652  0.00  0.00    +0.000 C 
ATOM      8  C   UNL     1       3.726   3.461  17.731  0.00  0.00    +0.000 C 
ATOM      9  C   UNL     1       4.208   3.731  19.164  0.00  0.00    +0.000 C 
ATOM     10  C   UNL     1       3.547   2.704  20.098  0.00  0.00    +0.000 C 
ATOM     11  C   UNL     1       2.031   2.872  20.045  0.00  0.00    +0.000 C 
ATOM     12  C   UNL     1       1.513   2.673  18.608  0.00  0.00    +0.000 C 
ATOM     13  C   UNL     1       1.683   4.296  20.507  0.00  0.00    +0.000 C 
ATOM     14  C   UNL     1       3.807   5.168  19.593  0.00  0.00    +0.000 C 
ENDBRANCH   3   5
BRANCH   1  15
ATOM     15  C   UNL     1       1.964   9.302  19.619  0.00  0.00    +0.000 C 
BRANCH  15  19
ATOM     16  C   UNL     1      -1.887  11.231  18.967  0.00  0.00    +0.000 A 
ATOM     17  C   UNL     1      -1.272  10.508  17.949  0.00  0.00    +0.000 A 
ATOM     18  C   UNL     1      -0.042   9.884  18.169  0.00  0.00    +0.000 A 
ATOM     19  C   UNL     1       0.601   9.960  19.423  0.00  0.00    +0.000 A 
ATOM     20  C   UNL     1      -0.042  10.663  20.455  0.00  0.00    +0.000 A 
ATOM     21  C   UNL     1      -1.275  11.299  20.218  0.00  0.00    +0.000 A 
BRANCH  16  23
ATOM     22  C   UNL     1      -3.968  11.081  17.834  0.00  0.00    +0.000 C 
ATOM     23  O   UNL     1      -3.059  11.846  18.619  0.00  0.00    +0.000 OA
ENDBRANCH  16  23
BRANCH  20  24
ATOM     24  O   UNL     1       0.583  10.671  21.675  0.00  0.00    +0.000 OA
ATOM     25  C   UNL     1      -0.081   9.963  22.716  0.00  0.00    +0.000 C 
ENDBRANCH  20  24
ENDBRANCH  15  19
ENDBRANCH   1  15
TORSDOF 5
ENDMDL
MODEL 6
REMARK VINA RESULT:      -7.1      1.120      1.339
REMARK  Name = 
REMARK  8 active torsions:
REMARK  status: ('A' for Active; 'I' for Inactive)
REMARK    1  A    between atoms: C_1  and  O_2
REMARK    2  A    between atoms: O_2  and  C_3
REMARK    3  A    between atoms: C_6  and  C_7
REMARK    4  A    between atoms: C_7  and  N_8
REMARK    5  A    between atoms: N_8  and  C_9
REMARK    6  A    between atoms: C_10  and  C_12
REMARK    7  A    between atoms: C_22  and  O_23
REMARK    8  A    between atoms: O_23  and  C_24
REMARK                            x       y       z     vdW  Elec       q    Type
REMARK                         _______ _______ _______ _____ _____    ______ ____
ROOT
ATOM      1  N   UNL     1       1.920   8.022  19.817  0.00  0.00    +0.000 N 
ATOM      2  C   UNL     1       1.188   7.686  21.029  0.00  0.00    +0.000 C 
ATOM      3  C   UNL     1       2.399   7.089  18.879  0.00  0.00    +0.000 C 
ATOM      4  O   UNL     1       2.876   7.479  17.799  0.00  0.00    +0.000 OA
ENDROOT
BRANCH   3   5
ATOM      5  C   UNL     1       2.295   5.537  19.137  0.00  0.00    +0.000 C 
ATOM      6  C   UNL     1       3.635   5.000  19.702  0.00  0.00    +0.000 C 
ATOM      7  C   UNL     1       3.581   3.488  19.956  0.00  0.00    +0.000 C 
ATOM      8  C   UNL     1       2.524   3.191  21.026  0.00  0.00    +0.000 C 
ATOM      9  C   UNL     1       1.154   3.698  20.554  0.00  0.00    +0.000 C 
ATOM     10  C   UNL     1       0.768   2.933  19.277  0.00  0.00    +0.000 C 
ATOM     11  C   UNL     1       1.801   3.212  18.188  0.00  0.00    +0.000 C 
ATOM     12  C   UNL     1       3.205   2.775  18.648  0.00  0.00    +0.000 C 
ATOM     13  C   UNL     1       1.816   4.722  17.906  0.00  0.00    +0.000 C 
ATOM     14  C   UNL     1       1.229   5.219  20.254  0.00  0.00    +0.000 C 
ENDBRANCH   3   5
BRANCH   1  15
ATOM     15  C   UNL     1       1.822   9.441  19.380  0.00  0.00    +0.000 C 
BRANCH  15  19
ATOM     16  C   UNL     1      -2.142  10.980  18.431  0.00  0.00    +0.000 A 
ATOM     17  C   UNL     1      -1.485  10.120  17.556  0.00  0.00    +0.000 A 
ATOM     18  C   UNL     1      -0.218   9.623  17.872  0.00  0.00    +0.000 A 
ATOM     19  C   UNL     1       0.420   9.968  19.082  0.00  0.00    +0.000 A 
ATOM     20  C   UNL     1      -0.264  10.808  19.975  0.00  0.00    +0.000 A 
ATOM     21  C   UNL     1      -1.534  11.315  19.641  0.00  0.00    +0.000 A 
BRANCH  16  23
ATOM     22  C   UNL     1      -3.706  11.122  16.651  0.00  0.00    +0.000 C 
ATOM     23  O   UNL     1      -3.351  11.447  17.990  0.00  0.00    +0.000 OA
ENDBRANCH  16  23
BRANCH  20  24
ATOM     24  O   UNL     1       0.361  11.080  21.165  0.00  0.00    +0.000 OA
ATOM     25  C   UNL     1      -0.452  10.974  22.329  0.00  0.00    +0.000 C 
ENDBRANCH  20  24
ENDBRANCH  15  19
ENDBRANCH   1  15
TORSDOF 5
ENDMDL
MODEL 7
REMARK VINA RESULT:      -7.1      1.163      2.020
REMARK  Name = 
REMARK  8 active torsions:
REMARK  status: ('A' for Active; 'I' for Inactive)
REMARK    1  A    between atoms: C_1  and  O_2
REMARK    2  A    between atoms: O_2  and  C_3
REMARK    3  A    between atoms: C_6  and  C_7
REMARK    4  A    between atoms: C_7  and  N_8
REMARK    5  A    between atoms: N_8  and  C_9
REMARK    6  A    between atoms: C_10  and  C_12
REMARK    7  A    between atoms: C_22  and  O_23
REMARK    8  A    between atoms: O_23  and  C_24
REMARK                            x       y       z     vdW  Elec       q    Type
REMARK                         _______ _______ _______ _____ _____    ______ ____
ROOT
ATOM      1  N   UNL     1       1.936   8.055  19.786  0.00  0.00    +0.000 N 
ATOM      2  C   UNL     1       1.212   7.762  21.014  0.00  0.00    +0.000 C 
ATOM      3  C   UNL     1       2.423   7.088  18.887  0.00  0.00    +0.000 C 
ATOM      4  O   UNL     1       2.891   7.437  17.789  0.00  0.00    +0.000 OA
ENDROOT
BRANCH   3   5
ATOM      5  C   UNL     1       2.339   5.547  19.212  0.00  0.00    +0.000 C 
ATOM      6  C   UNL     1       1.236   5.287  20.270  0.00  0.00    +0.000 C 
ATOM      7  C   UNL     1       1.130   3.798  20.626  0.00  0.00    +0.000 C 
ATOM      8  C   UNL     1       0.714   3.007  19.381  0.00  0.00    +0.000 C 
ATOM      9  C   UNL     1       1.752   3.212  18.268  0.00  0.00    +0.000 C 
ATOM     10  C   UNL     1       3.101   2.660  18.756  0.00  0.00    +0.000 C 
ATOM     11  C   UNL     1       3.546   3.430  19.996  0.00  0.00    +0.000 C 
ATOM     12  C   UNL     1       2.499   3.303  21.118  0.00  0.00    +0.000 C 
ATOM     13  C   UNL     1       3.696   4.912  19.619  0.00  0.00    +0.000 C 
ATOM     14  C   UNL     1       1.888   4.724  17.946  0.00  0.00    +0.000 C 
ENDBRANCH   3   5
BRANCH   1  15
ATOM     15  C   UNL     1       1.818   9.451  19.289  0.00  0.00    +0.000 C 
BRANCH  15  19
ATOM     16  C   UNL     1      -2.177  10.931  18.378  0.00  0.00    +0.000 A 
ATOM     17  C   UNL     1      -1.527  10.061  17.510  0.00  0.00    +0.000 A 
ATOM     18  C   UNL     1      -0.249   9.583  17.813  0.00  0.00    +0.000 A 
ATOM     19  C   UNL     1       0.406   9.958  19.005  0.00  0.00    +0.000 A 
ATOM     20  C   UNL     1      -0.272  10.810  19.893  0.00  0.00    +0.000 A 
ATOM     21  C   UNL     1      -1.553  11.296  19.570  0.00  0.00    +0.000 A 
BRANCH  16  23
ATOM     22  C   UNL     1      -3.849  10.883  16.693  0.00  0.00    +0.000 C 
ATOM     23  O   UNL     1      -3.398  11.378  17.949  0.00  0.00    +0.000 OA
ENDBRANCH  16  23
BRANCH  20  24
ATOM     24  O   UNL     1       0.371  11.112  21.065  0.00  0.00    +0.000 OA
ATOM     25  C   UNL     1      -0.448  11.141  22.230  0.00  0.00    +0.000 C 
ENDBRANCH  20  24
ENDBRANCH  15  19
ENDBRANCH   1  15
TORSDOF 5
ENDMDL
MODEL 8
REMARK VINA RESULT:      -6.9      1.450      1.805
REMARK  Name = 
REMARK  8 active torsions:
REMARK  status: ('A' for Active; 'I' for Inactive)
REMARK    1  A    between atoms: C_1  and  O_2
REMARK    2  A    between atoms: O_2  and  C_3
REMARK    3  A    between atoms: C_6  and  C_7
REMARK    4  A    between atoms: C_7  and  N_8
REMARK    5  A    between atoms: N_8  and  C_9
REMARK    6  A    between atoms: C_10  and  C_12
REMARK    7  A    between atoms: C_22  and  O_23
REMARK    8  A    between atoms: O_23  and  C_24
REMARK                            x       y       z     vdW  Elec       q    Type
REMARK                         _______ _______ _______ _____ _____    ______ ____
ROOT
ATOM      1  N   UNL     1       1.924   8.608  19.096  0.00  0.00    +0.000 N 
ATOM      2  C   UNL     1       1.319   8.114  20.324  0.00  0.00    +0.000 C 
ATOM      3  C   UNL     1       2.500   7.799  18.099  0.00  0.00    +0.000 C 
ATOM      4  O   UNL     1       2.850   8.299  17.016  0.00  0.00    +0.000 OA
ENDROOT
BRANCH   3   5
ATOM      5  C   UNL     1       2.664   6.243  18.297  0.00  0.00    +0.000 C 
ATOM      6  C   UNL     1       3.934   5.744  17.561  0.00  0.00    +0.000 C 
ATOM      7  C   UNL     1       4.124   4.230  17.717  0.00  0.00    +0.000 C 
ATOM      8  C   UNL     1       4.336   3.895  19.198  0.00  0.00    +0.000 C 
ATOM      9  C   UNL     1       3.121   4.362  20.012  0.00  0.00    +0.000 C 
ATOM     10  C   UNL     1       1.884   3.593  19.521  0.00  0.00    +0.000 C 
ATOM     11  C   UNL     1       1.643   3.909  18.047  0.00  0.00    +0.000 C 
ATOM     12  C   UNL     1       2.867   3.513  17.201  0.00  0.00    +0.000 C 
ATOM     13  C   UNL     1       1.407   5.420  17.906  0.00  0.00    +0.000 C 
ATOM     14  C   UNL     1       2.907   5.887  19.813  0.00  0.00    +0.000 C 
ENDBRANCH   3   5
BRANCH   1  15
ATOM     15  C   UNL     1       1.573  10.004  18.724  0.00  0.00    +0.000 C 
BRANCH  15  19
ATOM     16  C   UNL     1      -2.658  10.948  18.293  0.00  0.00    +0.000 A 
ATOM     17  C   UNL     1      -2.045  10.030  17.447  0.00  0.00    +0.000 A 
ATOM     18  C   UNL     1      -0.690   9.725  17.598  0.00  0.00    +0.000 A 
ATOM     19  C   UNL     1       0.085  10.327  18.611  0.00  0.00    +0.000 A 
ATOM     20  C   UNL     1      -0.550  11.227  19.482  0.00  0.00    +0.000 A 
ATOM     21  C   UNL     1      -1.912  11.538  19.313  0.00  0.00    +0.000 A 
BRANCH  16  23
ATOM     22  C   UNL     1      -4.299  11.434  16.647  0.00  0.00    +0.000 C 
ATOM     23  O   UNL     1      -3.973  11.210  18.015  0.00  0.00    +0.000 OA
ENDBRANCH  16  23
BRANCH  20  24
ATOM     24  O   UNL     1       0.219  11.753  20.488  0.00  0.00    +0.000 OA
ATOM     25  C   UNL     1      -0.433  11.918  21.743  0.00  0.00    +0.000 C 
ENDBRANCH  20  24
ENDBRANCH  15  19
ENDBRANCH   1  15
TORSDOF 5
ENDMDL
MODEL 9
REMARK VINA RESULT:      -6.8      1.571      2.944
REMARK  Name = 
REMARK  8 active torsions:
REMARK  status: ('A' for Active; 'I' for Inactive)
REMARK    1  A    between atoms: C_1  and  O_2
REMARK    2  A    between atoms: O_2  and  C_3
REMARK    3  A    between atoms: C_6  and  C_7
REMARK    4  A    between atoms: C_7  and  N_8
REMARK    5  A    between atoms: N_8  and  C_9
REMARK    6  A    between atoms: C_10  and  C_12
REMARK    7  A    between atoms: C_22  and  O_23
REMARK    8  A    between atoms: O_23  and  C_24
REMARK                            x       y       z     vdW  Elec       q    Type
REMARK                         _______ _______ _______ _____ _____    ______ ____
ROOT
ATOM      1  N   UNL     1       1.903   7.805  19.741  0.00  0.00    +0.000 N 
ATOM      2  C   UNL     1       1.112   7.533  20.931  0.00  0.00    +0.000 C 
ATOM      3  C   UNL     1       2.425   6.824  18.877  0.00  0.00    +0.000 C 
ATOM      4  O   UNL     1       2.954   7.156  17.803  0.00  0.00    +0.000 OA
ENDROOT
BRANCH   3   5
ATOM      5  C   UNL     1       2.302   5.287  19.211  0.00  0.00    +0.000 C 
ATOM      6  C   UNL     1       1.831   4.506  17.957  0.00  0.00    +0.000 C 
ATOM      7  C   UNL     1       1.686   3.006  18.243  0.00  0.00    +0.000 C 
ATOM      8  C   UNL     1       3.055   2.424  18.610  0.00  0.00    +0.000 C 
ATOM      9  C   UNL     1       3.608   3.147  19.847  0.00  0.00    +0.000 C 
ATOM     10  C   UNL     1       2.651   2.896  21.023  0.00  0.00    +0.000 C 
ATOM     11  C   UNL     1       1.276   3.467  20.690  0.00  0.00    +0.000 C 
ATOM     12  C   UNL     1       0.712   2.813  19.415  0.00  0.00    +0.000 C 
ATOM     13  C   UNL     1       1.422   4.978  20.451  0.00  0.00    +0.000 C 
ATOM     14  C   UNL     1       3.709   4.671  19.567  0.00  0.00    +0.000 C 
ENDBRANCH   3   5
BRANCH   1  15
ATOM     15  C   UNL     1       1.831   9.198  19.226  0.00  0.00    +0.000 C 
BRANCH  15  19
ATOM     16  C   UNL     1      -1.316  11.662  20.960  0.00  0.00    +0.000 A 
ATOM     17  C   UNL     1      -0.132  11.429  21.653  0.00  0.00    +0.000 A 
ATOM     18  C   UNL     1       0.877  10.646  21.086  0.00  0.00    +0.000 A 
ATOM     19  C   UNL     1       0.728  10.083  19.801  0.00  0.00    +0.000 A 
ATOM     20  C   UNL     1      -0.456  10.351  19.094  0.00  0.00    +0.000 A 
ATOM     21  C   UNL     1      -1.471  11.129  19.681  0.00  0.00    +0.000 A 
BRANCH  16  23
ATOM     22  C   UNL     1      -2.110  12.454  23.053  0.00  0.00    +0.000 C 
ATOM     23  O   UNL     1      -2.253  12.394  21.638  0.00  0.00    +0.000 OA
ENDBRANCH  16  23
BRANCH  20  24
ATOM     24  O   UNL     1      -0.546   9.833  17.828  0.00  0.00    +0.000 OA
ATOM     25  C   UNL     1      -1.799  10.007  17.176  0.00  0.00    +0.000 C 
ENDBRANCH  20  24
ENDBRANCH  15  19
ENDBRANCH   1  15
TORSDOF 5
ENDMDL
