MODEL 1
REMARK VINA RESULT:      -8.1      0.000      0.000
REMARK  Name = 
REMARK  4 active torsions:
REMARK  status: ('A' for Active; 'I' for Inactive)
REMARK    1  A    between atoms: C_1  and  C_2
REMARK    2  A    between atoms: C_6  and  C_7
REMARK    3  A    between atoms: N_9  and  C_10
REMARK    4  A    between atoms: C_13  and  C_14
REMARK                            x       y       z     vdW  Elec       q    Type
REMARK                         _______ _______ _______ _____ _____    ______ ____
ROOT
ATOM      1  C   UNL     1       7.714   7.123  18.474  0.00  0.00    +0.000 A 
ATOM      2  C   UNL     1       7.500   6.023  19.310  0.00  0.00    +0.000 A 
ATOM      3  C   UNL     1       6.557   5.025  19.019  0.00  0.00    +0.000 A 
ATOM      4  C   UNL     1       5.742   5.074  17.882  0.00  0.00    +0.000 A 
ATOM      5  C   UNL     1       5.937   6.171  17.029  0.00  0.00    +0.000 A 
ATOM      6  C   UNL     1       6.905   7.185  17.327  0.00  0.00    +0.000 A 
ENDROOT
BRANCH   4   7
ATOM      7  C   UNL     1       4.732   3.934  17.713  0.00  0.00    +0.000 C 
ATOM      8  C   UNL     1       4.586   2.887  18.837  0.00  0.00    +0.000 C 
ATOM      9  C   UNL     1       3.584   1.792  18.420  0.00  0.00    +0.000 C 
ATOM     10  C   UNL     1       2.246   2.382  17.969  0.00  0.00    +0.000 C 
ATOM     11  N   UNL     1       2.424   3.365  16.901  0.00  0.00    +0.000 NA
ATOM     12  C   UNL     1       3.324   4.451  17.330  0.00  0.00    +0.000 C 
ATOM     13  H   UNL     1       2.832   2.904  16.084  0.00  0.00    +0.000 HD
ENDBRANCH   4   7
BRANCH   1  16
ATOM     14  C   UNL     1       8.559   9.485  18.376  0.00  0.00    +0.000 C 
ATOM     15  O   UNL     1       7.520   9.921  17.856  0.00  0.00    +0.000 OA
ATOM     16  N   UNL     1       8.694   8.149  18.776  0.00  0.00    +0.000 N 
ATOM     17  H   UNL     1       9.460   7.888  19.384  0.00  0.00    +0.000 HD
BRANCH  14  23
ATOM     18  C   UNL     1      12.097  13.057  17.082  0.00  0.00    +0.000 C 
ATOM     19  C   UNL     1      11.305  12.238  18.066  0.00  0.00    +0.000 A 
ATOM     20  C   UNL     1      11.530  12.465  19.433  0.00  0.00    +0.000 A 
ATOM     21  C   UNL     1      10.834  11.744  20.386  0.00  0.00    +0.000 A 
ATOM     22  C   UNL     1       9.906  10.789  19.972  0.00  0.00    +0.000 A 
ATOM     23  C   UNL     1       9.639  10.522  18.607  0.00  0.00    +0.000 A 
ATOM     24  C   UNL     1      10.353  11.263  17.651  0.00  0.00    +0.000 A 
ENDBRANCH  14  23
ENDBRANCH   1  16
TORSDOF 3
ENDMDL
MODEL 2
REMARK VINA RESULT:      -7.9      7.599      9.033
REMARK  Name = 
REMARK  4 active torsions:
REMARK  status: ('A' for Active; 'I' for Inactive)
REMARK    1  A    between atoms: C_1  and  C_2
REMARK    2  A    between atoms: C_6  and  C_7
REMARK    3  A    between atoms: N_9  and  C_10
REMARK    4  A    between atoms: C_13  and  C_14
REMARK                            x       y       z     vdW  Elec       q    Type
REMARK                         _______ _______ _______ _____ _____    ______ ____
ROOT
ATOM      1  C   UNL     1       0.788   9.280  19.895  0.00  0.00    +0.000 A 
ATOM      2  C   UNL     1       1.342   8.166  20.533  0.00  0.00    +0.000 A 
ATOM      3  C   UNL     1       2.226   7.288  19.886  0.00  0.00    +0.000 A 
ATOM      4  C   UNL     1       2.594   7.449  18.545  0.00  0.00    +0.000 A 
ATOM      5  C   UNL     1       2.048   8.559  17.884  0.00  0.00    +0.000 A 
ATOM      6  C   UNL     1       1.150   9.457  18.549  0.00  0.00    +0.000 A 
ENDROOT
BRANCH   4   7
ATOM      7  C   UNL     1       3.537   6.391  17.962  0.00  0.00    +0.000 C 
ATOM      8  C   UNL     1       4.601   6.819  16.930  0.00  0.00    +0.000 C 
ATOM      9  C   UNL     1       5.374   5.587  16.419  0.00  0.00    +0.000 C 
ATOM     10  C   UNL     1       5.949   4.754  17.565  0.00  0.00    +0.000 C 
ATOM     11  N   UNL     1       4.910   4.363  18.519  0.00  0.00    +0.000 NA
ATOM     12  C   UNL     1       4.224   5.548  19.064  0.00  0.00    +0.000 C 
ATOM     13  H   UNL     1       4.223   3.774  18.043  0.00  0.00    +0.000 HD
ENDBRANCH   4   7
BRANCH   1  16
ATOM     14  C   UNL     1       0.310  11.310  21.292  0.00  0.00    +0.000 C 
ATOM     15  O   UNL     1       1.491  11.690  21.291  0.00  0.00    +0.000 OA
ATOM     16  N   UNL     1      -0.119  10.189  20.569  0.00  0.00    +0.000 N 
ATOM     17  H   UNL     1      -1.110  10.044  20.422  0.00  0.00    +0.000 HD
BRANCH  14  23
ATOM     18  C   UNL     1      -3.853  12.454  24.178  0.00  0.00    +0.000 C 
ATOM     19  C   UNL     1      -2.571  12.794  23.465  0.00  0.00    +0.000 A 
ATOM     20  C   UNL     1      -2.112  14.118  23.546  0.00  0.00    +0.000 A 
ATOM     21  C   UNL     1      -0.941  14.493  22.912  0.00  0.00    +0.000 A 
ATOM     22  C   UNL     1      -0.224  13.540  22.191  0.00  0.00    +0.000 A 
ATOM     23  C   UNL     1      -0.641  12.191  22.077  0.00  0.00    +0.000 A 
ATOM     24  C   UNL     1      -1.831  11.826  22.728  0.00  0.00    +0.000 A 
ENDBRANCH  14  23
ENDBRANCH   1  16
TORSDOF 3
ENDMDL
MODEL 3
REMARK VINA RESULT:      -7.7      6.856      8.759
REMARK  Name = 
REMARK  4 active torsions:
REMARK  status: ('A' for Active; 'I' for Inactive)
REMARK    1  A    between atoms: C_1  and  C_2
REMARK    2  A    between atoms: C_6  and  C_7
REMARK    3  A    between atoms: N_9  and  C_10
REMARK    4  A    between atoms: C_13  and  C_14
REMARK                            x       y       z     vdW  Elec       q    Type
REMARK                         _______ _______ _______ _____ _____    ______ ____
ROOT
ATOM      1  C   UNL     1       1.473   8.618  19.243  0.00  0.00    +0.000 A 
ATOM      2  C   UNL     1       2.173   8.781  18.045  0.00  0.00    +0.000 A 
ATOM      3  C   UNL     1       3.152   7.872  17.613  0.00  0.00    +0.000 A 
ATOM      4  C   UNL     1       3.517   6.750  18.367  0.00  0.00    +0.000 A 
ATOM      5  C   UNL     1       2.828   6.568  19.575  0.00  0.00    +0.000 A 
ATOM      6  C   UNL     1       1.826   7.495  20.010  0.00  0.00    +0.000 A 
ENDROOT
BRANCH   4   7
ATOM      7  C   UNL     1       4.628   5.867  17.787  0.00  0.00    +0.000 C 
ATOM      8  C   UNL     1       5.586   6.460  16.733  0.00  0.00    +0.000 C 
ATOM      9  C   UNL     1       6.562   5.377  16.230  0.00  0.00    +0.000 C 
ATOM     10  C   UNL     1       7.289   4.681  17.382  0.00  0.00    +0.000 C 
ATOM     11  N   UNL     1       6.349   4.129  18.357  0.00  0.00    +0.000 NA
ATOM     12  C   UNL     1       5.467   5.182  18.893  0.00  0.00    +0.000 C 
ATOM     13  H   UNL     1       5.772   3.418  17.901  0.00  0.00    +0.000 HD
ENDBRANCH   4   7
BRANCH   1  16
ATOM     14  C   UNL     1       0.467  10.167  20.944  0.00  0.00    +0.000 C 
ATOM     15  O   UNL     1       1.424  10.061  21.727  0.00  0.00    +0.000 OA
ATOM     16  N   UNL     1       0.457   9.556  19.683  0.00  0.00    +0.000 N 
ATOM     17  H   UNL     1      -0.232   9.841  18.999  0.00  0.00    +0.000 HD
BRANCH  14  23
ATOM     18  C   UNL     1      -3.322  13.697  20.564  0.00  0.00    +0.000 C 
ATOM     19  C   UNL     1      -2.475  12.703  21.313  0.00  0.00    +0.000 A 
ATOM     20  C   UNL     1      -2.758  12.500  22.673  0.00  0.00    +0.000 A 
ATOM     21  C   UNL     1      -2.015  11.599  23.415  0.00  0.00    +0.000 A 
ATOM     22  C   UNL     1      -0.982  10.898  22.797  0.00  0.00    +0.000 A 
ATOM     23  C   UNL     1      -0.655  11.063  21.428  0.00  0.00    +0.000 A 
ATOM     24  C   UNL     1      -1.419  11.980  20.687  0.00  0.00    +0.000 A 
ENDBRANCH  14  23
ENDBRANCH   1  16
TORSDOF 3
ENDMDL
MODEL 4
REMARK VINA RESULT:      -7.7      7.633      9.013
REMARK  Name = 
REMARK  4 active torsions:
REMARK  status: ('A' for Active; 'I' for Inactive)
REMARK    1  A    between atoms: C_1  and  C_2
REMARK    2  A    between atoms: C_6  and  C_7
REMARK    3  A    between atoms: N_9  and  C_10
REMARK    4  A    between atoms: C_13  and  C_14
REMARK                            x       y       z     vdW  Elec       q    Type
REMARK                         _______ _______ _______ _____ _____    ______ ____
ROOT
ATOM      1  C   UNL     1       0.771   9.229  19.978  0.00  0.00    +0.000 A 
ATOM      2  C   UNL     1       1.300   8.117  20.640  0.00  0.00    +0.000 A 
ATOM      3  C   UNL     1       2.192   7.225  20.024  0.00  0.00    +0.000 A 
ATOM      4  C   UNL     1       2.594   7.370  18.691  0.00  0.00    +0.000 A 
ATOM      5  C   UNL     1       2.074   8.479  18.006  0.00  0.00    +0.000 A 
ATOM      6  C   UNL     1       1.168   9.390  18.640  0.00  0.00    +0.000 A 
ENDROOT
BRANCH   4   7
ATOM      7  C   UNL     1       3.542   6.299  18.141  0.00  0.00    +0.000 C 
ATOM      8  C   UNL     1       2.963   4.940  17.696  0.00  0.00    +0.000 C 
ATOM      9  C   UNL     1       4.100   3.992  17.262  0.00  0.00    +0.000 C 
ATOM     10  C   UNL     1       5.010   4.632  16.212  0.00  0.00    +0.000 C 
ATOM     11  N   UNL     1       5.543   5.914  16.672  0.00  0.00    +0.000 NA
ATOM     12  C   UNL     1       4.452   6.845  17.014  0.00  0.00    +0.000 C 
ATOM     13  H   UNL     1       6.116   5.761  17.504  0.00  0.00    +0.000 HD
ENDBRANCH   4   7
BRANCH   1  16
ATOM     14  C   UNL     1       0.276  11.262  21.366  0.00  0.00    +0.000 C 
ATOM     15  O   UNL     1       1.463  11.619  21.412  0.00  0.00    +0.000 OA
ATOM     16  N   UNL     1      -0.145  10.152  20.621  0.00  0.00    +0.000 N 
ATOM     17  H   UNL     1      -1.132  10.025  20.434  0.00  0.00    +0.000 HD
BRANCH  14  23
ATOM     18  C   UNL     1      -3.911  12.450  24.196  0.00  0.00    +0.000 C 
ATOM     19  C   UNL     1      -2.631  12.783  23.477  0.00  0.00    +0.000 A 
ATOM     20  C   UNL     1      -2.188  14.113  23.516  0.00  0.00    +0.000 A 
ATOM     21  C   UNL     1      -1.019  14.481  22.875  0.00  0.00    +0.000 A 
ATOM     22  C   UNL     1      -0.288  13.514  22.188  0.00  0.00    +0.000 A 
ATOM     23  C   UNL     1      -0.688  12.157  22.117  0.00  0.00    +0.000 A 
ATOM     24  C   UNL     1      -1.877  11.799  22.775  0.00  0.00    +0.000 A 
ENDBRANCH  14  23
ENDBRANCH   1  16
TORSDOF 3
ENDMDL
MODEL 5
REMARK VINA RESULT:      -7.7      1.540      2.114
REMARK  Name = 
REMARK  4 active torsions:
REMARK  status: ('A' for Active; 'I' for Inactive)
REMARK    1  A    between atoms: C_1  and  C_2
REMARK    2  A    between atoms: C_6  and  C_7
REMARK    3  A    between atoms: N_9  and  C_10
REMARK    4  A    between atoms: C_13  and  C_14
REMARK                            x       y       z     vdW  Elec       q    Type
REMARK                         _______ _______ _______ _____ _____    ______ ____
ROOT
ATOM      1  C   UNL     1       7.601   8.040  17.744  0.00  0.00    +0.000 A 
ATOM      2  C   UNL     1       6.349   7.708  17.218  0.00  0.00    +0.000 A 
ATOM      3  C   UNL     1       5.703   6.497  17.513  0.00  0.00    +0.000 A 
ATOM      4  C   UNL     1       6.281   5.521  18.333  0.00  0.00    +0.000 A 
ATOM      5  C   UNL     1       7.539   5.832  18.871  0.00  0.00    +0.000 A 
ATOM      6  C   UNL     1       8.192   7.071  18.572  0.00  0.00    +0.000 A 
ENDROOT
BRANCH   4   7
ATOM      7  C   UNL     1       5.476   4.233  18.535  0.00  0.00    +0.000 C 
ATOM      8  C   UNL     1       4.412   4.178  19.652  0.00  0.00    +0.000 C 
ATOM      9  C   UNL     1       3.791   2.769  19.729  0.00  0.00    +0.000 C 
ATOM     10  C   UNL     1       3.265   2.299  18.372  0.00  0.00    +0.000 C 
ATOM     11  N   UNL     1       4.302   2.360  17.342  0.00  0.00    +0.000 NA
ATOM     12  C   UNL     1       4.840   3.727  17.218  0.00  0.00    +0.000 C 
ATOM     13  H   UNL     1       5.065   1.728  17.596  0.00  0.00    +0.000 HD
ENDBRANCH   4   7
BRANCH   1  16
ATOM     14  C   UNL     1       8.857  10.106  18.418  0.00  0.00    +0.000 C 
ATOM     15  O   UNL     1       8.989   9.740  19.597  0.00  0.00    +0.000 OA
ATOM     16  N   UNL     1       8.262   9.296  17.443  0.00  0.00    +0.000 N 
ATOM     17  H   UNL     1       8.369   9.536  16.465  0.00  0.00    +0.000 HD
BRANCH  14  23
ATOM     18  C   UNL     1       8.962  15.276  17.955  0.00  0.00    +0.000 C 
ATOM     19  C   UNL     1       9.577  13.904  17.889  0.00  0.00    +0.000 A 
ATOM     20  C   UNL     1      10.930  13.813  17.529  0.00  0.00    +0.000 A 
ATOM     21  C   UNL     1      11.552  12.580  17.451  0.00  0.00    +0.000 A 
ATOM     22  C   UNL     1      10.818  11.429  17.733  0.00  0.00    +0.000 A 
ATOM     23  C   UNL     1       9.451  11.464  18.104  0.00  0.00    +0.000 A 
ATOM     24  C   UNL     1       8.834  12.724  18.180  0.00  0.00    +0.000 A 
ENDBRANCH  14  23
ENDBRANCH   1  16
TORSDOF 3
ENDMDL
MODEL 6
REMARK VINA RESULT:      -7.7      6.105      8.372
REMARK  Name = 
REMARK  4 active torsions:
REMARK  status: ('A' for Active; 'I' for Inactive)
REMARK    1  A    between atoms: C_1  and  C_2
REMARK    2  A    between atoms: C_6  and  C_7
REMARK    3  A    between atoms: N_9  and  C_10
REMARK    4  A    between atoms: C_13  and  C_14
REMARK                            x       y       z     vdW  Elec       q    Type
REMARK                         _______ _______ _______ _____ _____    ______ ____
ROOT
ATOM      1  C   UNL     1       2.455   8.207  18.372  0.00  0.00    +0.000 A 
ATOM      2  C   UNL     1       2.130   7.849  19.683  0.00  0.00    +0.000 A 
ATOM      3  C   UNL     1       1.162   8.534  20.435  0.00  0.00    +0.000 A 
ATOM      4  C   UNL     1       0.473   9.645  19.934  0.00  0.00    +0.000 A 
ATOM      5  C   UNL     1       0.785  10.024  18.620  0.00  0.00    +0.000 A 
ATOM      6  C   UNL     1       1.769   9.319  17.854  0.00  0.00    +0.000 A 
ENDROOT
BRANCH   4   7
ATOM      7  C   UNL     1      -0.527  10.315  20.882  0.00  0.00    +0.000 C 
ATOM      8  C   UNL     1      -0.210  10.372  22.391  0.00  0.00    +0.000 C 
ATOM      9  C   UNL     1      -1.385  11.009  23.160  0.00  0.00    +0.000 C 
ATOM     10  C   UNL     1      -1.785  12.365  22.576  0.00  0.00    +0.000 C 
ATOM     11  N   UNL     1      -2.082  12.269  21.147  0.00  0.00    +0.000 NA
ATOM     12  C   UNL     1      -0.928  11.732  20.404  0.00  0.00    +0.000 C 
ATOM     13  H   UNL     1      -2.881  11.644  21.012  0.00  0.00    +0.000 HD
ENDBRANCH   4   7
BRANCH   1  16
ATOM     14  C   UNL     1       3.793   6.154  17.827  0.00  0.00    +0.000 C 
ATOM     15  O   UNL     1       3.168   5.436  18.624  0.00  0.00    +0.000 OA
ATOM     16  N   UNL     1       3.451   7.493  17.595  0.00  0.00    +0.000 N 
ATOM     17  H   UNL     1       3.838   7.972  16.793  0.00  0.00    +0.000 HD
BRANCH  14  23
ATOM     18  C   UNL     1       6.145   3.912  13.778  0.00  0.00    +0.000 C 
ATOM     19  C   UNL     1       6.086   4.407  15.198  0.00  0.00    +0.000 A 
ATOM     20  C   UNL     1       7.237   4.261  15.987  0.00  0.00    +0.000 A 
ATOM     21  C   UNL     1       7.244   4.695  17.301  0.00  0.00    +0.000 A 
ATOM     22  C   UNL     1       6.095   5.279  17.831  0.00  0.00    +0.000 A 
ATOM     23  C   UNL     1       4.907   5.452  17.078  0.00  0.00    +0.000 A 
ATOM     24  C   UNL     1       4.915   5.007  15.746  0.00  0.00    +0.000 A 
ENDBRANCH  14  23
ENDBRANCH   1  16
TORSDOF 3
ENDMDL
MODEL 7
REMARK VINA RESULT:      -7.7      7.608      8.885
REMARK  Name = 
REMARK  4 active torsions:
REMARK  status: ('A' for Active; 'I' for Inactive)
REMARK    1  A    between atoms: C_1  and  C_2
REMARK    2  A    between atoms: C_6  and  C_7
REMARK    3  A    between atoms: N_9  and  C_10
REMARK    4  A    between atoms: C_13  and  C_14
REMARK                            x       y       z     vdW  Elec       q    Type
REMARK                         _______ _______ _______ _____ _____    ______ ____
ROOT
ATOM      1  C   UNL     1       0.806   9.330  19.907  0.00  0.00    +0.000 A 
ATOM      2  C   UNL     1       1.360   8.209  20.530  0.00  0.00    +0.000 A 
ATOM      3  C   UNL     1       2.225   7.326  19.865  0.00  0.00    +0.000 A 
ATOM      4  C   UNL     1       2.574   7.491  18.520  0.00  0.00    +0.000 A 
ATOM      5  C   UNL     1       2.028   8.610  17.873  0.00  0.00    +0.000 A 
ATOM      6  C   UNL     1       1.149   9.511  18.557  0.00  0.00    +0.000 A 
ENDROOT
BRANCH   4   7
ATOM      7  C   UNL     1       3.498   6.428  17.916  0.00  0.00    +0.000 C 
ATOM      8  C   UNL     1       4.602   6.864  16.931  0.00  0.00    +0.000 C 
ATOM      9  C   UNL     1       5.350   5.630  16.387  0.00  0.00    +0.000 C 
ATOM     10  C   UNL     1       5.867   4.731  17.512  0.00  0.00    +0.000 C 
ATOM     11  N   UNL     1       4.792   4.335  18.421  0.00  0.00    +0.000 NA
ATOM     12  C   UNL     1       4.129   5.518  18.999  0.00  0.00    +0.000 C 
ATOM     13  H   UNL     1       4.099   3.789  17.904  0.00  0.00    +0.000 HD
ENDBRANCH   4   7
BRANCH   1  16
ATOM     14  C   UNL     1       0.367  11.356  21.325  0.00  0.00    +0.000 C 
ATOM     15  O   UNL     1       1.553  11.723  21.310  0.00  0.00    +0.000 OA
ATOM     16  N   UNL     1      -0.083  10.244  20.600  0.00  0.00    +0.000 N 
ATOM     17  H   UNL     1      -1.077  10.110  20.465  0.00  0.00    +0.000 HD
BRANCH  14  23
ATOM     18  C   UNL     1      -1.426  15.776  23.374  0.00  0.00    +0.000 C 
ATOM     19  C   UNL     1      -1.479  14.296  23.104  0.00  0.00    +0.000 A 
ATOM     20  C   UNL     1      -2.570  13.579  23.617  0.00  0.00    +0.000 A 
ATOM     21  C   UNL     1      -2.676  12.217  23.403  0.00  0.00    +0.000 A 
ATOM     22  C   UNL     1      -1.684  11.565  22.671  0.00  0.00    +0.000 A 
ATOM     23  C   UNL     1      -0.563  12.240  22.129  0.00  0.00    +0.000 A 
ATOM     24  C   UNL     1      -0.471  13.624  22.355  0.00  0.00    +0.000 A 
ENDBRANCH  14  23
ENDBRANCH   1  16
TORSDOF 3
ENDMDL
MODEL 8
REMARK VINA RESULT:      -7.6      5.802      7.991
REMARK  Name = 
REMARK  4 active torsions:
REMARK  status: ('A' for Active; 'I' for Inactive)
REMARK    1  A    between atoms: C_1  and  C_2
REMARK    2  A    between atoms: C_6  and  C_7
REMARK    3  A    between atoms: N_9  and  C_10
REMARK    4  A    between atoms: C_13  and  C_14
REMARK                            x       y       z     vdW  Elec       q    Type
REMARK                         _______ _______ _______ _____ _____    ______ ____
ROOT
ATOM      1  C   UNL     1       2.595   6.987  19.291  0.00  0.00    +0.000 A 
ATOM      2  C   UNL     1       3.148   7.596  18.161  0.00  0.00    +0.000 A 
ATOM      3  C   UNL     1       3.997   6.914  17.276  0.00  0.00    +0.000 A 
ATOM      4  C   UNL     1       4.374   5.582  17.477  0.00  0.00    +0.000 A 
ATOM      5  C   UNL     1       3.833   4.950  18.606  0.00  0.00    +0.000 A 
ATOM      6  C   UNL     1       2.962   5.648  19.505  0.00  0.00    +0.000 A 
ENDROOT
BRANCH   4   7
ATOM      7  C   UNL     1       5.337   4.980  16.448  0.00  0.00    +0.000 C 
ATOM      8  C   UNL     1       4.781   4.489  15.095  0.00  0.00    +0.000 C 
ATOM      9  C   UNL     1       5.905   3.847  14.257  0.00  0.00    +0.000 C 
ATOM     10  C   UNL     1       7.112   4.775  14.110  0.00  0.00    +0.000 C 
ATOM     11  N   UNL     1       7.614   5.214  15.412  0.00  0.00    +0.000 NA
ATOM     12  C   UNL     1       6.556   5.896  16.180  0.00  0.00    +0.000 C 
ATOM     13  H   UNL     1       7.932   4.400  15.942  0.00  0.00    +0.000 HD
ENDBRANCH   4   7
BRANCH   1  16
ATOM     14  C   UNL     1       1.197   8.969  19.939  0.00  0.00    +0.000 C 
ATOM     15  O   UNL     1       1.343   9.533  18.843  0.00  0.00    +0.000 OA
ATOM     16  N   UNL     1       1.712   7.693  20.201  0.00  0.00    +0.000 N 
ATOM     17  H   UNL     1       1.389   7.185  21.015  0.00  0.00    +0.000 HD
BRANCH  14  23
ATOM     18  C   UNL     1      -2.090  12.627  21.605  0.00  0.00    +0.000 C 
ATOM     19  C   UNL     1      -1.207  11.421  21.791  0.00  0.00    +0.000 A 
ATOM     20  C   UNL     1      -1.148  10.847  23.069  0.00  0.00    +0.000 A 
ATOM     21  C   UNL     1      -0.355   9.738  23.303  0.00  0.00    +0.000 A 
ATOM     22  C   UNL     1       0.385   9.199  22.252  0.00  0.00    +0.000 A 
ATOM     23  C   UNL     1       0.361   9.737  20.942  0.00  0.00    +0.000 A 
ATOM     24  C   UNL     1      -0.450  10.863  20.721  0.00  0.00    +0.000 A 
ENDBRANCH  14  23
ENDBRANCH   1  16
TORSDOF 3
ENDMDL
MODEL 9
REMARK VINA RESULT:      -7.6      7.581      9.086
REMARK  Name = 
REMARK  4 active torsions:
REMARK  status: ('A' for Active; 'I' for Inactive)
REMARK    1  A    between atoms: C_1  and  C_2
REMARK    2  A    between atoms: C_6  and  C_7
REMARK    3  A    between atoms: N_9  and  C_10
REMARK    4  A    between atoms: C_13  and  C_14
REMARK                            x       y       z     vdW  Elec       q    Type
REMARK                         _______ _______ _______ _____ _____    ______ ____
ROOT
ATOM      1  C   UNL     1       0.773   9.229  19.920  0.00  0.00    +0.000 A 
ATOM      2  C   UNL     1       1.163   9.352  18.584  0.00  0.00    +0.000 A 
ATOM      3  C   UNL     1       2.024   8.434  17.961  0.00  0.00    +0.000 A 
ATOM      4  C   UNL     1       2.577   7.345  18.644  0.00  0.00    +0.000 A 
ATOM      5  C   UNL     1       2.201   7.203  19.988  0.00  0.00    +0.000 A 
ATOM      6  C   UNL     1       1.318   8.139  20.618  0.00  0.00    +0.000 A 
ENDROOT
BRANCH   4   7
ATOM      7  C   UNL     1       3.530   6.449  17.846  0.00  0.00    +0.000 C 
ATOM      8  C   UNL     1       4.662   7.100  17.024  0.00  0.00    +0.000 C 
ATOM      9  C   UNL     1       5.438   6.023  16.239  0.00  0.00    +0.000 C 
ATOM     10  C   UNL     1       5.927   4.892  17.146  0.00  0.00    +0.000 C 
ATOM     11  N   UNL     1       4.826   4.298  17.904  0.00  0.00    +0.000 NA
ATOM     12  C   UNL     1       4.134   5.317  18.714  0.00  0.00    +0.000 C 
ATOM     13  H   UNL     1       4.156   3.883  17.253  0.00  0.00    +0.000 HD
ENDBRANCH   4   7
BRANCH   1  16
ATOM     14  C   UNL     1       0.321  11.251  21.339  0.00  0.00    +0.000 C 
ATOM     15  O   UNL     1       1.521  11.558  21.427  0.00  0.00    +0.000 OA
ATOM     16  N   UNL     1      -0.123  10.176  20.558  0.00  0.00    +0.000 N 
ATOM     17  H   UNL     1      -1.108  10.095  20.340  0.00  0.00    +0.000 HD
BRANCH  14  23
ATOM     18  C   UNL     1      -3.847  12.537  24.154  0.00  0.00    +0.000 C 
ATOM     19  C   UNL     1      -2.560  12.840  23.435  0.00  0.00    +0.000 A 
ATOM     20  C   UNL     1      -2.091  14.162  23.468  0.00  0.00    +0.000 A 
ATOM     21  C   UNL     1      -0.914  14.503  22.826  0.00  0.00    +0.000 A 
ATOM     22  C   UNL     1      -0.200  13.518  22.146  0.00  0.00    +0.000 A 
ATOM     23  C   UNL     1      -0.626  12.169  22.084  0.00  0.00    +0.000 A 
ATOM     24  C   UNL     1      -1.823  11.838  22.741  0.00  0.00    +0.000 A 
ENDBRANCH  14  23
ENDBRANCH   1  16
TORSDOF 3
ENDMDL
