MODEL 1
REMARK VINA RESULT:      -6.3      0.000      0.000
REMARK  Name = 
REMARK  3 active torsions:
REMARK  status: ('A' for Active; 'I' for Inactive)
REMARK    1  A    between atoms: N_4  and  C_5
REMARK    2  A    between atoms: C_8  and  C_9
REMARK    3  A    between atoms: C_9  and  O_11
REMARK                            x       y       z     vdW  Elec       q    Type
REMARK                         _______ _______ _______ _____ _____    ______ ____
ROOT
ATOM      1  C   UNL     1       3.344   4.196  18.497  0.00  0.00    +0.000 A 
ATOM      2  C   UNL     1       4.497   4.389  19.272  0.00  0.00    +0.000 A 
ATOM      3  C   UNL     1       5.743   4.607  18.677  0.00  0.00    +0.000 A 
ATOM      4  C   UNL     1       5.867   4.633  17.284  0.00  0.00    +0.000 A 
ATOM      5  C   UNL     1       4.724   4.450  16.497  0.00  0.00    +0.000 A 
ATOM      6  C   UNL     1       3.474   4.260  17.104  0.00  0.00    +0.000 A 
ENDROOT
BRANCH   1  10
ATOM      7  N   UNL     1       1.719   1.689  18.986  0.00  0.00    +0.000 NA
ATOM      8  C   UNL     1       1.457   2.862  19.443  0.00  0.00    +0.000 C 
ATOM      9  N   UNL     1       0.404   3.061  20.274  0.00  0.00    +0.000 N 
ATOM     10  N   UNL     1       2.118   4.016  19.164  0.00  0.00    +0.000 N 
ATOM     11  H   UNL     1       1.059   1.010  19.366  0.00  0.00    +0.000 HD
ATOM     12  H   UNL     1      -0.262   2.299  20.311  0.00  0.00    +0.000 HD
ATOM     13  H   UNL     1      -0.072   3.948  20.166  0.00  0.00    +0.000 HD
ATOM     14  H   UNL     1       1.830   4.834  19.681  0.00  0.00    +0.000 HD
ENDBRANCH   1  10
BRANCH   4  15
ATOM     15  C   UNL     1       7.226   4.810  16.712  0.00  0.00    +0.000 C 
ATOM     16  O   UNL     1       7.441   5.515  15.741  0.00  0.00    +0.000 OA
BRANCH  15  17
ATOM     17  O   UNL     1       8.193   4.103  17.331  0.00  0.00    +0.000 OA
ATOM     18  H   UNL     1       8.219   3.153  17.111  0.00  0.00    +0.000 HD
ENDBRANCH  15  17
ENDBRANCH   4  15
TORSDOF 3
ENDMDL
MODEL 2
REMARK VINA RESULT:      -6.3      4.350      5.667
REMARK  Name = 
REMARK  3 active torsions:
REMARK  status: ('A' for Active; 'I' for Inactive)
REMARK    1  A    between atoms: N_4  and  C_5
REMARK    2  A    between atoms: C_8  and  C_9
REMARK    3  A    between atoms: C_9  and  O_11
REMARK                            x       y       z     vdW  Elec       q    Type
REMARK                         _______ _______ _______ _____ _____    ______ ____
ROOT
ATOM      1  C   UNL     1       4.250   4.949  17.499  0.00  0.00    +0.000 A 
ATOM      2  C   UNL     1       3.829   3.706  17.002  0.00  0.00    +0.000 A 
ATOM      3  C   UNL     1       2.700   3.063  17.517  0.00  0.00    +0.000 A 
ATOM      4  C   UNL     1       1.962   3.649  18.552  0.00  0.00    +0.000 A 
ATOM      5  C   UNL     1       2.365   4.892  19.053  0.00  0.00    +0.000 A 
ATOM      6  C   UNL     1       3.483   5.542  18.509  0.00  0.00    +0.000 A 
ENDROOT
BRANCH   1  10
ATOM      7  N   UNL     1       7.201   4.359  17.829  0.00  0.00    +0.000 NA
ATOM      8  C   UNL     1       6.685   5.207  17.012  0.00  0.00    +0.000 C 
ATOM      9  N   UNL     1       7.468   5.898  16.146  0.00  0.00    +0.000 N 
ATOM     10  N   UNL     1       5.375   5.554  16.910  0.00  0.00    +0.000 N 
ATOM     11  H   UNL     1       8.208   4.299  17.681  0.00  0.00    +0.000 HD
ATOM     12  H   UNL     1       8.459   5.869  16.349  0.00  0.00    +0.000 HD
ATOM     13  H   UNL     1       7.170   6.845  15.953  0.00  0.00    +0.000 HD
ATOM     14  H   UNL     1       5.132   6.174  16.151  0.00  0.00    +0.000 HD
ENDBRANCH   1  10
BRANCH   4  15
ATOM     15  C   UNL     1       0.809   2.889  19.096  0.00  0.00    +0.000 C 
ATOM     16  O   UNL     1       0.226   2.033  18.453  0.00  0.00    +0.000 OA
BRANCH  15  17
ATOM     17  O   UNL     1       0.437   3.246  20.342  0.00  0.00    +0.000 OA
ATOM     18  H   UNL     1       0.886   2.766  21.063  0.00  0.00    +0.000 HD
ENDBRANCH  15  17
ENDBRANCH   4  15
TORSDOF 3
ENDMDL
MODEL 3
REMARK VINA RESULT:      -6.2      4.272      5.625
REMARK  Name = 
REMARK  3 active torsions:
REMARK  status: ('A' for Active; 'I' for Inactive)
REMARK    1  A    between atoms: N_4  and  C_5
REMARK    2  A    between atoms: C_8  and  C_9
REMARK    3  A    between atoms: C_9  and  O_11
REMARK                            x       y       z     vdW  Elec       q    Type
REMARK                         _______ _______ _______ _____ _____    ______ ____
ROOT
ATOM      1  C   UNL     1       4.626   4.340  17.924  0.00  0.00    +0.000 A 
ATOM      2  C   UNL     1       4.253   5.263  18.912  0.00  0.00    +0.000 A 
ATOM      3  C   UNL     1       3.352   4.919  19.923  0.00  0.00    +0.000 A 
ATOM      4  C   UNL     1       2.795   3.636  19.969  0.00  0.00    +0.000 A 
ATOM      5  C   UNL     1       3.162   2.702  18.994  0.00  0.00    +0.000 A 
ATOM      6  C   UNL     1       4.089   3.048  18.000  0.00  0.00    +0.000 A 
ENDROOT
BRANCH   1  10
ATOM      7  N   UNL     1       7.653   4.296  17.976  0.00  0.00    +0.000 NA
ATOM      8  C   UNL     1       6.917   4.629  16.975  0.00  0.00    +0.000 C 
ATOM      9  N   UNL     1       7.477   4.949  15.782  0.00  0.00    +0.000 N 
ATOM     10  N   UNL     1       5.563   4.744  16.956  0.00  0.00    +0.000 N 
ATOM     11  H   UNL     1       8.635   4.290  17.702  0.00  0.00    +0.000 HD
ATOM     12  H   UNL     1       8.474   5.125  15.810  0.00  0.00    +0.000 HD
ATOM     13  H   UNL     1       7.000   5.672  15.259  0.00  0.00    +0.000 HD
ATOM     14  H   UNL     1       5.142   4.932  16.058  0.00  0.00    +0.000 HD
ENDBRANCH   1  10
BRANCH   4  15
ATOM     15  C   UNL     1       1.799   3.350  21.033  0.00  0.00    +0.000 C 
ATOM     16  O   UNL     1       2.113   3.212  22.202  0.00  0.00    +0.000 OA
BRANCH  15  17
ATOM     17  O   UNL     1       0.530   3.223  20.596  0.00  0.00    +0.000 OA
ATOM     18  H   UNL     1      -0.065   3.961  20.825  0.00  0.00    +0.000 HD
ENDBRANCH  15  17
ENDBRANCH   4  15
TORSDOF 3
ENDMDL
MODEL 4
REMARK VINA RESULT:      -6.2      4.374      5.631
REMARK  Name = 
REMARK  3 active torsions:
REMARK  status: ('A' for Active; 'I' for Inactive)
REMARK    1  A    between atoms: N_4  and  C_5
REMARK    2  A    between atoms: C_8  and  C_9
REMARK    3  A    between atoms: C_9  and  O_11
REMARK                            x       y       z     vdW  Elec       q    Type
REMARK                         _______ _______ _______ _____ _____    ______ ____
ROOT
ATOM      1  C   UNL     1       4.333   4.570  17.155  0.00  0.00    +0.000 A 
ATOM      2  C   UNL     1       3.356   5.368  17.768  0.00  0.00    +0.000 A 
ATOM      3  C   UNL     1       2.243   4.800  18.393  0.00  0.00    +0.000 A 
ATOM      4  C   UNL     1       2.076   3.410  18.415  0.00  0.00    +0.000 A 
ATOM      5  C   UNL     1       3.046   2.601  17.813  0.00  0.00    +0.000 A 
ATOM      6  C   UNL     1       4.174   3.180  17.214  0.00  0.00    +0.000 A 
ENDROOT
BRANCH   1  10
ATOM      7  N   UNL     1       7.283   4.364  17.805  0.00  0.00    +0.000 NA
ATOM      8  C   UNL     1       6.767   5.027  16.832  0.00  0.00    +0.000 C 
ATOM      9  N   UNL     1       7.557   5.674  15.940  0.00  0.00    +0.000 N 
ATOM     10  N   UNL     1       5.445   5.209  16.575  0.00  0.00    +0.000 N 
ATOM     11  H   UNL     1       8.301   4.395  17.749  0.00  0.00    +0.000 HD
ATOM     12  H   UNL     1       8.523   5.783  16.224  0.00  0.00    +0.000 HD
ATOM     13  H   UNL     1       7.187   6.546  15.585  0.00  0.00    +0.000 HD
ATOM     14  H   UNL     1       5.216   5.687  15.716  0.00  0.00    +0.000 HD
ENDBRANCH   1  10
BRANCH   4  15
ATOM     15  C   UNL     1       0.843   2.871  19.041  0.00  0.00    +0.000 C 
ATOM     16  O   UNL     1       0.152   2.023  18.503  0.00  0.00    +0.000 OA
BRANCH  15  17
ATOM     17  O   UNL     1       0.531   3.417  20.234  0.00  0.00    +0.000 OA
ATOM     18  H   UNL     1       1.246   3.931  20.655  0.00  0.00    +0.000 HD
ENDBRANCH  15  17
ENDBRANCH   4  15
TORSDOF 3
ENDMDL
MODEL 5
REMARK VINA RESULT:      -6.1      0.401      1.341
REMARK  Name = 
REMARK  3 active torsions:
REMARK  status: ('A' for Active; 'I' for Inactive)
REMARK    1  A    between atoms: N_4  and  C_5
REMARK    2  A    between atoms: C_8  and  C_9
REMARK    3  A    between atoms: C_9  and  O_11
REMARK                            x       y       z     vdW  Elec       q    Type
REMARK                         _______ _______ _______ _____ _____    ______ ____
ROOT
ATOM      1  C   UNL     1       3.277   4.336  18.589  0.00  0.00    +0.000 A 
ATOM      2  C   UNL     1       3.617   3.927  17.291  0.00  0.00    +0.000 A 
ATOM      3  C   UNL     1       4.896   4.146  16.772  0.00  0.00    +0.000 A 
ATOM      4  C   UNL     1       5.871   4.788  17.543  0.00  0.00    +0.000 A 
ATOM      5  C   UNL     1       5.550   5.195  18.842  0.00  0.00    +0.000 A 
ATOM      6  C   UNL     1       4.272   4.945  19.363  0.00  0.00    +0.000 A 
ENDROOT
BRANCH   1  10
ATOM      7  N   UNL     1       1.837   1.693  18.919  0.00  0.00    +0.000 NA
ATOM      8  C   UNL     1       1.395   2.846  19.277  0.00  0.00    +0.000 C 
ATOM      9  N   UNL     1       0.206   2.962  19.919  0.00  0.00    +0.000 N 
ATOM     10  N   UNL     1       1.981   4.053  19.057  0.00  0.00    +0.000 N 
ATOM     11  H   UNL     1       1.191   0.963  19.218  0.00  0.00    +0.000 HD
ATOM     12  H   UNL     1      -0.383   2.139  19.882  0.00  0.00    +0.000 HD
ATOM     13  H   UNL     1      -0.327   3.794  19.697  0.00  0.00    +0.000 HD
ATOM     14  H   UNL     1       1.537   4.852  19.485  0.00  0.00    +0.000 HD
ENDBRANCH   1  10
BRANCH   4  15
ATOM     15  C   UNL     1       7.192   5.044  16.915  0.00  0.00    +0.000 C 
ATOM     16  O   UNL     1       7.398   6.003  16.191  0.00  0.00    +0.000 OA
BRANCH  15  17
ATOM     17  O   UNL     1       8.132   4.115  17.182  0.00  0.00    +0.000 OA
ATOM     18  H   UNL     1       7.804   3.199  17.254  0.00  0.00    +0.000 HD
ENDBRANCH  15  17
ENDBRANCH   4  15
TORSDOF 3
ENDMDL
MODEL 6
REMARK VINA RESULT:      -6.1      1.648      2.241
REMARK  Name = 
REMARK  3 active torsions:
REMARK  status: ('A' for Active; 'I' for Inactive)
REMARK    1  A    between atoms: N_4  and  C_5
REMARK    2  A    between atoms: C_8  and  C_9
REMARK    3  A    between atoms: C_9  and  O_11
REMARK                            x       y       z     vdW  Elec       q    Type
REMARK                         _______ _______ _______ _____ _____    ______ ____
ROOT
ATOM      1  C   UNL     1       4.049   4.194  18.173  0.00  0.00    +0.000 A 
ATOM      2  C   UNL     1       4.426   4.753  16.942  0.00  0.00    +0.000 A 
ATOM      3  C   UNL     1       5.565   5.553  16.827  0.00  0.00    +0.000 A 
ATOM      4  C   UNL     1       6.358   5.821  17.949  0.00  0.00    +0.000 A 
ATOM      5  C   UNL     1       5.999   5.265  19.182  0.00  0.00    +0.000 A 
ATOM      6  C   UNL     1       4.869   4.440  19.280  0.00  0.00    +0.000 A 
ENDROOT
BRANCH   1  10
ATOM      7  N   UNL     1       3.802   1.180  18.306  0.00  0.00    +0.000 NA
ATOM      8  C   UNL     1       2.832   2.022  18.357  0.00  0.00    +0.000 C 
ATOM      9  N   UNL     1       1.557   1.598  18.543  0.00  0.00    +0.000 N 
ATOM     10  N   UNL     1       2.909   3.371  18.207  0.00  0.00    +0.000 N 
ATOM     11  H   UNL     1       3.451   0.233  18.454  0.00  0.00    +0.000 HD
ATOM     12  H   UNL     1       1.412   0.605  18.407  0.00  0.00    +0.000 HD
ATOM     13  H   UNL     1       0.847   2.133  18.059  0.00  0.00    +0.000 HD
ATOM     14  H   UNL     1       2.057   3.889  18.364  0.00  0.00    +0.000 HD
ENDBRANCH   1  10
BRANCH   4  15
ATOM     15  C   UNL     1       7.522   6.727  17.774  0.00  0.00    +0.000 C 
ATOM     16  O   UNL     1       7.796   7.242  16.704  0.00  0.00    +0.000 OA
BRANCH  15  17
ATOM     17  O   UNL     1       8.268   6.905  18.883  0.00  0.00    +0.000 OA
ATOM     18  H   UNL     1       7.966   6.415  19.671  0.00  0.00    +0.000 HD
ENDBRANCH  15  17
ENDBRANCH   4  15
TORSDOF 3
ENDMDL
MODEL 7
REMARK VINA RESULT:      -6.0      4.405      5.738
REMARK  Name = 
REMARK  3 active torsions:
REMARK  status: ('A' for Active; 'I' for Inactive)
REMARK    1  A    between atoms: N_4  and  C_5
REMARK    2  A    between atoms: C_8  and  C_9
REMARK    3  A    between atoms: C_9  and  O_11
REMARK                            x       y       z     vdW  Elec       q    Type
REMARK                         _______ _______ _______ _____ _____    ______ ____
ROOT
ATOM      1  C   UNL     1       5.050   4.030  18.988  0.00  0.00    +0.000 A 
ATOM      2  C   UNL     1       4.622   2.706  19.172  0.00  0.00    +0.000 A 
ATOM      3  C   UNL     1       3.421   2.416  19.824  0.00  0.00    +0.000 A 
ATOM      4  C   UNL     1       2.615   3.448  20.316  0.00  0.00    +0.000 A 
ATOM      5  C   UNL     1       3.025   4.774  20.135  0.00  0.00    +0.000 A 
ATOM      6  C   UNL     1       4.218   5.056  19.453  0.00  0.00    +0.000 A 
ENDROOT
BRANCH   1  10
ATOM      7  N   UNL     1       5.610   4.156  16.016  0.00  0.00    +0.000 NA
ATOM      8  C   UNL     1       6.455   4.388  16.956  0.00  0.00    +0.000 C 
ATOM      9  N   UNL     1       7.719   4.787  16.667  0.00  0.00    +0.000 N 
ATOM     10  N   UNL     1       6.252   4.249  18.293  0.00  0.00    +0.000 N 
ATOM     11  H   UNL     1       6.035   4.347  15.108  0.00  0.00    +0.000 HD
ATOM     12  H   UNL     1       7.997   4.662  15.701  0.00  0.00    +0.000 HD
ATOM     13  H   UNL     1       8.436   4.442  17.293  0.00  0.00    +0.000 HD
ATOM     14  H   UNL     1       7.001   4.560  18.895  0.00  0.00    +0.000 HD
ENDBRANCH   1  10
BRANCH   4  15
ATOM     15  C   UNL     1       1.381   3.073  21.052  0.00  0.00    +0.000 C 
ATOM     16  O   UNL     1       1.400   2.684  22.207  0.00  0.00    +0.000 OA
BRANCH  15  17
ATOM     17  O   UNL     1       0.246   3.164  20.330  0.00  0.00    +0.000 OA
ATOM     18  H   UNL     1      -0.543   3.446  20.830  0.00  0.00    +0.000 HD
ENDBRANCH  15  17
ENDBRANCH   4  15
TORSDOF 3
ENDMDL
MODEL 8
REMARK VINA RESULT:      -6.0      4.279      5.669
REMARK  Name = 
REMARK  3 active torsions:
REMARK  status: ('A' for Active; 'I' for Inactive)
REMARK    1  A    between atoms: N_4  and  C_5
REMARK    2  A    between atoms: C_8  and  C_9
REMARK    3  A    between atoms: C_9  and  O_11
REMARK                            x       y       z     vdW  Elec       q    Type
REMARK                         _______ _______ _______ _____ _____    ______ ____
ROOT
ATOM      1  C   UNL     1       4.500   5.028  18.220  0.00  0.00    +0.000 A 
ATOM      2  C   UNL     1       3.273   5.225  17.569  0.00  0.00    +0.000 A 
ATOM      3  C   UNL     1       2.123   4.535  17.962  0.00  0.00    +0.000 A 
ATOM      4  C   UNL     1       2.174   3.621  19.021  0.00  0.00    +0.000 A 
ATOM      5  C   UNL     1       3.388   3.419  19.685  0.00  0.00    +0.000 A 
ATOM      6  C   UNL     1       4.530   4.138  19.301  0.00  0.00    +0.000 A 
ENDROOT
BRANCH   1  10
ATOM      7  N   UNL     1       7.002   4.184  16.740  0.00  0.00    +0.000 NA
ATOM      8  C   UNL     1       6.676   5.388  17.052  0.00  0.00    +0.000 C 
ATOM      9  N   UNL     1       7.448   6.435  16.666  0.00  0.00    +0.000 N 
ATOM     10  N   UNL     1       5.608   5.782  17.793  0.00  0.00    +0.000 N 
ATOM     11  H   UNL     1       7.851   4.186  16.175  0.00  0.00    +0.000 HD
ATOM     12  H   UNL     1       8.373   6.186  16.338  0.00  0.00    +0.000 HD
ATOM     13  H   UNL     1       7.496   7.203  17.323  0.00  0.00    +0.000 HD
ATOM     14  H   UNL     1       5.455   6.777  17.867  0.00  0.00    +0.000 HD
ENDBRANCH   1  10
BRANCH   4  15
ATOM     15  C   UNL     1       0.933   2.877  19.352  0.00  0.00    +0.000 C 
ATOM     16  O   UNL     1       0.327   2.214  18.528  0.00  0.00    +0.000 OA
BRANCH  15  17
ATOM     17  O   UNL     1       0.513   3.020  20.626  0.00  0.00    +0.000 OA
ATOM     18  H   UNL     1      -0.196   3.677  20.758  0.00  0.00    +0.000 HD
ENDBRANCH  15  17
ENDBRANCH   4  15
TORSDOF 3
ENDMDL
MODEL 9
REMARK VINA RESULT:      -6.0      4.223      5.657
REMARK  Name = 
REMARK  3 active torsions:
REMARK  status: ('A' for Active; 'I' for Inactive)
REMARK    1  A    between atoms: N_4  and  C_5
REMARK    2  A    between atoms: C_8  and  C_9
REMARK    3  A    between atoms: C_9  and  O_11
REMARK                            x       y       z     vdW  Elec       q    Type
REMARK                         _______ _______ _______ _____ _____    ______ ____
ROOT
ATOM      1  C   UNL     1       4.689   4.713  17.725  0.00  0.00    +0.000 A 
ATOM      2  C   UNL     1       4.028   3.478  17.645  0.00  0.00    +0.000 A 
ATOM      3  C   UNL     1       3.131   3.070  18.636  0.00  0.00    +0.000 A 
ATOM      4  C   UNL     1       2.875   3.890  19.741  0.00  0.00    +0.000 A 
ATOM      5  C   UNL     1       3.522   5.127  19.831  0.00  0.00    +0.000 A 
ATOM      6  C   UNL     1       4.398   5.540  18.817  0.00  0.00    +0.000 A 
ENDROOT
BRANCH   1  10
ATOM      7  N   UNL     1       7.686   4.392  17.442  0.00  0.00    +0.000 NA
ATOM      8  C   UNL     1       6.883   4.836  16.541  0.00  0.00    +0.000 C 
ATOM      9  N   UNL     1       7.340   5.156  15.304  0.00  0.00    +0.000 N 
ATOM     10  N   UNL     1       5.552   5.074  16.675  0.00  0.00    +0.000 N 
ATOM     11  H   UNL     1       8.629   4.310  17.061  0.00  0.00    +0.000 HD
ATOM     12  H   UNL     1       8.346   5.240  15.229  0.00  0.00    +0.000 HD
ATOM     13  H   UNL     1       6.881   5.943  14.863  0.00  0.00    +0.000 HD
ATOM     14  H   UNL     1       5.056   5.339  15.836  0.00  0.00    +0.000 HD
ENDBRANCH   1  10
BRANCH   4  15
ATOM     15  C   UNL     1       1.958   3.374  20.789  0.00  0.00    +0.000 C 
ATOM     16  O   UNL     1       2.349   3.043  21.895  0.00  0.00    +0.000 OA
BRANCH  15  17
ATOM     17  O   UNL     1       0.669   3.270  20.408  0.00  0.00    +0.000 OA
ATOM     18  H   UNL     1       0.018   3.292  21.133  0.00  0.00    +0.000 HD
ENDBRANCH  15  17
ENDBRANCH   4  15
TORSDOF 3
ENDMDL
