MODEL 1
REMARK VINA RESULT:      -7.8      0.000      0.000
REMARK  Name = 
REMARK  12 active torsions:
REMARK  status: ('A' for Active; 'I' for Inactive)
REMARK    1  A    between atoms: C_1  and  C_2
REMARK    2  A    between atoms: C_2  and  C_3
REMARK    3  A    between atoms: C_2  and  N_28
REMARK    4  A    between atoms: C_3  and  C_4
REMARK    5  A    between atoms: C_3  and  N_23
REMARK    6  A    between atoms: C_9  and  O_10
REMARK    7  A    between atoms: O_10  and  C_11
REMARK    8  A    between atoms: C_11  and  C_12
REMARK    9  A    between atoms: C_12  and  C_13
REMARK   10  A    between atoms: C_13  and  O_15
REMARK   11  A    between atoms: N_28  and  C_29
REMARK   12  A    between atoms: N_28  and  C_30
REMARK                            x       y       z     vdW  Elec       q    Type
REMARK                         _______ _______ _______ _____ _____    ______ ____
ROOT
ATOM      1  C   UNL     1       0.073  10.563  19.747  0.00  0.00    +0.000 A 
ATOM      2  C   UNL     1       0.066   9.858  20.963  0.00  0.00    +0.000 A 
ATOM      3  C   UNL     1       0.750   8.640  21.088  0.00  0.00    +0.000 A 
ATOM      4  C   UNL     1       1.487   8.120  20.007  0.00  0.00    +0.000 A 
ATOM      5  C   UNL     1       2.266   6.954  20.095  0.00  0.00    +0.000 A 
ATOM      6  C   UNL     1       3.045   6.528  19.009  0.00  0.00    +0.000 A 
ATOM      7  C   UNL     1       3.038   7.257  17.821  0.00  0.00    +0.000 A 
ATOM      8  C   UNL     1       2.234   8.381  17.703  0.00  0.00    +0.000 A 
ATOM      9  C   UNL     1       1.468   8.815  18.786  0.00  0.00    +0.000 A 
ATOM     10  C   UNL     1       0.721   9.980  18.656  0.00  0.00    +0.000 A 
ENDROOT
BRANCH   1  11
ATOM     11  C   UNL     1      -0.547  11.955  19.637  0.00  0.00    +0.000 C 
BRANCH  11  12
ATOM     12  N   UNL     1      -1.915  11.931  19.110  0.00  0.00    +0.000 N 
ATOM     13  C   UNL     1      -3.043  12.187  19.850  0.00  0.00    +0.000 A 
ATOM     14  C   UNL     1      -4.094  12.015  18.980  0.00  0.00    +0.000 A 
ATOM     15  N   UNL     1      -3.640  11.655  17.740  0.00  0.00    +0.000 NA
ATOM     16  C   UNL     1      -2.333  11.594  17.851  0.00  0.00    +0.000 A 
ENDBRANCH  11  12
BRANCH  11  18
ATOM     17  C   UNL     1      -0.273  14.458  19.418  0.00  0.00    +0.000 C 
ATOM     18  C   UNL     1       0.388  13.106  19.028  0.00  0.00    +0.000 C 
BRANCH  18  19
ATOM     19  N   UNL     1       1.848  13.125  19.367  0.00  0.00    +0.000 NA
ATOM     20  C   UNL     1       2.722  13.151  18.191  0.00  0.00    +0.000 C 
ATOM     21  C   UNL     1       2.233  14.236  20.246  0.00  0.00    +0.000 C 
ENDBRANCH  18  19
ENDBRANCH  11  18
ENDBRANCH   1  11
BRANCH   6  22
ATOM     22  O   UNL     1       3.780   5.397  19.224  0.00  0.00    +0.000 OA
BRANCH  22  23
ATOM     23  C   UNL     1       3.235   4.454  20.157  0.00  0.00    +0.000 C 
BRANCH  23  24
ATOM     24  C   UNL     1       2.677   3.237  19.402  0.00  0.00    +0.000 C 
ATOM     25  C   UNL     1       1.461   2.572  20.116  0.00  0.00    +0.000 C 
ATOM     26  C   UNL     1       0.709   2.581  18.775  0.00  0.00    +0.000 C 
ATOM     27  C   UNL     1       1.695   3.639  18.255  0.00  0.00    +0.000 C 
BRANCH  24  28
ATOM     28  C   UNL     1       3.876   2.256  19.074  0.00  0.00    +0.000 C 
ATOM     29  O   UNL     1       3.757   1.125  18.609  0.00  0.00    +0.000 OA
BRANCH  28  30
ATOM     30  O   UNL     1       5.122   2.732  19.341  0.00  0.00    +0.000 OA
ATOM     31  H   UNL     1       5.368   2.745  20.281  0.00  0.00    +0.000 HD
ENDBRANCH  28  30
ENDBRANCH  24  28
ENDBRANCH  23  24
ENDBRANCH  22  23
ENDBRANCH   6  22
TORSDOF 9
ENDMDL
MODEL 2
REMARK VINA RESULT:      -7.8      2.290      3.318
REMARK  Name = 
REMARK  12 active torsions:
REMARK  status: ('A' for Active; 'I' for Inactive)
REMARK    1  A    between atoms: C_1  and  C_2
REMARK    2  A    between atoms: C_2  and  C_3
REMARK    3  A    between atoms: C_2  and  N_28
REMARK    4  A    between atoms: C_3  and  C_4
REMARK    5  A    between atoms: C_3  and  N_23
REMARK    6  A    between atoms: C_9  and  O_10
REMARK    7  A    between atoms: O_10  and  C_11
REMARK    8  A    between atoms: C_11  and  C_12
REMARK    9  A    between atoms: C_12  and  C_13
REMARK   10  A    between atoms: C_13  and  O_15
REMARK   11  A    between atoms: N_28  and  C_29
REMARK   12  A    between atoms: N_28  and  C_30
REMARK                            x       y       z     vdW  Elec       q    Type
REMARK                         _______ _______ _______ _____ _____    ______ ____
ROOT
ATOM      1  C   UNL     1       0.557   9.760  19.210  0.00  0.00    +0.000 A 
ATOM      2  C   UNL     1       1.273   9.893  18.007  0.00  0.00    +0.000 A 
ATOM      3  C   UNL     1       2.257   8.959  17.654  0.00  0.00    +0.000 A 
ATOM      4  C   UNL     1       2.521   7.850  18.480  0.00  0.00    +0.000 A 
ATOM      5  C   UNL     1       3.427   6.832  18.140  0.00  0.00    +0.000 A 
ATOM      6  C   UNL     1       3.588   5.709  18.965  0.00  0.00    +0.000 A 
ATOM      7  C   UNL     1       2.854   5.603  20.145  0.00  0.00    +0.000 A 
ATOM      8  C   UNL     1       1.994   6.624  20.519  0.00  0.00    +0.000 A 
ATOM      9  C   UNL     1       1.821   7.737  19.694  0.00  0.00    +0.000 A 
ATOM     10  C   UNL     1       0.905   8.714  20.066  0.00  0.00    +0.000 A 
ENDROOT
BRANCH   1  11
ATOM     11  C   UNL     1      -0.611  10.687  19.540  0.00  0.00    +0.000 C 
BRANCH  11  12
ATOM     12  N   UNL     1      -1.646  10.695  18.503  0.00  0.00    +0.000 N 
ATOM     13  C   UNL     1      -2.083  11.817  17.841  0.00  0.00    +0.000 A 
ATOM     14  C   UNL     1      -3.075  11.377  16.998  0.00  0.00    +0.000 A 
ATOM     15  N   UNL     1      -3.261  10.028  17.133  0.00  0.00    +0.000 NA
ATOM     16  C   UNL     1      -2.405   9.648  18.054  0.00  0.00    +0.000 A 
ENDBRANCH  11  12
BRANCH  11  18
ATOM     17  C   UNL     1      -0.114  11.966  21.663  0.00  0.00    +0.000 C 
ATOM     18  C   UNL     1      -0.232  12.132  20.123  0.00  0.00    +0.000 C 
BRANCH  18  19
ATOM     19  N   UNL     1       0.969  12.852  19.585  0.00  0.00    +0.000 NA
ATOM     20  C   UNL     1       0.647  14.134  18.952  0.00  0.00    +0.000 C 
ATOM     21  C   UNL     1       2.012  13.087  20.590  0.00  0.00    +0.000 C 
ENDBRANCH  18  19
ENDBRANCH  11  18
ENDBRANCH   1  11
BRANCH   6  22
ATOM     22  O   UNL     1       4.478   4.776  18.515  0.00  0.00    +0.000 OA
BRANCH  22  23
ATOM     23  C   UNL     1       4.370   4.410  17.133  0.00  0.00    +0.000 C 
BRANCH  23  24
ATOM     24  C   UNL     1       5.682   4.738  16.403  0.00  0.00    +0.000 C 
ATOM     25  C   UNL     1       6.121   3.631  15.395  0.00  0.00    +0.000 C 
ATOM     26  C   UNL     1       6.342   4.725  14.338  0.00  0.00    +0.000 C 
ATOM     27  C   UNL     1       5.466   5.675  15.171  0.00  0.00    +0.000 C 
BRANCH  24  28
ATOM     28  C   UNL     1       6.773   5.130  17.480  0.00  0.00    +0.000 C 
ATOM     29  O   UNL     1       7.245   6.254  17.634  0.00  0.00    +0.000 OA
BRANCH  28  30
ATOM     30  O   UNL     1       7.202   4.118  18.284  0.00  0.00    +0.000 OA
ATOM     31  H   UNL     1       8.059   4.269  18.717  0.00  0.00    +0.000 HD
ENDBRANCH  28  30
ENDBRANCH  24  28
ENDBRANCH  23  24
ENDBRANCH  22  23
ENDBRANCH   6  22
TORSDOF 9
ENDMDL
MODEL 3
REMARK VINA RESULT:      -7.8      4.547      9.391
REMARK  Name = 
REMARK  12 active torsions:
REMARK  status: ('A' for Active; 'I' for Inactive)
REMARK    1  A    between atoms: C_1  and  C_2
REMARK    2  A    between atoms: C_2  and  C_3
REMARK    3  A    between atoms: C_2  and  N_28
REMARK    4  A    between atoms: C_3  and  C_4
REMARK    5  A    between atoms: C_3  and  N_23
REMARK    6  A    between atoms: C_9  and  O_10
REMARK    7  A    between atoms: O_10  and  C_11
REMARK    8  A    between atoms: C_11  and  C_12
REMARK    9  A    between atoms: C_12  and  C_13
REMARK   10  A    between atoms: C_13  and  O_15
REMARK   11  A    between atoms: N_28  and  C_29
REMARK   12  A    between atoms: N_28  and  C_30
REMARK                            x       y       z     vdW  Elec       q    Type
REMARK                         _______ _______ _______ _____ _____    ______ ____
ROOT
ATOM      1  C   UNL     1       3.132   6.027  19.205  0.00  0.00    +0.000 A 
ATOM      2  C   UNL     1       3.152   6.772  18.013  0.00  0.00    +0.000 A 
ATOM      3  C   UNL     1       2.480   8.000  17.926  0.00  0.00    +0.000 A 
ATOM      4  C   UNL     1       1.804   8.526  19.043  0.00  0.00    +0.000 A 
ATOM      5  C   UNL     1       1.190   9.789  19.049  0.00  0.00    +0.000 A 
ATOM      6  C   UNL     1       0.602  10.296  20.217  0.00  0.00    +0.000 A 
ATOM      7  C   UNL     1       0.610   9.537  21.385  0.00  0.00    +0.000 A 
ATOM      8  C   UNL     1       1.167   8.266  21.381  0.00  0.00    +0.000 A 
ATOM      9  C   UNL     1       1.766   7.764  20.224  0.00  0.00    +0.000 A 
ATOM     10  C   UNL     1       2.371   6.514  20.269  0.00  0.00    +0.000 A 
ENDROOT
BRANCH   1  11
ATOM     11  C   UNL     1       3.973   4.761  19.359  0.00  0.00    +0.000 C 
BRANCH  11  12
ATOM     12  N   UNL     1       5.251   4.832  18.645  0.00  0.00    +0.000 N 
ATOM     13  C   UNL     1       6.388   5.431  19.132  0.00  0.00    +0.000 A 
ATOM     14  C   UNL     1       7.321   5.304  18.130  0.00  0.00    +0.000 A 
ATOM     15  N   UNL     1       6.786   4.658  17.050  0.00  0.00    +0.000 NA
ATOM     16  C   UNL     1       5.540   4.402  17.378  0.00  0.00    +0.000 A 
ENDBRANCH  11  12
BRANCH  11  18
ATOM     17  C   UNL     1       4.030   2.314  19.991  0.00  0.00    +0.000 C 
ATOM     18  C   UNL     1       3.196   3.366  19.209  0.00  0.00    +0.000 C 
BRANCH  18  19
ATOM     19  N   UNL     1       1.752   3.281  19.603  0.00  0.00    +0.000 NA
ATOM     20  C   UNL     1       0.959   2.407  18.734  0.00  0.00    +0.000 C 
ATOM     21  C   UNL     1       1.546   2.854  20.992  0.00  0.00    +0.000 C 
ENDBRANCH  18  19
ENDBRANCH  11  18
ENDBRANCH   1  11
BRANCH   6  22
ATOM     22  O   UNL     1       0.061  11.545  20.105  0.00  0.00    +0.000 OA
BRANCH  22  23
ATOM     23  C   UNL     1      -1.344  11.654  20.368  0.00  0.00    +0.000 C 
BRANCH  23  24
ATOM     24  C   UNL     1      -1.574  12.501  21.631  0.00  0.00    +0.000 C 
ATOM     25  C   UNL     1      -3.073  12.861  21.867  0.00  0.00    +0.000 C 
ATOM     26  C   UNL     1      -2.920  12.404  23.327  0.00  0.00    +0.000 C 
ATOM     27  C   UNL     1      -1.650  11.634  22.929  0.00  0.00    +0.000 C 
BRANCH  24  28
ATOM     28  C   UNL     1      -0.590  13.739  21.592  0.00  0.00    +0.000 C 
ATOM     29  O   UNL     1      -0.833  14.820  21.062  0.00  0.00    +0.000 OA
BRANCH  28  30
ATOM     30  O   UNL     1       0.613  13.560  22.204  0.00  0.00    +0.000 OA
ATOM     31  H   UNL     1       1.365  14.002  21.776  0.00  0.00    +0.000 HD
ENDBRANCH  28  30
ENDBRANCH  24  28
ENDBRANCH  23  24
ENDBRANCH  22  23
ENDBRANCH   6  22
TORSDOF 9
ENDMDL
MODEL 4
REMARK VINA RESULT:      -7.7      4.561      9.347
REMARK  Name = 
REMARK  12 active torsions:
REMARK  status: ('A' for Active; 'I' for Inactive)
REMARK    1  A    between atoms: C_1  and  C_2
REMARK    2  A    between atoms: C_2  and  C_3
REMARK    3  A    between atoms: C_2  and  N_28
REMARK    4  A    between atoms: C_3  and  C_4
REMARK    5  A    between atoms: C_3  and  N_23
REMARK    6  A    between atoms: C_9  and  O_10
REMARK    7  A    between atoms: O_10  and  C_11
REMARK    8  A    between atoms: C_11  and  C_12
REMARK    9  A    between atoms: C_12  and  C_13
REMARK   10  A    between atoms: C_13  and  O_15
REMARK   11  A    between atoms: N_28  and  C_29
REMARK   12  A    between atoms: N_28  and  C_30
REMARK                            x       y       z     vdW  Elec       q    Type
REMARK                         _______ _______ _______ _____ _____    ______ ____
ROOT
ATOM      1  C   UNL     1       3.386   5.975  19.090  0.00  0.00    +0.000 A 
ATOM      2  C   UNL     1       3.431   6.761  17.925  0.00  0.00    +0.000 A 
ATOM      3  C   UNL     1       2.717   7.966  17.848  0.00  0.00    +0.000 A 
ATOM      4  C   UNL     1       1.973   8.428  18.951  0.00  0.00    +0.000 A 
ATOM      5  C   UNL     1       1.312   9.667  18.970  0.00  0.00    +0.000 A 
ATOM      6  C   UNL     1       0.654  10.112  20.126  0.00  0.00    +0.000 A 
ATOM      7  C   UNL     1       0.639   9.312  21.267  0.00  0.00    +0.000 A 
ATOM      8  C   UNL     1       1.243   8.064  21.246  0.00  0.00    +0.000 A 
ATOM      9  C   UNL     1       1.911   7.625  20.102  0.00  0.00    +0.000 A 
ATOM     10  C   UNL     1       2.560   6.396  20.133  0.00  0.00    +0.000 A 
ENDROOT
BRANCH   1  11
ATOM     11  C   UNL     1       4.266   4.735  19.240  0.00  0.00    +0.000 C 
BRANCH  11  12
ATOM     12  N   UNL     1       5.501   4.811  18.454  0.00  0.00    +0.000 N 
ATOM     13  C   UNL     1       5.662   4.284  17.196  0.00  0.00    +0.000 A 
ATOM     14  C   UNL     1       6.969   4.545  16.858  0.00  0.00    +0.000 A 
ATOM     15  N   UNL     1       7.608   5.205  17.873  0.00  0.00    +0.000 NA
ATOM     16  C   UNL     1       6.710   5.335  18.823  0.00  0.00    +0.000 A 
ENDBRANCH  11  12
BRANCH  11  18
ATOM     17  C   UNL     1       4.268   2.385  20.171  0.00  0.00    +0.000 C 
ATOM     18  C   UNL     1       3.518   3.318  19.180  0.00  0.00    +0.000 C 
BRANCH  18  19
ATOM     19  N   UNL     1       2.040   3.254  19.424  0.00  0.00    +0.000 NA
ATOM     20  C   UNL     1       1.332   2.365  18.499  0.00  0.00    +0.000 C 
ATOM     21  C   UNL     1       1.687   2.863  20.794  0.00  0.00    +0.000 C 
ENDBRANCH  18  19
ENDBRANCH  11  18
ENDBRANCH   1  11
BRANCH   6  22
ATOM     22  O   UNL     1       0.072  11.344  20.031  0.00  0.00    +0.000 OA
BRANCH  22  23
ATOM     23  C   UNL     1      -1.287  11.440  20.479  0.00  0.00    +0.000 C 
BRANCH  23  24
ATOM     24  C   UNL     1      -2.198  11.825  19.303  0.00  0.00    +0.000 C 
ATOM     25  C   UNL     1      -1.419  12.417  18.088  0.00  0.00    +0.000 C 
ATOM     26  C   UNL     1      -2.193  11.460  17.166  0.00  0.00    +0.000 C 
ATOM     27  C   UNL     1      -2.551  10.605  18.393  0.00  0.00    +0.000 C 
BRANCH  24  28
ATOM     28  C   UNL     1      -3.370  12.737  19.851  0.00  0.00    +0.000 C 
ATOM     29  O   UNL     1      -4.507  12.350  20.106  0.00  0.00    +0.000 OA
BRANCH  28  30
ATOM     30  O   UNL     1      -3.060  14.048  20.043  0.00  0.00    +0.000 OA
ATOM     31  H   UNL     1      -3.614  14.514  20.692  0.00  0.00    +0.000 HD
ENDBRANCH  28  30
ENDBRANCH  24  28
ENDBRANCH  23  24
ENDBRANCH  22  23
ENDBRANCH   6  22
TORSDOF 9
ENDMDL
MODEL 5
REMARK VINA RESULT:      -7.7      4.510      9.465
REMARK  Name = 
REMARK  12 active torsions:
REMARK  status: ('A' for Active; 'I' for Inactive)
REMARK    1  A    between atoms: C_1  and  C_2
REMARK    2  A    between atoms: C_2  and  C_3
REMARK    3  A    between atoms: C_2  and  N_28
REMARK    4  A    between atoms: C_3  and  C_4
REMARK    5  A    between atoms: C_3  and  N_23
REMARK    6  A    between atoms: C_9  and  O_10
REMARK    7  A    between atoms: O_10  and  C_11
REMARK    8  A    between atoms: C_11  and  C_12
REMARK    9  A    between atoms: C_12  and  C_13
REMARK   10  A    between atoms: C_13  and  O_15
REMARK   11  A    between atoms: N_28  and  C_29
REMARK   12  A    between atoms: N_28  and  C_30
REMARK                            x       y       z     vdW  Elec       q    Type
REMARK                         _______ _______ _______ _____ _____    ______ ____
ROOT
ATOM      1  C   UNL     1       3.789   5.724  18.653  0.00  0.00    +0.000 A 
ATOM      2  C   UNL     1       3.818   6.541  17.510  0.00  0.00    +0.000 A 
ATOM      3  C   UNL     1       3.068   7.725  17.458  0.00  0.00    +0.000 A 
ATOM      4  C   UNL     1       2.301   8.135  18.566  0.00  0.00    +0.000 A 
ATOM      5  C   UNL     1       1.601   9.352  18.612  0.00  0.00    +0.000 A 
ATOM      6  C   UNL     1       0.921   9.745  19.773  0.00  0.00    +0.000 A 
ATOM      7  C   UNL     1       0.923   8.916  20.894  0.00  0.00    +0.000 A 
ATOM      8  C   UNL     1       1.566   7.688  20.845  0.00  0.00    +0.000 A 
ATOM      9  C   UNL     1       2.256   7.300  19.695  0.00  0.00    +0.000 A 
ATOM     10  C   UNL     1       2.943   6.091  19.700  0.00  0.00    +0.000 A 
ENDROOT
BRANCH   1  11
ATOM     11  C   UNL     1       4.707   4.508  18.778  0.00  0.00    +0.000 C 
BRANCH  11  12
ATOM     12  N   UNL     1       5.777   4.494  17.777  0.00  0.00    +0.000 N 
ATOM     13  C   UNL     1       5.607   4.166  16.454  0.00  0.00    +0.000 A 
ATOM     14  C   UNL     1       6.862   4.242  15.897  0.00  0.00    +0.000 A 
ATOM     15  N   UNL     1       7.788   4.596  16.841  0.00  0.00    +0.000 NA
ATOM     16  C   UNL     1       7.114   4.723  17.961  0.00  0.00    +0.000 A 
ENDBRANCH  11  12
BRANCH  11  18
ATOM     17  C   UNL     1       4.400   2.628  20.439  0.00  0.00    +0.000 C 
ATOM     18  C   UNL     1       3.989   3.094  19.015  0.00  0.00    +0.000 C 
BRANCH  18  19
ATOM     19  N   UNL     1       2.504   2.983  18.840  0.00  0.00    +0.000 NA
ATOM     20  C   UNL     1       2.110   2.175  17.683  0.00  0.00    +0.000 C 
ATOM     21  C   UNL     1       1.811   2.457  20.023  0.00  0.00    +0.000 C 
ENDBRANCH  18  19
ENDBRANCH  11  18
ENDBRANCH   1  11
BRANCH   6  22
ATOM     22  O   UNL     1       0.302  10.960  19.705  0.00  0.00    +0.000 OA
BRANCH  22  23
ATOM     23  C   UNL     1      -0.933  11.084  20.425  0.00  0.00    +0.000 C 
BRANCH  23  24
ATOM     24  C   UNL     1      -1.713  12.306  19.914  0.00  0.00    +0.000 C 
ATOM     25  C   UNL     1      -2.918  12.694  20.826  0.00  0.00    +0.000 C 
ATOM     26  C   UNL     1      -2.433  14.152  20.792  0.00  0.00    +0.000 C 
ATOM     27  C   UNL     1      -1.052  13.659  20.332  0.00  0.00    +0.000 C 
BRANCH  24  28
ATOM     28  C   UNL     1      -2.078  12.070  18.392  0.00  0.00    +0.000 C 
ATOM     29  O   UNL     1      -3.050  11.436  17.988  0.00  0.00    +0.000 OA
BRANCH  28  30
ATOM     30  O   UNL     1      -1.228  12.625  17.486  0.00  0.00    +0.000 OA
ATOM     31  H   UNL     1      -0.921  13.521  17.701  0.00  0.00    +0.000 HD
ENDBRANCH  28  30
ENDBRANCH  24  28
ENDBRANCH  23  24
ENDBRANCH  22  23
ENDBRANCH   6  22
TORSDOF 9
ENDMDL
MODEL 6
REMARK VINA RESULT:      -7.6      4.681      9.519
REMARK  Name = 
REMARK  12 active torsions:
REMARK  status: ('A' for Active; 'I' for Inactive)
REMARK    1  A    between atoms: C_1  and  C_2
REMARK    2  A    between atoms: C_2  and  C_3
REMARK    3  A    between atoms: C_2  and  N_28
REMARK    4  A    between atoms: C_3  and  C_4
REMARK    5  A    between atoms: C_3  and  N_23
REMARK    6  A    between atoms: C_9  and  O_10
REMARK    7  A    between atoms: O_10  and  C_11
REMARK    8  A    between atoms: C_11  and  C_12
REMARK    9  A    between atoms: C_12  and  C_13
REMARK   10  A    between atoms: C_13  and  O_15
REMARK   11  A    between atoms: N_28  and  C_29
REMARK   12  A    between atoms: N_28  and  C_30
REMARK                            x       y       z     vdW  Elec       q    Type
REMARK                         _______ _______ _______ _____ _____    ______ ____
ROOT
ATOM      1  C   UNL     1       3.241   6.004  19.159  0.00  0.00    +0.000 A 
ATOM      2  C   UNL     1       3.316   6.742  17.965  0.00  0.00    +0.000 A 
ATOM      3  C   UNL     1       2.633   7.959  17.833  0.00  0.00    +0.000 A 
ATOM      4  C   UNL     1       1.890   8.483  18.908  0.00  0.00    +0.000 A 
ATOM      5  C   UNL     1       1.259   9.737  18.871  0.00  0.00    +0.000 A 
ATOM      6  C   UNL     1       0.602  10.243  20.002  0.00  0.00    +0.000 A 
ATOM      7  C   UNL     1       0.556   9.491  21.174  0.00  0.00    +0.000 A 
ATOM      8  C   UNL     1       1.129   8.228  21.208  0.00  0.00    +0.000 A 
ATOM      9  C   UNL     1       1.797   7.728  20.090  0.00  0.00    +0.000 A 
ATOM     10  C   UNL     1       2.415   6.486  20.176  0.00  0.00    +0.000 A 
ENDROOT
BRANCH   1  11
ATOM     11  C   UNL     1       4.089   4.750  19.368  0.00  0.00    +0.000 C 
BRANCH  11  12
ATOM     12  N   UNL     1       5.385   4.816  18.687  0.00  0.00    +0.000 N 
ATOM     13  C   UNL     1       6.508   5.420  19.198  0.00  0.00    +0.000 A 
ATOM     14  C   UNL     1       7.468   5.286  18.223  0.00  0.00    +0.000 A 
ATOM     15  N   UNL     1       6.962   4.629  17.134  0.00  0.00    +0.000 NA
ATOM     16  C   UNL     1       5.707   4.376  17.432  0.00  0.00    +0.000 A 
ENDBRANCH  11  12
BRANCH  11  18
ATOM     17  C   UNL     1       4.157   2.318  20.054  0.00  0.00    +0.000 C 
ATOM     18  C   UNL     1       3.330   3.344  19.231  0.00  0.00    +0.000 C 
BRANCH  18  19
ATOM     19  N   UNL     1       1.878   3.253  19.596  0.00  0.00    +0.000 NA
ATOM     20  C   UNL     1       1.086   2.460  18.651  0.00  0.00    +0.000 C 
ATOM     21  C   UNL     1       1.643   2.725  20.945  0.00  0.00    +0.000 C 
ENDBRANCH  18  19
ENDBRANCH  11  18
ENDBRANCH   1  11
BRANCH   6  22
ATOM     22  O   UNL     1       0.051  11.484  19.852  0.00  0.00    +0.000 OA
BRANCH  22  23
ATOM     23  C   UNL     1      -1.381  11.552  19.896  0.00  0.00    +0.000 C 
BRANCH  23  24
ATOM     24  C   UNL     1      -1.822  12.535  20.993  0.00  0.00    +0.000 C 
ATOM     25  C   UNL     1      -1.867  11.894  22.414  0.00  0.00    +0.000 C 
ATOM     26  C   UNL     1      -1.076  13.099  22.948  0.00  0.00    +0.000 C 
ATOM     27  C   UNL     1      -0.647  13.427  21.508  0.00  0.00    +0.000 C 
BRANCH  24  28
ATOM     28  C   UNL     1      -3.168  13.231  20.533  0.00  0.00    +0.000 C 
ATOM     29  O   UNL     1      -3.727  14.150  21.126  0.00  0.00    +0.000 OA
BRANCH  28  30
ATOM     30  O   UNL     1      -3.722  12.750  19.387  0.00  0.00    +0.000 OA
ATOM     31  H   UNL     1      -4.632  13.045  19.212  0.00  0.00    +0.000 HD
ENDBRANCH  28  30
ENDBRANCH  24  28
ENDBRANCH  23  24
ENDBRANCH  22  23
ENDBRANCH   6  22
TORSDOF 9
ENDMDL
MODEL 7
REMARK VINA RESULT:      -7.6      2.484      3.489
REMARK  Name = 
REMARK  12 active torsions:
REMARK  status: ('A' for Active; 'I' for Inactive)
REMARK    1  A    between atoms: C_1  and  C_2
REMARK    2  A    between atoms: C_2  and  C_3
REMARK    3  A    between atoms: C_2  and  N_28
REMARK    4  A    between atoms: C_3  and  C_4
REMARK    5  A    between atoms: C_3  and  N_23
REMARK    6  A    between atoms: C_9  and  O_10
REMARK    7  A    between atoms: O_10  and  C_11
REMARK    8  A    between atoms: C_11  and  C_12
REMARK    9  A    between atoms: C_12  and  C_13
REMARK   10  A    between atoms: C_13  and  O_15
REMARK   11  A    between atoms: N_28  and  C_29
REMARK   12  A    between atoms: N_28  and  C_30
REMARK                            x       y       z     vdW  Elec       q    Type
REMARK                         _______ _______ _______ _____ _____    ______ ____
ROOT
ATOM      1  C   UNL     1       0.388   9.922  19.425  0.00  0.00    +0.000 A 
ATOM      2  C   UNL     1       1.012  10.106  18.178  0.00  0.00    +0.000 A 
ATOM      3  C   UNL     1       1.977   9.197  17.721  0.00  0.00    +0.000 A 
ATOM      4  C   UNL     1       2.312   8.063  18.485  0.00  0.00    +0.000 A 
ATOM      5  C   UNL     1       3.201   7.070  18.044  0.00  0.00    +0.000 A 
ATOM      6  C   UNL     1       3.434   5.921  18.814  0.00  0.00    +0.000 A 
ATOM      7  C   UNL     1       2.790   5.765  20.040  0.00  0.00    +0.000 A 
ATOM      8  C   UNL     1       1.949   6.761  20.513  0.00  0.00    +0.000 A 
ATOM      9  C   UNL     1       1.704   7.899  19.742  0.00  0.00    +0.000 A 
ATOM     10  C   UNL     1       0.808   8.851  20.215  0.00  0.00    +0.000 A 
ENDROOT
BRANCH   1  11
ATOM     11  C   UNL     1      -0.762  10.822  19.873  0.00  0.00    +0.000 C 
BRANCH  11  12
ATOM     12  N   UNL     1      -1.861  10.870  18.905  0.00  0.00    +0.000 N 
ATOM     13  C   UNL     1      -2.767  11.897  18.800  0.00  0.00    +0.000 A 
ATOM     14  C   UNL     1      -3.636  11.513  17.806  0.00  0.00    +0.000 A 
ATOM     15  N   UNL     1      -3.292  10.284  17.311  0.00  0.00    +0.000 NA
ATOM     16  C   UNL     1      -2.237   9.914  18.000  0.00  0.00    +0.000 A 
ENDBRANCH  11  12
BRANCH  11  18
ATOM     17  C   UNL     1      -0.310  12.044  22.039  0.00  0.00    +0.000 C 
ATOM     18  C   UNL     1      -0.355  12.241  20.499  0.00  0.00    +0.000 C 
BRANCH  18  19
ATOM     19  N   UNL     1       0.894  12.924  20.026  0.00  0.00    +0.000 NA
ATOM     20  C   UNL     1       0.706  13.704  18.799  0.00  0.00    +0.000 C 
ATOM     21  C   UNL     1       1.504  13.798  21.035  0.00  0.00    +0.000 C 
ENDBRANCH  18  19
ENDBRANCH  11  18
ENDBRANCH   1  11
BRANCH   6  22
ATOM     22  O   UNL     1       4.297   5.015  18.267  0.00  0.00    +0.000 OA
BRANCH  22  23
ATOM     23  C   UNL     1       4.741   5.287  16.931  0.00  0.00    +0.000 C 
BRANCH  23  24
ATOM     24  C   UNL     1       6.269   5.446  16.911  0.00  0.00    +0.000 C 
ATOM     25  C   UNL     1       6.743   6.896  17.240  0.00  0.00    +0.000 C 
ATOM     26  C   UNL     1       7.746   6.306  18.244  0.00  0.00    +0.000 C 
ATOM     27  C   UNL     1       6.937   4.999  18.252  0.00  0.00    +0.000 C 
BRANCH  24  28
ATOM     28  C   UNL     1       6.819   4.858  15.548  0.00  0.00    +0.000 C 
ATOM     29  O   UNL     1       6.444   3.811  15.027  0.00  0.00    +0.000 OA
BRANCH  28  30
ATOM     30  O   UNL     1       7.783   5.595  14.931  0.00  0.00    +0.000 OA
ATOM     31  H   UNL     1       8.037   5.285  14.045  0.00  0.00    +0.000 HD
ENDBRANCH  28  30
ENDBRANCH  24  28
ENDBRANCH  23  24
ENDBRANCH  22  23
ENDBRANCH   6  22
TORSDOF 9
ENDMDL
MODEL 8
REMARK VINA RESULT:      -7.6      4.533      8.850
REMARK  Name = 
REMARK  12 active torsions:
REMARK  status: ('A' for Active; 'I' for Inactive)
REMARK    1  A    between atoms: C_1  and  C_2
REMARK    2  A    between atoms: C_2  and  C_3
REMARK    3  A    between atoms: C_2  and  N_28
REMARK    4  A    between atoms: C_3  and  C_4
REMARK    5  A    between atoms: C_3  and  N_23
REMARK    6  A    between atoms: C_9  and  O_10
REMARK    7  A    between atoms: O_10  and  C_11
REMARK    8  A    between atoms: C_11  and  C_12
REMARK    9  A    between atoms: C_12  and  C_13
REMARK   10  A    between atoms: C_13  and  O_15
REMARK   11  A    between atoms: N_28  and  C_29
REMARK   12  A    between atoms: N_28  and  C_30
REMARK                            x       y       z     vdW  Elec       q    Type
REMARK                         _______ _______ _______ _____ _____    ______ ____
ROOT
ATOM      1  C   UNL     1       3.187   6.326  18.308  0.00  0.00    +0.000 A 
ATOM      2  C   UNL     1       2.876   6.019  19.644  0.00  0.00    +0.000 A 
ATOM      3  C   UNL     1       2.158   6.924  20.438  0.00  0.00    +0.000 A 
ATOM      4  C   UNL     1       1.702   8.142  19.899  0.00  0.00    +0.000 A 
ATOM      5  C   UNL     1       0.901   9.050  20.612  0.00  0.00    +0.000 A 
ATOM      6  C   UNL     1       0.409  10.209  19.997  0.00  0.00    +0.000 A 
ATOM      7  C   UNL     1       0.726  10.479  18.667  0.00  0.00    +0.000 A 
ATOM      8  C   UNL     1       1.558   9.619  17.966  0.00  0.00    +0.000 A 
ATOM      9  C   UNL     1       2.039   8.456  18.571  0.00  0.00    +0.000 A 
ATOM     10  C   UNL     1       2.819   7.582  17.822  0.00  0.00    +0.000 A 
ENDROOT
BRANCH   1  11
ATOM     11  C   UNL     1       3.845   5.295  17.392  0.00  0.00    +0.000 C 
BRANCH  11  12
ATOM     12  N   UNL     1       3.369   3.930  17.633  0.00  0.00    +0.000 N 
ATOM     13  C   UNL     1       4.145   2.905  18.118  0.00  0.00    +0.000 A 
ATOM     14  C   UNL     1       3.318   1.807  18.147  0.00  0.00    +0.000 A 
ATOM     15  N   UNL     1       2.070   2.130  17.687  0.00  0.00    +0.000 NA
ATOM     16  C   UNL     1       2.134   3.403  17.369  0.00  0.00    +0.000 A 
ENDBRANCH  11  12
BRANCH  11  18
ATOM     17  C   UNL     1       5.648   5.844  15.708  0.00  0.00    +0.000 C 
ATOM     18  C   UNL     1       5.430   5.429  17.189  0.00  0.00    +0.000 C 
BRANCH  18  19
ATOM     19  N   UNL     1       6.216   6.323  18.101  0.00  0.00    +0.000 NA
ATOM     20  C   UNL     1       7.008   5.595  19.096  0.00  0.00    +0.000 C 
ATOM     21  C   UNL     1       7.111   7.245  17.391  0.00  0.00    +0.000 C 
ENDBRANCH  18  19
ENDBRANCH  11  18
ENDBRANCH   1  11
BRANCH   6  22
ATOM     22  O   UNL     1      -0.380  10.999  20.784  0.00  0.00    +0.000 OA
BRANCH  22  23
ATOM     23  C   UNL     1      -1.082  12.058  20.119  0.00  0.00    +0.000 C 
BRANCH  23  24
ATOM     24  C   UNL     1      -2.034  12.753  21.107  0.00  0.00    +0.000 C 
ATOM     25  C   UNL     1      -2.061  14.305  20.948  0.00  0.00    +0.000 C 
ATOM     26  C   UNL     1      -3.598  14.245  20.949  0.00  0.00    +0.000 C 
ATOM     27  C   UNL     1      -3.517  12.747  20.616  0.00  0.00    +0.000 C 
BRANCH  24  28
ATOM     28  C   UNL     1      -1.707  12.238  22.567  0.00  0.00    +0.000 C 
ATOM     29  O   UNL     1      -2.489  11.630  23.294  0.00  0.00    +0.000 OA
BRANCH  28  30
ATOM     30  O   UNL     1      -0.454  12.506  23.024  0.00  0.00    +0.000 OA
ATOM     31  H   UNL     1      -0.210  13.447  23.036  0.00  0.00    +0.000 HD
ENDBRANCH  28  30
ENDBRANCH  24  28
ENDBRANCH  23  24
ENDBRANCH  22  23
ENDBRANCH   6  22
TORSDOF 9
ENDMDL
MODEL 9
REMARK VINA RESULT:      -7.6      4.516      9.484
REMARK  Name = 
REMARK  12 active torsions:
REMARK  status: ('A' for Active; 'I' for Inactive)
REMARK    1  A    between atoms: C_1  and  C_2
REMARK    2  A    between atoms: C_2  and  C_3
REMARK    3  A    between atoms: C_2  and  N_28
REMARK    4  A    between atoms: C_3  and  C_4
REMARK    5  A    between atoms: C_3  and  N_23
REMARK    6  A    between atoms: C_9  and  O_10
REMARK    7  A    between atoms: O_10  and  C_11
REMARK    8  A    between atoms: C_11  and  C_12
REMARK    9  A    between atoms: C_12  and  C_13
REMARK   10  A    between atoms: C_13  and  O_15
REMARK   11  A    between atoms: N_28  and  C_29
REMARK   12  A    between atoms: N_28  and  C_30
REMARK                            x       y       z     vdW  Elec       q    Type
REMARK                         _______ _______ _______ _____ _____    ______ ____
ROOT
ATOM      1  C   UNL     1       3.306   5.932  19.268  0.00  0.00    +0.000 A 
ATOM      2  C   UNL     1       3.376   6.634  18.052  0.00  0.00    +0.000 A 
ATOM      3  C   UNL     1       2.675   7.835  17.879  0.00  0.00    +0.000 A 
ATOM      4  C   UNL     1       1.917   8.380  18.933  0.00  0.00    +0.000 A 
ATOM      5  C   UNL     1       1.266   9.622  18.854  0.00  0.00    +0.000 A 
ATOM      6  C   UNL     1       0.593  10.151  19.965  0.00  0.00    +0.000 A 
ATOM      7  C   UNL     1       0.552   9.435  21.159  0.00  0.00    +0.000 A 
ATOM      8  C   UNL     1       1.146   8.184  21.236  0.00  0.00    +0.000 A 
ATOM      9  C   UNL     1       1.829   7.660  20.137  0.00  0.00    +0.000 A 
ATOM     10  C   UNL     1       2.467   6.431  20.265  0.00  0.00    +0.000 A 
ENDROOT
BRANCH   1  11
ATOM     11  C   UNL     1       4.173   4.699  19.520  0.00  0.00    +0.000 C 
BRANCH  11  12
ATOM     12  N   UNL     1       5.484   4.779  18.869  0.00  0.00    +0.000 N 
ATOM     13  C   UNL     1       5.782   4.238  17.642  0.00  0.00    +0.000 A 
ATOM     14  C   UNL     1       7.116   4.508  17.441  0.00  0.00    +0.000 A 
ATOM     15  N   UNL     1       7.637   5.186  18.510  0.00  0.00    +0.000 NA
ATOM     16  C   UNL     1       6.642   5.319  19.358  0.00  0.00    +0.000 A 
ENDBRANCH  11  12
BRANCH  11  18
ATOM     17  C   UNL     1       2.989   2.888  20.826  0.00  0.00    +0.000 C 
ATOM     18  C   UNL     1       3.445   3.276  19.393  0.00  0.00    +0.000 C 
BRANCH  18  19
ATOM     19  N   UNL     1       2.310   3.114  18.425  0.00  0.00    +0.000 NA
ATOM     20  C   UNL     1       2.610   2.198  17.321  0.00  0.00    +0.000 C 
ATOM     21  C   UNL     1       1.059   2.676  19.055  0.00  0.00    +0.000 C 
ENDBRANCH  18  19
ENDBRANCH  11  18
ENDBRANCH   1  11
BRANCH   6  22
ATOM     22  O   UNL     1       0.023  11.378  19.773  0.00  0.00    +0.000 OA
BRANCH  22  23
ATOM     23  C   UNL     1      -1.023  11.740  20.684  0.00  0.00    +0.000 C 
BRANCH  23  24
ATOM     24  C   UNL     1      -1.913  12.823  20.052  0.00  0.00    +0.000 C 
ATOM     25  C   UNL     1      -3.348  12.318  19.708  0.00  0.00    +0.000 C 
ATOM     26  C   UNL     1      -3.919  13.566  20.401  0.00  0.00    +0.000 C 
ATOM     27  C   UNL     1      -2.573  13.756  21.118  0.00  0.00    +0.000 C 
BRANCH  24  28
ATOM     28  C   UNL     1      -1.129  13.476  18.842  0.00  0.00    +0.000 C 
ATOM     29  O   UNL     1      -0.485  14.520  18.898  0.00  0.00    +0.000 OA
BRANCH  28  30
ATOM     30  O   UNL     1      -1.193  12.802  17.661  0.00  0.00    +0.000 OA
ATOM     31  H   UNL     1      -1.827  13.157  17.016  0.00  0.00    +0.000 HD
ENDBRANCH  28  30
ENDBRANCH  24  28
ENDBRANCH  23  24
ENDBRANCH  22  23
ENDBRANCH   6  22
TORSDOF 9
ENDMDL
