MODEL 1
REMARK VINA RESULT:      -6.8      0.000      0.000
REMARK  Name = 
REMARK  13 active torsions:
REMARK  status: ('A' for Active; 'I' for Inactive)
REMARK    1  A    between atoms: C_1  and  C_2
REMARK    2  A    between atoms: C_2  and  C_3
REMARK    3  A    between atoms: C_3  and  C_4
REMARK    4  A    between atoms: C_4  and  N_5
REMARK    5  A    between atoms: N_5  and  C_6
REMARK    6  A    between atoms: N_5  and  C_11
REMARK    7  A    between atoms: C_6  and  C_7
REMARK    8  A    between atoms: C_7  and  C_8
REMARK    9  A    between atoms: C_8  and  O_9
REMARK   10  A    between atoms: O_9  and  C_10
REMARK   11  A    between atoms: C_13  and  C_14
REMARK   12  A    between atoms: C_17  and  C_18
REMARK   13  A    between atoms: N_27  and  C_28
REMARK                            x       y       z     vdW  Elec       q    Type
REMARK                         _______ _______ _______ _____ _____    ______ ____
ROOT
ATOM      1  C   UNL     1       3.929   4.963  18.711  0.00  0.00    +0.000 A 
ATOM      2  C   UNL     1       3.488   4.074  19.707  0.00  0.00    +0.000 A 
ATOM      3  C   UNL     1       2.537   4.436  20.663  0.00  0.00    +0.000 A 
ATOM      4  C   UNL     1       2.063   3.435  21.678  0.00  0.00    +0.000 C 
ATOM      5  N   UNL     1       1.982   5.657  20.733  0.00  0.00    +0.000 NA
ATOM      6  C   UNL     1       2.421   6.554  19.814  0.00  0.00    +0.000 A 
ATOM      7  C   UNL     1       2.054   7.922  19.624  0.00  0.00    +0.000 A 
ATOM      8  N   UNL     1       2.792   8.456  18.643  0.00  0.00    +0.000 NA
ATOM      9  N   UNL     1       3.452   7.418  18.104  0.00  0.00    +0.000 N 
ATOM     10  C   UNL     1       4.150   7.688  16.867  0.00  0.00    +0.000 C 
ATOM     11  C   UNL     1       3.359   6.253  18.824  0.00  0.00    +0.000 A 
ENDROOT
BRANCH   7  12
ATOM     12  C   UNL     1       1.087   8.742  20.366  0.00  0.00    +0.000 A 
ATOM     13  C   UNL     1       1.036   8.640  21.769  0.00  0.00    +0.000 A 
ATOM     14  C   UNL     1       0.170   9.439  22.523  0.00  0.00    +0.000 A 
ATOM     15  C   UNL     1      -0.653  10.359  21.882  0.00  0.00    +0.000 A 
ATOM     16 CL   UNL     1      -1.694  11.368  22.807  0.00  0.00    +0.000 Cl
ATOM     17  C   UNL     1      -0.640  10.465  20.497  0.00  0.00    +0.000 A 
ATOM     18  C   UNL     1       0.211   9.655  19.737  0.00  0.00    +0.000 A 
ATOM     19 CL   UNL     1       0.054   9.829  18.017  0.00  0.00    +0.000 Cl
ENDBRANCH   7  12
BRANCH   1  20
ATOM     20  N   UNL     1       4.802   4.571  17.688  0.00  0.00    +0.000 N 
BRANCH  20  21
ATOM     21  C   UNL     1       4.254   3.898  16.494  0.00  0.00    +0.000 C 
BRANCH  21  22
ATOM     22  C   UNL     1       4.757   4.474  15.159  0.00  0.00    +0.000 C 
BRANCH  22  24
ATOM     23  C   UNL     1       7.030   4.837  14.169  0.00  0.00    +0.000 C 
ATOM     24  C   UNL     1       5.996   3.790  14.574  0.00  0.00    +0.000 C 
ENDBRANCH  22  24
ENDBRANCH  21  22
ENDBRANCH  20  21
BRANCH  20  25
ATOM     25  C   UNL     1       6.139   4.114  18.143  0.00  0.00    +0.000 C 
BRANCH  25  26
ATOM     26  C   UNL     1       7.289   5.078  17.850  0.00  0.00    +0.000 C 
BRANCH  26  27
ATOM     27  C   UNL     1       7.688   5.862  19.107  0.00  0.00    +0.000 C 
BRANCH  27  28
ATOM     28  O   UNL     1       8.295   7.098  18.728  0.00  0.00    +0.000 OA
ATOM     29  C   UNL     1       7.679   7.686  17.590  0.00  0.00    +0.000 C 
ENDBRANCH  27  28
ENDBRANCH  26  27
ENDBRANCH  25  26
ENDBRANCH  20  25
ENDBRANCH   1  20
TORSDOF 9
ENDMDL
MODEL 2
REMARK VINA RESULT:      -6.7      1.837      3.234
REMARK  Name = 
REMARK  13 active torsions:
REMARK  status: ('A' for Active; 'I' for Inactive)
REMARK    1  A    between atoms: C_1  and  C_2
REMARK    2  A    between atoms: C_2  and  C_3
REMARK    3  A    between atoms: C_3  and  C_4
REMARK    4  A    between atoms: C_4  and  N_5
REMARK    5  A    between atoms: N_5  and  C_6
REMARK    6  A    between atoms: N_5  and  C_11
REMARK    7  A    between atoms: C_6  and  C_7
REMARK    8  A    between atoms: C_7  and  C_8
REMARK    9  A    between atoms: C_8  and  O_9
REMARK   10  A    between atoms: O_9  and  C_10
REMARK   11  A    between atoms: C_13  and  C_14
REMARK   12  A    between atoms: C_17  and  C_18
REMARK   13  A    between atoms: N_27  and  C_28
REMARK                            x       y       z     vdW  Elec       q    Type
REMARK                         _______ _______ _______ _____ _____    ______ ____
ROOT
ATOM      1  C   UNL     1       4.094   4.777  18.483  0.00  0.00    +0.000 A 
ATOM      2  C   UNL     1       3.405   4.078  19.489  0.00  0.00    +0.000 A 
ATOM      3  C   UNL     1       2.326   4.633  20.179  0.00  0.00    +0.000 A 
ATOM      4  C   UNL     1       1.591   3.828  21.213  0.00  0.00    +0.000 C 
ATOM      5  N   UNL     1       1.869   5.878  19.965  0.00  0.00    +0.000 NA
ATOM      6  C   UNL     1       2.543   6.598  19.032  0.00  0.00    +0.000 A 
ATOM      7  C   UNL     1       2.331   7.937  18.582  0.00  0.00    +0.000 A 
ATOM      8  N   UNL     1       3.278   8.274  17.699  0.00  0.00    +0.000 NA
ATOM      9  N   UNL     1       3.941   7.131  17.452  0.00  0.00    +0.000 N 
ATOM     10  C   UNL     1       4.875   7.169  16.351  0.00  0.00    +0.000 C 
ATOM     11  C   UNL     1       3.621   6.098  18.298  0.00  0.00    +0.000 A 
ENDROOT
BRANCH   7  12
ATOM     12  C   UNL     1       1.312   8.912  18.996  0.00  0.00    +0.000 A 
ATOM     13  C   UNL     1       0.607   9.627  18.010  0.00  0.00    +0.000 A 
ATOM     14  C   UNL     1      -0.408  10.526  18.353  0.00  0.00    +0.000 A 
ATOM     15  C   UNL     1      -0.739  10.716  19.690  0.00  0.00    +0.000 A 
ATOM     16 CL   UNL     1      -2.009  11.793  20.115  0.00  0.00    +0.000 Cl
ATOM     17  C   UNL     1      -0.044  10.040  20.686  0.00  0.00    +0.000 A 
ATOM     18  C   UNL     1       0.985   9.154  20.348  0.00  0.00    +0.000 A 
ATOM     19 CL   UNL     1       1.826   8.453  21.696  0.00  0.00    +0.000 Cl
ENDBRANCH   7  12
BRANCH   1  20
ATOM     20  N   UNL     1       5.107   4.186  17.717  0.00  0.00    +0.000 N 
BRANCH  20  21
ATOM     21  C   UNL     1       6.509   4.592  17.943  0.00  0.00    +0.000 C 
BRANCH  21  22
ATOM     22  C   UNL     1       6.748   5.315  19.280  0.00  0.00    +0.000 C 
BRANCH  22  24
ATOM     23  C   UNL     1       7.935   7.233  18.189  0.00  0.00    +0.000 C 
ATOM     24  C   UNL     1       7.984   6.217  19.326  0.00  0.00    +0.000 C 
ENDBRANCH  22  24
ENDBRANCH  21  22
ENDBRANCH  20  21
BRANCH  20  25
ATOM     25  C   UNL     1       4.734   3.872  16.315  0.00  0.00    +0.000 C 
BRANCH  25  26
ATOM     26  C   UNL     1       5.906   3.544  15.389  0.00  0.00    +0.000 C 
BRANCH  26  27
ATOM     27  C   UNL     1       5.955   4.508  14.197  0.00  0.00    +0.000 C 
BRANCH  27  28
ATOM     28  O   UNL     1       6.579   3.863  13.086  0.00  0.00    +0.000 OA
ATOM     29  C   UNL     1       5.646   3.209  12.236  0.00  0.00    +0.000 C 
ENDBRANCH  27  28
ENDBRANCH  26  27
ENDBRANCH  25  26
ENDBRANCH  20  25
ENDBRANCH   1  20
TORSDOF 9
ENDMDL
MODEL 3
REMARK VINA RESULT:      -6.7      1.326      2.721
REMARK  Name = 
REMARK  13 active torsions:
REMARK  status: ('A' for Active; 'I' for Inactive)
REMARK    1  A    between atoms: C_1  and  C_2
REMARK    2  A    between atoms: C_2  and  C_3
REMARK    3  A    between atoms: C_3  and  C_4
REMARK    4  A    between atoms: C_4  and  N_5
REMARK    5  A    between atoms: N_5  and  C_6
REMARK    6  A    between atoms: N_5  and  C_11
REMARK    7  A    between atoms: C_6  and  C_7
REMARK    8  A    between atoms: C_7  and  C_8
REMARK    9  A    between atoms: C_8  and  O_9
REMARK   10  A    between atoms: O_9  and  C_10
REMARK   11  A    between atoms: C_13  and  C_14
REMARK   12  A    between atoms: C_17  and  C_18
REMARK   13  A    between atoms: N_27  and  C_28
REMARK                            x       y       z     vdW  Elec       q    Type
REMARK                         _______ _______ _______ _____ _____    ______ ____
ROOT
ATOM      1  C   UNL     1       3.988   4.581  18.841  0.00  0.00    +0.000 A 
ATOM      2  C   UNL     1       3.458   3.752  19.844  0.00  0.00    +0.000 A 
ATOM      3  C   UNL     1       2.481   4.194  20.738  0.00  0.00    +0.000 A 
ATOM      4  C   UNL     1       1.911   3.255  21.764  0.00  0.00    +0.000 C 
ATOM      5  N   UNL     1       1.982   5.441  20.736  0.00  0.00    +0.000 NA
ATOM      6  C   UNL     1       2.507   6.281  19.808  0.00  0.00    +0.000 A 
ATOM      7  C   UNL     1       2.215   7.656  19.551  0.00  0.00    +0.000 A 
ATOM      8  N   UNL     1       3.024   8.118  18.590  0.00  0.00    +0.000 NA
ATOM      9  N   UNL     1       3.659   7.031  18.122  0.00  0.00    +0.000 N 
ATOM     10  C   UNL     1       4.427   7.221  16.913  0.00  0.00    +0.000 C 
ATOM     11  C   UNL     1       3.476   5.900  18.878  0.00  0.00    +0.000 A 
ENDROOT
BRANCH   7  12
ATOM     12  C   UNL     1       1.253   8.547  20.214  0.00  0.00    +0.000 A 
ATOM     13  C   UNL     1       1.104   8.477  21.612  0.00  0.00    +0.000 A 
ATOM     14  C   UNL     1       0.242   9.341  22.293  0.00  0.00    +0.000 A 
ATOM     15  C   UNL     1      -0.479  10.296  21.585  0.00  0.00    +0.000 A 
ATOM     16 CL   UNL     1      -1.515  11.384  22.422  0.00  0.00    +0.000 Cl
ATOM     17  C   UNL     1      -0.369  10.374  20.203  0.00  0.00    +0.000 A 
ATOM     18  C   UNL     1       0.479   9.499  19.514  0.00  0.00    +0.000 A 
ATOM     19 CL   UNL     1       0.446   9.649  17.784  0.00  0.00    +0.000 Cl
ENDBRANCH   7  12
BRANCH   1  20
ATOM     20  N   UNL     1       4.890   4.111  17.877  0.00  0.00    +0.000 N 
BRANCH  20  21
ATOM     21  C   UNL     1       6.300   4.545  17.940  0.00  0.00    +0.000 C 
BRANCH  21  22
ATOM     22  C   UNL     1       6.681   5.261  19.246  0.00  0.00    +0.000 C 
BRANCH  22  24
ATOM     23  C   UNL     1       7.799   7.088  17.947  0.00  0.00    +0.000 C 
ATOM     24  C   UNL     1       7.909   6.172  19.162  0.00  0.00    +0.000 C 
ENDBRANCH  22  24
ENDBRANCH  21  22
ENDBRANCH  20  21
BRANCH  20  25
ATOM     25  C   UNL     1       4.320   3.926  16.519  0.00  0.00    +0.000 C 
BRANCH  25  26
ATOM     26  C   UNL     1       5.314   3.456  15.456  0.00  0.00    +0.000 C 
BRANCH  26  27
ATOM     27  C   UNL     1       5.459   4.495  14.336  0.00  0.00    +0.000 C 
BRANCH  27  28
ATOM     28  O   UNL     1       6.588   4.169  13.525  0.00  0.00    +0.000 OA
ATOM     29  C   UNL     1       6.230   3.461  12.346  0.00  0.00    +0.000 C 
ENDBRANCH  27  28
ENDBRANCH  26  27
ENDBRANCH  25  26
ENDBRANCH  20  25
ENDBRANCH   1  20
TORSDOF 9
ENDMDL
MODEL 4
REMARK VINA RESULT:      -6.6      1.063      1.942
REMARK  Name = 
REMARK  13 active torsions:
REMARK  status: ('A' for Active; 'I' for Inactive)
REMARK    1  A    between atoms: C_1  and  C_2
REMARK    2  A    between atoms: C_2  and  C_3
REMARK    3  A    between atoms: C_3  and  C_4
REMARK    4  A    between atoms: C_4  and  N_5
REMARK    5  A    between atoms: N_5  and  C_6
REMARK    6  A    between atoms: N_5  and  C_11
REMARK    7  A    between atoms: C_6  and  C_7
REMARK    8  A    between atoms: C_7  and  C_8
REMARK    9  A    between atoms: C_8  and  O_9
REMARK   10  A    between atoms: O_9  and  C_10
REMARK   11  A    between atoms: C_13  and  C_14
REMARK   12  A    between atoms: C_17  and  C_18
REMARK   13  A    between atoms: N_27  and  C_28
REMARK                            x       y       z     vdW  Elec       q    Type
REMARK                         _______ _______ _______ _____ _____    ______ ____
ROOT
ATOM      1  C   UNL     1       3.793   5.010  18.804  0.00  0.00    +0.000 A 
ATOM      2  C   UNL     1       3.417   4.159  19.857  0.00  0.00    +0.000 A 
ATOM      3  C   UNL     1       2.519   4.552  20.851  0.00  0.00    +0.000 A 
ATOM      4  C   UNL     1       2.112   3.589  21.930  0.00  0.00    +0.000 C 
ATOM      5  N   UNL     1       1.959   5.771  20.905  0.00  0.00    +0.000 NA
ATOM      6  C   UNL     1       2.337   6.634  19.928  0.00  0.00    +0.000 A 
ATOM      7  C   UNL     1       1.948   7.991  19.706  0.00  0.00    +0.000 A 
ATOM      8  N   UNL     1       2.624   8.491  18.665  0.00  0.00    +0.000 NA
ATOM      9  N   UNL     1       3.262   7.437  18.129  0.00  0.00    +0.000 N 
ATOM     10  C   UNL     1       3.885   7.662  16.846  0.00  0.00    +0.000 C 
ATOM     11  C   UNL     1       3.220   6.300  18.898  0.00  0.00    +0.000 A 
ENDROOT
BRANCH   7  12
ATOM     12  C   UNL     1       1.017   8.834  20.469  0.00  0.00    +0.000 A 
ATOM     13  C   UNL     1       1.006   8.744  21.874  0.00  0.00    +0.000 A 
ATOM     14  C   UNL     1       0.178   9.564  22.646  0.00  0.00    +0.000 A 
ATOM     15  C   UNL     1      -0.648  10.493  22.023  0.00  0.00    +0.000 A 
ATOM     16 CL   UNL     1      -1.644  11.527  22.970  0.00  0.00    +0.000 Cl
ATOM     17  C   UNL     1      -0.675  10.588  20.637  0.00  0.00    +0.000 A 
ATOM     18  C   UNL     1       0.139   9.757  19.860  0.00  0.00    +0.000 A 
ATOM     19 CL   UNL     1      -0.067   9.920  18.143  0.00  0.00    +0.000 Cl
ENDBRANCH   7  12
BRANCH   1  20
ATOM     20  N   UNL     1       4.610   4.584  17.749  0.00  0.00    +0.000 N 
BRANCH  20  21
ATOM     21  C   UNL     1       4.133   3.505  16.860  0.00  0.00    +0.000 C 
BRANCH  21  22
ATOM     22  C   UNL     1       2.623   3.227  16.962  0.00  0.00    +0.000 C 
BRANCH  22  24
ATOM     23  C   UNL     1       0.960   2.212  18.537  0.00  0.00    +0.000 C 
ATOM     24  C   UNL     1       2.239   1.966  17.740  0.00  0.00    +0.000 C 
ENDBRANCH  22  24
ENDBRANCH  21  22
ENDBRANCH  20  21
BRANCH  20  25
ATOM     25  C   UNL     1       6.067   4.602  18.034  0.00  0.00    +0.000 C 
BRANCH  25  26
ATOM     26  C   UNL     1       6.901   5.476  17.097  0.00  0.00    +0.000 C 
BRANCH  26  27
ATOM     27  C   UNL     1       7.602   6.602  17.869  0.00  0.00    +0.000 C 
BRANCH  27  28
ATOM     28  O   UNL     1       7.545   7.810  17.110  0.00  0.00    +0.000 OA
ATOM     29  C   UNL     1       8.022   8.936  17.834  0.00  0.00    +0.000 C 
ENDBRANCH  27  28
ENDBRANCH  26  27
ENDBRANCH  25  26
ENDBRANCH  20  25
ENDBRANCH   1  20
TORSDOF 9
ENDMDL
MODEL 5
REMARK VINA RESULT:      -6.6      1.322      1.716
REMARK  Name = 
REMARK  13 active torsions:
REMARK  status: ('A' for Active; 'I' for Inactive)
REMARK    1  A    between atoms: C_1  and  C_2
REMARK    2  A    between atoms: C_2  and  C_3
REMARK    3  A    between atoms: C_3  and  C_4
REMARK    4  A    between atoms: C_4  and  N_5
REMARK    5  A    between atoms: N_5  and  C_6
REMARK    6  A    between atoms: N_5  and  C_11
REMARK    7  A    between atoms: C_6  and  C_7
REMARK    8  A    between atoms: C_7  and  C_8
REMARK    9  A    between atoms: C_8  and  O_9
REMARK   10  A    between atoms: O_9  and  C_10
REMARK   11  A    between atoms: C_13  and  C_14
REMARK   12  A    between atoms: C_17  and  C_18
REMARK   13  A    between atoms: N_27  and  C_28
REMARK                            x       y       z     vdW  Elec       q    Type
REMARK                         _______ _______ _______ _____ _____    ______ ____
ROOT
ATOM      1  C   UNL     1       4.149   5.151  18.468  0.00  0.00    +0.000 A 
ATOM      2  C   UNL     1       3.567   4.451  19.538  0.00  0.00    +0.000 A 
ATOM      3  C   UNL     1       2.490   4.960  20.266  0.00  0.00    +0.000 A 
ATOM      4  C   UNL     1       1.872   4.153  21.372  0.00  0.00    +0.000 C 
ATOM      5  N   UNL     1       1.935   6.160  20.029  0.00  0.00    +0.000 NA
ATOM      6  C   UNL     1       2.505   6.883  19.031  0.00  0.00    +0.000 A 
ATOM      7  C   UNL     1       2.174   8.183  18.540  0.00  0.00    +0.000 A 
ATOM      8  N   UNL     1       3.046   8.545  17.592  0.00  0.00    +0.000 NA
ATOM      9  N   UNL     1       3.773   7.441  17.354  0.00  0.00    +0.000 N 
ATOM     10  C   UNL     1       4.642   7.495  16.200  0.00  0.00    +0.000 C 
ATOM     11  C   UNL     1       3.574   6.427  18.257  0.00  0.00    +0.000 A 
ENDROOT
BRANCH   7  12
ATOM     12  C   UNL     1       1.112   9.103  18.973  0.00  0.00    +0.000 A 
ATOM     13  C   UNL     1       0.352   9.778  17.999  0.00  0.00    +0.000 A 
ATOM     14  C   UNL     1      -0.704  10.622  18.360  0.00  0.00    +0.000 A 
ATOM     15  C   UNL     1      -1.019  10.796  19.703  0.00  0.00    +0.000 A 
ATOM     16 CL   UNL     1      -2.337  11.805  20.151  0.00  0.00    +0.000 Cl
ATOM     17  C   UNL     1      -0.271  10.160  20.687  0.00  0.00    +0.000 A 
ATOM     18  C   UNL     1       0.798   9.330  20.331  0.00  0.00    +0.000 A 
ATOM     19 CL   UNL     1       1.700   8.677  21.663  0.00  0.00    +0.000 Cl
ENDBRANCH   7  12
BRANCH   1  20
ATOM     20  N   UNL     1       5.159   4.598  17.669  0.00  0.00    +0.000 N 
BRANCH  20  21
ATOM     21  C   UNL     1       4.792   3.635  16.611  0.00  0.00    +0.000 C 
BRANCH  21  22
ATOM     22  C   UNL     1       4.955   4.178  15.181  0.00  0.00    +0.000 C 
BRANCH  22  24
ATOM     23  C   UNL     1       6.167   3.648  13.054  0.00  0.00    +0.000 C 
ATOM     24  C   UNL     1       6.327   3.945  14.542  0.00  0.00    +0.000 C 
ENDBRANCH  22  24
ENDBRANCH  21  22
ENDBRANCH  20  21
BRANCH  20  25
ATOM     25  C   UNL     1       6.446   4.349  18.366  0.00  0.00    +0.000 C 
BRANCH  25  26
ATOM     26  C   UNL     1       7.630   5.169  17.853  0.00  0.00    +0.000 C 
BRANCH  26  27
ATOM     27  C   UNL     1       7.574   6.610  18.378  0.00  0.00    +0.000 C 
BRANCH  27  28
ATOM     28  O   UNL     1       7.755   7.522  17.294  0.00  0.00    +0.000 OA
ATOM     29  C   UNL     1       8.002   8.852  17.731  0.00  0.00    +0.000 C 
ENDBRANCH  27  28
ENDBRANCH  26  27
ENDBRANCH  25  26
ENDBRANCH  20  25
ENDBRANCH   1  20
TORSDOF 9
ENDMDL
MODEL 6
REMARK VINA RESULT:      -6.5      1.855      3.207
REMARK  Name = 
REMARK  13 active torsions:
REMARK  status: ('A' for Active; 'I' for Inactive)
REMARK    1  A    between atoms: C_1  and  C_2
REMARK    2  A    between atoms: C_2  and  C_3
REMARK    3  A    between atoms: C_3  and  C_4
REMARK    4  A    between atoms: C_4  and  N_5
REMARK    5  A    between atoms: N_5  and  C_6
REMARK    6  A    between atoms: N_5  and  C_11
REMARK    7  A    between atoms: C_6  and  C_7
REMARK    8  A    between atoms: C_7  and  C_8
REMARK    9  A    between atoms: C_8  and  O_9
REMARK   10  A    between atoms: O_9  and  C_10
REMARK   11  A    between atoms: C_13  and  C_14
REMARK   12  A    between atoms: C_17  and  C_18
REMARK   13  A    between atoms: N_27  and  C_28
REMARK                            x       y       z     vdW  Elec       q    Type
REMARK                         _______ _______ _______ _____ _____    ______ ____
ROOT
ATOM      1  C   UNL     1       4.710   4.465  18.137  0.00  0.00    +0.000 A 
ATOM      2  C   UNL     1       4.291   3.562  19.130  0.00  0.00    +0.000 A 
ATOM      3  C   UNL     1       3.326   3.894  20.083  0.00  0.00    +0.000 A 
ATOM      4  C   UNL     1       2.877   2.878  21.094  0.00  0.00    +0.000 C 
ATOM      5  N   UNL     1       2.735   5.098  20.152  0.00  0.00    +0.000 NA
ATOM      6  C   UNL     1       3.151   6.010  19.236  0.00  0.00    +0.000 A 
ATOM      7  C   UNL     1       2.745   7.366  19.047  0.00  0.00    +0.000 A 
ATOM      8  N   UNL     1       3.470   7.924  18.071  0.00  0.00    +0.000 NA
ATOM      9  N   UNL     1       4.163   6.907  17.532  0.00  0.00    +0.000 N 
ATOM     10  C   UNL     1       4.858   7.200  16.299  0.00  0.00    +0.000 C 
ATOM     11  C   UNL     1       4.102   5.738  18.250  0.00  0.00    +0.000 A 
ENDROOT
BRANCH   7  12
ATOM     12  C   UNL     1       1.751   8.156  19.787  0.00  0.00    +0.000 A 
ATOM     13  C   UNL     1       1.587   7.933  21.167  0.00  0.00    +0.000 A 
ATOM     14  C   UNL     1       0.692   8.696  21.924  0.00  0.00    +0.000 A 
ATOM     15  C   UNL     1      -0.047   9.702  21.311  0.00  0.00    +0.000 A 
ATOM     16 CL   UNL     1      -1.122  10.667  22.243  0.00  0.00    +0.000 Cl
ATOM     17  C   UNL     1       0.078   9.930  19.946  0.00  0.00    +0.000 A 
ATOM     18  C   UNL     1       0.958   9.156  19.181  0.00  0.00    +0.000 A 
ATOM     19 CL   UNL     1       0.942   9.488  17.476  0.00  0.00    +0.000 Cl
ENDBRANCH   7  12
BRANCH   1  20
ATOM     20  N   UNL     1       5.598   4.101  17.117  0.00  0.00    +0.000 N 
BRANCH  20  21
ATOM     21  C   UNL     1       6.937   4.723  17.074  0.00  0.00    +0.000 C 
BRANCH  21  22
ATOM     22  C   UNL     1       7.707   4.654  18.404  0.00  0.00    +0.000 C 
BRANCH  22  24
ATOM     23  C   UNL     1       7.838   7.139  18.114  0.00  0.00    +0.000 C 
ATOM     24  C   UNL     1       7.903   5.993  19.120  0.00  0.00    +0.000 C 
ENDBRANCH  22  24
ENDBRANCH  21  22
ENDBRANCH  20  21
BRANCH  20  25
ATOM     25  C   UNL     1       4.966   3.813  15.805  0.00  0.00    +0.000 C 
BRANCH  25  26
ATOM     26  C   UNL     1       5.935   3.706  14.628  0.00  0.00    +0.000 C 
BRANCH  26  27
ATOM     27  C   UNL     1       5.283   4.197  13.328  0.00  0.00    +0.000 C 
BRANCH  27  28
ATOM     28  O   UNL     1       5.491   3.232  12.295  0.00  0.00    +0.000 OA
ATOM     29  C   UNL     1       4.391   3.143  11.398  0.00  0.00    +0.000 C 
ENDBRANCH  27  28
ENDBRANCH  26  27
ENDBRANCH  25  26
ENDBRANCH  20  25
ENDBRANCH   1  20
TORSDOF 9
ENDMDL
MODEL 7
REMARK VINA RESULT:      -6.0      1.597      2.488
REMARK  Name = 
REMARK  13 active torsions:
REMARK  status: ('A' for Active; 'I' for Inactive)
REMARK    1  A    between atoms: C_1  and  C_2
REMARK    2  A    between atoms: C_2  and  C_3
REMARK    3  A    between atoms: C_3  and  C_4
REMARK    4  A    between atoms: C_4  and  N_5
REMARK    5  A    between atoms: N_5  and  C_6
REMARK    6  A    between atoms: N_5  and  C_11
REMARK    7  A    between atoms: C_6  and  C_7
REMARK    8  A    between atoms: C_7  and  C_8
REMARK    9  A    between atoms: C_8  and  O_9
REMARK   10  A    between atoms: O_9  and  C_10
REMARK   11  A    between atoms: C_13  and  C_14
REMARK   12  A    between atoms: C_17  and  C_18
REMARK   13  A    between atoms: N_27  and  C_28
REMARK                            x       y       z     vdW  Elec       q    Type
REMARK                         _______ _______ _______ _____ _____    ______ ____
ROOT
ATOM      1  C   UNL     1       3.942   5.178  18.731  0.00  0.00    +0.000 A 
ATOM      2  C   UNL     1       3.370   4.514  19.830  0.00  0.00    +0.000 A 
ATOM      3  C   UNL     1       2.332   5.069  20.580  0.00  0.00    +0.000 A 
ATOM      4  C   UNL     1       1.722   4.299  21.718  0.00  0.00    +0.000 C 
ATOM      5  N   UNL     1       1.807   6.281  20.338  0.00  0.00    +0.000 NA
ATOM      6  C   UNL     1       2.368   6.969  19.311  0.00  0.00    +0.000 A 
ATOM      7  C   UNL     1       2.062   8.270  18.807  0.00  0.00    +0.000 A 
ATOM      8  N   UNL     1       2.916   8.589  17.828  0.00  0.00    +0.000 NA
ATOM      9  N   UNL     1       3.602   7.459  17.588  0.00  0.00    +0.000 N 
ATOM     10  C   UNL     1       4.437   7.467  16.409  0.00  0.00    +0.000 C 
ATOM     11  C   UNL     1       3.399   6.467  18.514  0.00  0.00    +0.000 A 
ENDROOT
BRANCH   7  12
ATOM     12  C   UNL     1       1.042   9.230  19.254  0.00  0.00    +0.000 A 
ATOM     13  C   UNL     1       0.245   9.879  18.294  0.00  0.00    +0.000 A 
ATOM     14  C   UNL     1      -0.774  10.759  18.672  0.00  0.00    +0.000 A 
ATOM     15  C   UNL     1      -1.016  10.996  20.021  0.00  0.00    +0.000 A 
ATOM     16 CL   UNL     1      -2.289  12.050  20.493  0.00  0.00    +0.000 Cl
ATOM     17  C   UNL     1      -0.229  10.386  20.991  0.00  0.00    +0.000 A 
ATOM     18  C   UNL     1       0.804   9.519  20.616  0.00  0.00    +0.000 A 
ATOM     19 CL   UNL     1       1.762   8.904  21.927  0.00  0.00    +0.000 Cl
ENDBRANCH   7  12
BRANCH   1  20
ATOM     20  N   UNL     1       4.910   4.581  17.913  0.00  0.00    +0.000 N 
BRANCH  20  21
ATOM     21  C   UNL     1       4.520   3.453  17.044  0.00  0.00    +0.000 C 
BRANCH  21  22
ATOM     22  C   UNL     1       3.001   3.243  16.927  0.00  0.00    +0.000 C 
BRANCH  22  24
ATOM     23  C   UNL     1       3.568   1.317  18.426  0.00  0.00    +0.000 C 
ATOM     24  C   UNL     1       2.450   2.015  17.657  0.00  0.00    +0.000 C 
ENDBRANCH  22  24
ENDBRANCH  21  22
ENDBRANCH  20  21
BRANCH  20  25
ATOM     25  C   UNL     1       6.274   4.519  18.496  0.00  0.00    +0.000 C 
BRANCH  25  26
ATOM     26  C   UNL     1       7.417   4.658  17.489  0.00  0.00    +0.000 C 
BRANCH  26  27
ATOM     27  C   UNL     1       7.411   6.046  16.835  0.00  0.00    +0.000 C 
BRANCH  27  28
ATOM     28  O   UNL     1       7.706   5.920  15.443  0.00  0.00    +0.000 OA
ATOM     29  C   UNL     1       6.999   4.852  14.826  0.00  0.00    +0.000 C 
ENDBRANCH  27  28
ENDBRANCH  26  27
ENDBRANCH  25  26
ENDBRANCH  20  25
ENDBRANCH   1  20
TORSDOF 9
ENDMDL
MODEL 8
REMARK VINA RESULT:      -5.9      0.933      1.037
REMARK  Name = 
REMARK  13 active torsions:
REMARK  status: ('A' for Active; 'I' for Inactive)
REMARK    1  A    between atoms: C_1  and  C_2
REMARK    2  A    between atoms: C_2  and  C_3
REMARK    3  A    between atoms: C_3  and  C_4
REMARK    4  A    between atoms: C_4  and  N_5
REMARK    5  A    between atoms: N_5  and  C_6
REMARK    6  A    between atoms: N_5  and  C_11
REMARK    7  A    between atoms: C_6  and  C_7
REMARK    8  A    between atoms: C_7  and  C_8
REMARK    9  A    between atoms: C_8  and  O_9
REMARK   10  A    between atoms: O_9  and  C_10
REMARK   11  A    between atoms: C_13  and  C_14
REMARK   12  A    between atoms: C_17  and  C_18
REMARK   13  A    between atoms: N_27  and  C_28
REMARK                            x       y       z     vdW  Elec       q    Type
REMARK                         _______ _______ _______ _____ _____    ______ ____
ROOT
ATOM      1  C   UNL     1       4.327   4.866  17.869  0.00  0.00    +0.000 A 
ATOM      2  C   UNL     1       3.852   3.852  18.718  0.00  0.00    +0.000 A 
ATOM      3  C   UNL     1       2.882   4.087  19.694  0.00  0.00    +0.000 A 
ATOM      4  C   UNL     1       2.372   2.960  20.545  0.00  0.00    +0.000 C 
ATOM      5  N   UNL     1       2.338   5.294  19.923  0.00  0.00    +0.000 NA
ATOM      6  C   UNL     1       2.809   6.306  19.151  0.00  0.00    +0.000 A 
ATOM      7  C   UNL     1       2.462   7.692  19.149  0.00  0.00    +0.000 A 
ATOM      8  N   UNL     1       3.229   8.350  18.272  0.00  0.00    +0.000 NA
ATOM      9  N   UNL     1       3.891   7.389  17.606  0.00  0.00    +0.000 N 
ATOM     10  C   UNL     1       4.622   7.822  16.436  0.00  0.00    +0.000 C 
ATOM     11  C   UNL     1       3.769   6.135  18.150  0.00  0.00    +0.000 A 
ENDROOT
BRANCH   7  12
ATOM     12  C   UNL     1       1.485   8.412  19.977  0.00  0.00    +0.000 A 
ATOM     13  C   UNL     1       1.473   8.195  21.368  0.00  0.00    +0.000 A 
ATOM     14  C   UNL     1       0.599   8.896  22.204  0.00  0.00    +0.000 A 
ATOM     15  C   UNL     1      -0.272   9.834  21.661  0.00  0.00    +0.000 A 
ATOM     16 CL   UNL     1      -1.325  10.724  22.688  0.00  0.00    +0.000 Cl
ATOM     17  C   UNL     1      -0.299  10.053  20.289  0.00  0.00    +0.000 A 
ATOM     18  C   UNL     1       0.562   9.340  19.446  0.00  0.00    +0.000 A 
ATOM     19 CL   UNL     1       0.355   9.647  17.749  0.00  0.00    +0.000 Cl
ENDBRANCH   7  12
BRANCH   1  20
ATOM     20  N   UNL     1       5.221   4.611  16.821  0.00  0.00    +0.000 N 
BRANCH  20  21
ATOM     21  C   UNL     1       4.764   3.816  15.663  0.00  0.00    +0.000 C 
BRANCH  21  22
ATOM     22  C   UNL     1       5.744   3.810  14.478  0.00  0.00    +0.000 C 
BRANCH  22  24
ATOM     23  C   UNL     1       5.691   2.964  12.120  0.00  0.00    +0.000 C 
ATOM     24  C   UNL     1       5.106   3.980  13.097  0.00  0.00    +0.000 C 
ENDBRANCH  22  24
ENDBRANCH  21  22
ENDBRANCH  20  21
BRANCH  20  25
ATOM     25  C   UNL     1       6.634   4.417  17.233  0.00  0.00    +0.000 C 
BRANCH  25  26
ATOM     26  C   UNL     1       7.476   5.693  17.282  0.00  0.00    +0.000 C 
BRANCH  26  27
ATOM     27  C   UNL     1       7.627   6.202  18.722  0.00  0.00    +0.000 C 
BRANCH  27  28
ATOM     28  O   UNL     1       8.424   7.387  18.729  0.00  0.00    +0.000 OA
ATOM     29  C   UNL     1       8.004   8.337  17.759  0.00  0.00    +0.000 C 
ENDBRANCH  27  28
ENDBRANCH  26  27
ENDBRANCH  25  26
ENDBRANCH  20  25
ENDBRANCH   1  20
TORSDOF 9
ENDMDL
MODEL 9
REMARK VINA RESULT:      -5.9      2.755      4.707
REMARK  Name = 
REMARK  13 active torsions:
REMARK  status: ('A' for Active; 'I' for Inactive)
REMARK    1  A    between atoms: C_1  and  C_2
REMARK    2  A    between atoms: C_2  and  C_3
REMARK    3  A    between atoms: C_3  and  C_4
REMARK    4  A    between atoms: C_4  and  N_5
REMARK    5  A    between atoms: N_5  and  C_6
REMARK    6  A    between atoms: N_5  and  C_11
REMARK    7  A    between atoms: C_6  and  C_7
REMARK    8  A    between atoms: C_7  and  C_8
REMARK    9  A    between atoms: C_8  and  O_9
REMARK   10  A    between atoms: O_9  and  C_10
REMARK   11  A    between atoms: C_13  and  C_14
REMARK   12  A    between atoms: C_17  and  C_18
REMARK   13  A    between atoms: N_27  and  C_28
REMARK                            x       y       z     vdW  Elec       q    Type
REMARK                         _______ _______ _______ _____ _____    ______ ____
ROOT
ATOM      1  C   UNL     1       1.638   7.513  20.310  0.00  0.00    +0.000 A 
ATOM      2  C   UNL     1       1.112   7.771  21.587  0.00  0.00    +0.000 A 
ATOM      3  C   UNL     1       0.662   9.037  21.968  0.00  0.00    +0.000 A 
ATOM      4  C   UNL     1       0.063   9.252  23.329  0.00  0.00    +0.000 C 
ATOM      5  N   UNL     1       0.712  10.114  21.168  0.00  0.00    +0.000 NA
ATOM      6  C   UNL     1       1.259   9.909  19.942  0.00  0.00    +0.000 A 
ATOM      7  C   UNL     1       1.474  10.831  18.872  0.00  0.00    +0.000 A 
ATOM      8  N   UNL     1       2.112  10.218  17.868  0.00  0.00    +0.000 NA
ATOM      9  N   UNL     1       2.120   8.918  18.208  0.00  0.00    +0.000 N 
ATOM     10  C   UNL     1       2.551   8.000  17.178  0.00  0.00    +0.000 C 
ATOM     11  C   UNL     1       1.715   8.668  19.495  0.00  0.00    +0.000 A 
ENDROOT
BRANCH   7  12
ATOM     12  C   UNL     1       1.153  12.263  18.792  0.00  0.00    +0.000 A 
ATOM     13  C   UNL     1       2.203  13.200  18.756  0.00  0.00    +0.000 A 
ATOM     14  C   UNL     1       1.949  14.569  18.626  0.00  0.00    +0.000 A 
ATOM     15  C   UNL     1       0.638  15.021  18.522  0.00  0.00    +0.000 A 
ATOM     16 CL   UNL     1       0.322  16.699  18.327  0.00  0.00    +0.000 Cl
ATOM     17  C   UNL     1      -0.419  14.121  18.577  0.00  0.00    +0.000 A 
ATOM     18  C   UNL     1      -0.171  12.751  18.726  0.00  0.00    +0.000 A 
ATOM     19 CL   UNL     1      -1.587  11.757  18.873  0.00  0.00    +0.000 Cl
ENDBRANCH   7  12
BRANCH   1  20
ATOM     20  N   UNL     1       1.992   6.225  19.890  0.00  0.00    +0.000 N 
BRANCH  20  21
ATOM     21  C   UNL     1       1.112   5.089  20.233  0.00  0.00    +0.000 C 
BRANCH  21  22
ATOM     22  C   UNL     1       1.790   4.003  21.086  0.00  0.00    +0.000 C 
BRANCH  22  24
ATOM     23  C   UNL     1       0.993   2.592  19.175  0.00  0.00    +0.000 C 
ATOM     24  C   UNL     1       1.721   2.583  20.517  0.00  0.00    +0.000 C 
ENDBRANCH  22  24
ENDBRANCH  21  22
ENDBRANCH  20  21
BRANCH  20  25
ATOM     25  C   UNL     1       3.450   5.945  19.878  0.00  0.00    +0.000 C 
BRANCH  25  26
ATOM     26  C   UNL     1       3.951   5.167  18.661  0.00  0.00    +0.000 C 
BRANCH  26  27
ATOM     27  C   UNL     1       5.349   4.586  18.913  0.00  0.00    +0.000 C 
BRANCH  27  28
ATOM     28  O   UNL     1       6.020   4.395  17.666  0.00  0.00    +0.000 OA
ATOM     29  C   UNL     1       7.408   4.693  17.738  0.00  0.00    +0.000 C 
ENDBRANCH  27  28
ENDBRANCH  26  27
ENDBRANCH  25  26
ENDBRANCH  20  25
ENDBRANCH   1  20
TORSDOF 9
ENDMDL
