MODEL 1
REMARK VINA RESULT:      -8.3      0.000      0.000
REMARK  Name = 
REMARK  9 active torsions:
REMARK  status: ('A' for Active; 'I' for Inactive)
REMARK    1  A    between atoms: C_2  and  C_3
REMARK    2  A    between atoms: C_5  and  C_6
REMARK    3  A    between atoms: C_13  and  C_14
REMARK    4  A    between atoms: C_14  and  C_15
REMARK    5  A    between atoms: C_15  and  O_17
REMARK    6  A    between atoms: O_17  and  C_18
REMARK    7  A    between atoms: C_24  and  C_25
REMARK    8  A    between atoms: C_25  and  O_27
REMARK    9  A    between atoms: O_27  and  C_28
REMARK                            x       y       z     vdW  Elec       q    Type
REMARK                         _______ _______ _______ _____ _____    ______ ____
ROOT
ATOM      1  C   UNL     1       6.165   7.194  17.082  0.00  0.00    +0.000 C 
ATOM      2  O   UNL     1       5.111   7.765  17.837  0.00  0.00    +0.000 OA
ATOM      3  C   UNL     1       3.860   7.189  17.489  0.00  0.00    +0.000 C 
ATOM      4  O   UNL     1       3.871   5.824  17.887  0.00  0.00    +0.000 OA
ATOM      5  C   UNL     1       4.794   5.049  17.113  0.00  0.00    +0.000 C 
ATOM      6  C   UNL     1       6.204   5.672  17.227  0.00  0.00    +0.000 C 
ENDROOT
BRANCH   3   7
ATOM      7  C   UNL     1       2.780   7.944  18.227  0.00  0.00    +0.000 A 
ATOM      8  C   UNL     1       2.357   7.523  19.499  0.00  0.00    +0.000 A 
ATOM      9  C   UNL     1       1.342   8.195  20.179  0.00  0.00    +0.000 A 
ATOM     10  C   UNL     1       0.753   9.319  19.605  0.00  0.00    +0.000 A 
ATOM     11  C   UNL     1       1.190   9.779  18.362  0.00  0.00    +0.000 A 
ATOM     12  C   UNL     1       2.200   9.106  17.683  0.00  0.00    +0.000 A 
ENDBRANCH   3   7
BRANCH   1  14
ATOM     13  O   UNL     1       8.137   7.365  18.497  0.00  0.00    +0.000 OA
ATOM     14  C   UNL     1       7.428   7.846  17.617  0.00  0.00    +0.000 C 
ENDBRANCH   1  14
BRANCH   6  15
ATOM     15  C   UNL     1       7.074   5.198  16.094  0.00  0.00    +0.000 C 
ATOM     16  O   UNL     1       7.968   4.370  16.218  0.00  0.00    +0.000 OA
BRANCH  15  17
ATOM     17  O   UNL     1       6.698   5.810  14.916  0.00  0.00    +0.000 OA
BRANCH  17  18
ATOM     18  C   UNL     1       6.462   4.985  13.806  0.00  0.00    +0.000 A 
ATOM     19  C   UNL     1       5.422   4.058  13.732  0.00  0.00    +0.000 A 
ATOM     20  C   UNL     1       5.411   3.126  12.700  0.00  0.00    +0.000 A 
ATOM     21  C   UNL     1       6.421   3.133  11.742  0.00  0.00    +0.000 A 
ATOM     22  C   UNL     1       7.426   4.100  11.786  0.00  0.00    +0.000 A 
ATOM     23  C   UNL     1       7.449   5.033  12.820  0.00  0.00    +0.000 A 
ENDBRANCH  17  18
ENDBRANCH  15  17
ENDBRANCH   6  15
BRANCH   5  24
ATOM     24  C   UNL     1       4.712   3.614  17.667  0.00  0.00    +0.000 C 
BRANCH  24  25
ATOM     25  C   UNL     1       5.214   3.544  19.102  0.00  0.00    +0.000 C 
ATOM     26  O   UNL     1       6.240   4.077  19.503  0.00  0.00    +0.000 OA
BRANCH  25  27
ATOM     27  O   UNL     1       4.293   2.828  19.883  0.00  0.00    +0.000 OA
BRANCH  27  28
ATOM     28  C   UNL     1       2.880   2.934  19.778  0.00  0.00    +0.000 A 
ATOM     29  C   UNL     1       2.086   2.051  19.053  0.00  0.00    +0.000 A 
ATOM     30  C   UNL     1       0.695   2.220  19.044  0.00  0.00    +0.000 A 
ATOM     31  C   UNL     1       0.106   3.261  19.765  0.00  0.00    +0.000 A 
ATOM     32  C   UNL     1       0.904   4.134  20.504  0.00  0.00    +0.000 A 
ATOM     33  C   UNL     1       2.292   3.968  20.515  0.00  0.00    +0.000 A 
ENDBRANCH  27  28
ENDBRANCH  25  27
ENDBRANCH  24  25
ENDBRANCH   5  24
TORSDOF 9
ENDMDL
MODEL 2
REMARK VINA RESULT:      -8.2      1.055      1.488
REMARK  Name = 
REMARK  9 active torsions:
REMARK  status: ('A' for Active; 'I' for Inactive)
REMARK    1  A    between atoms: C_2  and  C_3
REMARK    2  A    between atoms: C_5  and  C_6
REMARK    3  A    between atoms: C_13  and  C_14
REMARK    4  A    between atoms: C_14  and  C_15
REMARK    5  A    between atoms: C_15  and  O_17
REMARK    6  A    between atoms: O_17  and  C_18
REMARK    7  A    between atoms: C_24  and  C_25
REMARK    8  A    between atoms: C_25  and  O_27
REMARK    9  A    between atoms: O_27  and  C_28
REMARK                            x       y       z     vdW  Elec       q    Type
REMARK                         _______ _______ _______ _____ _____    ______ ____
ROOT
ATOM      1  C   UNL     1       6.120   6.964  17.126  0.00  0.00    +0.000 C 
ATOM      2  O   UNL     1       5.078   7.490  17.930  0.00  0.00    +0.000 OA
ATOM      3  C   UNL     1       3.807   7.047  17.475  0.00  0.00    +0.000 C 
ATOM      4  O   UNL     1       3.724   5.643  17.677  0.00  0.00    +0.000 OA
ATOM      5  C   UNL     1       4.625   4.927  16.824  0.00  0.00    +0.000 C 
ATOM      6  C   UNL     1       6.064   5.438  17.058  0.00  0.00    +0.000 C 
ENDROOT
BRANCH   3   7
ATOM      7  C   UNL     1       2.750   7.760  18.286  0.00  0.00    +0.000 A 
ATOM      8  C   UNL     1       2.463   7.351  19.599  0.00  0.00    +0.000 A 
ATOM      9  C   UNL     1       1.470   7.982  20.348  0.00  0.00    +0.000 A 
ATOM     10  C   UNL     1       0.769   9.053  19.803  0.00  0.00    +0.000 A 
ATOM     11  C   UNL     1       1.070   9.502  18.515  0.00  0.00    +0.000 A 
ATOM     12  C   UNL     1       2.057   8.870  17.767  0.00  0.00    +0.000 A 
ENDBRANCH   3   7
BRANCH   1  14
ATOM     13  O   UNL     1       8.003   8.472  17.442  0.00  0.00    +0.000 OA
ATOM     14  C   UNL     1       7.401   7.456  17.778  0.00  0.00    +0.000 C 
ENDBRANCH   1  14
BRANCH   6  15
ATOM     15  C   UNL     1       6.940   5.072  15.890  0.00  0.00    +0.000 C 
ATOM     16  O   UNL     1       7.926   4.349  15.974  0.00  0.00    +0.000 OA
BRANCH  15  17
ATOM     17  O   UNL     1       6.456   5.644  14.733  0.00  0.00    +0.000 OA
BRANCH  17  18
ATOM     18  C   UNL     1       6.329   4.818  13.606  0.00  0.00    +0.000 A 
ATOM     19  C   UNL     1       5.263   3.942  13.400  0.00  0.00    +0.000 A 
ATOM     20  C   UNL     1       5.343   2.998  12.382  0.00  0.00    +0.000 A 
ATOM     21  C   UNL     1       6.470   2.943  11.567  0.00  0.00    +0.000 A 
ATOM     22  C   UNL     1       7.507   3.860  11.739  0.00  0.00    +0.000 A 
ATOM     23  C   UNL     1       7.439   4.805  12.761  0.00  0.00    +0.000 A 
ENDBRANCH  17  18
ENDBRANCH  15  17
ENDBRANCH   6  15
BRANCH   5  24
ATOM     24  C   UNL     1       4.440   3.436  17.169  0.00  0.00    +0.000 C 
BRANCH  24  25
ATOM     25  C   UNL     1       3.004   2.987  16.935  0.00  0.00    +0.000 C 
ATOM     26  O   UNL     1       2.341   3.277  15.949  0.00  0.00    +0.000 OA
BRANCH  25  27
ATOM     27  O   UNL     1       2.600   2.154  17.990  0.00  0.00    +0.000 OA
BRANCH  27  28
ATOM     28  C   UNL     1       2.306   2.594  19.309  0.00  0.00    +0.000 A 
ATOM     29  C   UNL     1       2.933   2.102  20.450  0.00  0.00    +0.000 A 
ATOM     30  C   UNL     1       2.599   2.630  21.704  0.00  0.00    +0.000 A 
ATOM     31  C   UNL     1       1.653   3.653  21.810  0.00  0.00    +0.000 A 
ATOM     32  C   UNL     1       1.041   4.156  20.663  0.00  0.00    +0.000 A 
ATOM     33  C   UNL     1       1.371   3.629  19.410  0.00  0.00    +0.000 A 
ENDBRANCH  27  28
ENDBRANCH  25  27
ENDBRANCH  24  25
ENDBRANCH   5  24
TORSDOF 9
ENDMDL
MODEL 3
REMARK VINA RESULT:      -8.0      0.471      1.456
REMARK  Name = 
REMARK  9 active torsions:
REMARK  status: ('A' for Active; 'I' for Inactive)
REMARK    1  A    between atoms: C_2  and  C_3
REMARK    2  A    between atoms: C_5  and  C_6
REMARK    3  A    between atoms: C_13  and  C_14
REMARK    4  A    between atoms: C_14  and  C_15
REMARK    5  A    between atoms: C_15  and  O_17
REMARK    6  A    between atoms: O_17  and  C_18
REMARK    7  A    between atoms: C_24  and  C_25
REMARK    8  A    between atoms: C_25  and  O_27
REMARK    9  A    between atoms: O_27  and  C_28
REMARK                            x       y       z     vdW  Elec       q    Type
REMARK                         _______ _______ _______ _____ _____    ______ ____
ROOT
ATOM      1  C   UNL     1       6.123   7.171  16.998  0.00  0.00    +0.000 C 
ATOM      2  O   UNL     1       5.084   7.747  17.770  0.00  0.00    +0.000 OA
ATOM      3  C   UNL     1       3.826   7.170  17.447  0.00  0.00    +0.000 C 
ATOM      4  O   UNL     1       3.842   5.807  17.850  0.00  0.00    +0.000 OA
ATOM      5  C   UNL     1       4.750   5.029  17.063  0.00  0.00    +0.000 C 
ATOM      6  C   UNL     1       6.162   5.650  17.149  0.00  0.00    +0.000 C 
ENDROOT
BRANCH   3   7
ATOM      7  C   UNL     1       2.760   7.930  18.201  0.00  0.00    +0.000 A 
ATOM      8  C   UNL     1       2.130   9.043  17.617  0.00  0.00    +0.000 A 
ATOM      9  C   UNL     1       1.164   9.770  18.313  0.00  0.00    +0.000 A 
ATOM     10  C   UNL     1       0.794   9.375  19.595  0.00  0.00    +0.000 A 
ATOM     11  C   UNL     1       1.376   8.246  20.175  0.00  0.00    +0.000 A 
ATOM     12  C   UNL     1       2.342   7.524  19.482  0.00  0.00    +0.000 A 
ENDBRANCH   3   7
BRANCH   1  14
ATOM     13  O   UNL     1       8.091   7.372  18.415  0.00  0.00    +0.000 OA
ATOM     14  C   UNL     1       7.396   7.824  17.509  0.00  0.00    +0.000 C 
ENDBRANCH   1  14
BRANCH   6  15
ATOM     15  C   UNL     1       7.011   5.170  16.003  0.00  0.00    +0.000 C 
ATOM     16  O   UNL     1       8.004   4.464  16.134  0.00  0.00    +0.000 OA
BRANCH  15  17
ATOM     17  O   UNL     1       6.494   5.620  14.806  0.00  0.00    +0.000 OA
BRANCH  17  18
ATOM     18  C   UNL     1       6.433   4.705  13.743  0.00  0.00    +0.000 A 
ATOM     19  C   UNL     1       7.398   4.614  12.739  0.00  0.00    +0.000 A 
ATOM     20  C   UNL     1       7.134   3.850  11.608  0.00  0.00    +0.000 A 
ATOM     21  C   UNL     1       5.926   3.169  11.491  0.00  0.00    +0.000 A 
ATOM     22  C   UNL     1       4.989   3.215  12.524  0.00  0.00    +0.000 A 
ATOM     23  C   UNL     1       5.242   3.984  13.659  0.00  0.00    +0.000 A 
ENDBRANCH  17  18
ENDBRANCH  15  17
ENDBRANCH   6  15
BRANCH   5  24
ATOM     24  C   UNL     1       4.676   3.595  17.624  0.00  0.00    +0.000 C 
BRANCH  24  25
ATOM     25  C   UNL     1       5.202   3.531  19.051  0.00  0.00    +0.000 C 
ATOM     26  O   UNL     1       6.087   4.249  19.496  0.00  0.00    +0.000 OA
BRANCH  25  27
ATOM     27  O   UNL     1       4.477   2.568  19.771  0.00  0.00    +0.000 OA
BRANCH  27  28
ATOM     28  C   UNL     1       3.087   2.642  20.058  0.00  0.00    +0.000 A 
ATOM     29  C   UNL     1       2.566   2.834  21.334  0.00  0.00    +0.000 A 
ATOM     30  C   UNL     1       1.179   2.931  21.507  0.00  0.00    +0.000 A 
ATOM     31  C   UNL     1       0.323   2.849  20.406  0.00  0.00    +0.000 A 
ATOM     32  C   UNL     1       0.850   2.674  19.127  0.00  0.00    +0.000 A 
ATOM     33  C   UNL     1       2.233   2.575  18.951  0.00  0.00    +0.000 A 
ENDBRANCH  27  28
ENDBRANCH  25  27
ENDBRANCH  24  25
ENDBRANCH   5  24
TORSDOF 9
ENDMDL
MODEL 4
REMARK VINA RESULT:      -8.0      0.936      1.700
REMARK  Name = 
REMARK  9 active torsions:
REMARK  status: ('A' for Active; 'I' for Inactive)
REMARK    1  A    between atoms: C_2  and  C_3
REMARK    2  A    between atoms: C_5  and  C_6
REMARK    3  A    between atoms: C_13  and  C_14
REMARK    4  A    between atoms: C_14  and  C_15
REMARK    5  A    between atoms: C_15  and  O_17
REMARK    6  A    between atoms: O_17  and  C_18
REMARK    7  A    between atoms: C_24  and  C_25
REMARK    8  A    between atoms: C_25  and  O_27
REMARK    9  A    between atoms: O_27  and  C_28
REMARK                            x       y       z     vdW  Elec       q    Type
REMARK                         _______ _______ _______ _____ _____    ______ ____
ROOT
ATOM      1  C   UNL     1       6.123   7.144  17.166  0.00  0.00    +0.000 C 
ATOM      2  O   UNL     1       5.068   7.764  17.881  0.00  0.00    +0.000 OA
ATOM      3  C   UNL     1       3.840   7.078  17.678  0.00  0.00    +0.000 C 
ATOM      4  O   UNL     1       3.946   5.788  18.266  0.00  0.00    +0.000 OA
ATOM      5  C   UNL     1       4.882   4.959  17.568  0.00  0.00    +0.000 C 
ATOM      6  C   UNL     1       6.256   5.664  17.525  0.00  0.00    +0.000 C 
ENDROOT
BRANCH   3   7
ATOM      7  C   UNL     1       2.747   7.876  18.350  0.00  0.00    +0.000 A 
ATOM      8  C   UNL     1       2.140   8.953  17.685  0.00  0.00    +0.000 A 
ATOM      9  C   UNL     1       1.149   9.715  18.305  0.00  0.00    +0.000 A 
ATOM     10  C   UNL     1       0.732   9.390  19.592  0.00  0.00    +0.000 A 
ATOM     11  C   UNL     1       1.293   8.295  20.253  0.00  0.00    +0.000 A 
ATOM     12  C   UNL     1       2.283   7.538  19.636  0.00  0.00    +0.000 A 
ENDBRANCH   3   7
BRANCH   1  14
ATOM     13  O   UNL     1       8.164   7.594  18.411  0.00  0.00    +0.000 OA
ATOM     14  C   UNL     1       7.365   7.933  17.543  0.00  0.00    +0.000 C 
ENDBRANCH   1  14
BRANCH   6  15
ATOM     15  C   UNL     1       7.107   5.076  16.432  0.00  0.00    +0.000 C 
ATOM     16  O   UNL     1       7.927   4.183  16.608  0.00  0.00    +0.000 OA
BRANCH  15  17
ATOM     17  O   UNL     1       6.808   5.670  15.224  0.00  0.00    +0.000 OA
BRANCH  17  18
ATOM     18  C   UNL     1       6.744   4.841  14.094  0.00  0.00    +0.000 A 
ATOM     19  C   UNL     1       7.653   4.896  13.036  0.00  0.00    +0.000 A 
ATOM     20  C   UNL     1       7.374   4.208  11.861  0.00  0.00    +0.000 A 
ATOM     21  C   UNL     1       6.206   3.458  11.751  0.00  0.00    +0.000 A 
ATOM     22  C   UNL     1       5.330   3.358  12.832  0.00  0.00    +0.000 A 
ATOM     23  C   UNL     1       5.598   4.050  14.012  0.00  0.00    +0.000 A 
ENDBRANCH  17  18
ENDBRANCH  15  17
ENDBRANCH   6  15
BRANCH   5  24
ATOM     24  C   UNL     1       4.906   3.617  18.325  0.00  0.00    +0.000 C 
BRANCH  24  25
ATOM     25  C   UNL     1       4.340   2.489  17.472  0.00  0.00    +0.000 C 
ATOM     26  O   UNL     1       4.847   2.086  16.434  0.00  0.00    +0.000 OA
BRANCH  25  27
ATOM     27  O   UNL     1       3.197   1.964  18.093  0.00  0.00    +0.000 OA
BRANCH  27  28
ATOM     28  C   UNL     1       2.583   2.501  19.258  0.00  0.00    +0.000 A 
ATOM     29  C   UNL     1       3.040   2.272  20.552  0.00  0.00    +0.000 A 
ATOM     30  C   UNL     1       2.388   2.879  21.633  0.00  0.00    +0.000 A 
ATOM     31  C   UNL     1       1.292   3.718  21.415  0.00  0.00    +0.000 A 
ATOM     32  C   UNL     1       0.848   3.958  20.115  0.00  0.00    +0.000 A 
ATOM     33  C   UNL     1       1.497   3.353  19.035  0.00  0.00    +0.000 A 
ENDBRANCH  27  28
ENDBRANCH  25  27
ENDBRANCH  24  25
ENDBRANCH   5  24
TORSDOF 9
ENDMDL
MODEL 5
REMARK VINA RESULT:      -8.0      0.954      1.518
REMARK  Name = 
REMARK  9 active torsions:
REMARK  status: ('A' for Active; 'I' for Inactive)
REMARK    1  A    between atoms: C_2  and  C_3
REMARK    2  A    between atoms: C_5  and  C_6
REMARK    3  A    between atoms: C_13  and  C_14
REMARK    4  A    between atoms: C_14  and  C_15
REMARK    5  A    between atoms: C_15  and  O_17
REMARK    6  A    between atoms: O_17  and  C_18
REMARK    7  A    between atoms: C_24  and  C_25
REMARK    8  A    between atoms: C_25  and  O_27
REMARK    9  A    between atoms: O_27  and  C_28
REMARK                            x       y       z     vdW  Elec       q    Type
REMARK                         _______ _______ _______ _____ _____    ______ ____
ROOT
ATOM      1  C   UNL     1       6.163   7.155  17.142  0.00  0.00    +0.000 C 
ATOM      2  O   UNL     1       5.107   7.785  17.846  0.00  0.00    +0.000 OA
ATOM      3  C   UNL     1       3.872   7.120  17.619  0.00  0.00    +0.000 C 
ATOM      4  O   UNL     1       3.949   5.824  18.199  0.00  0.00    +0.000 OA
ATOM      5  C   UNL     1       4.883   4.986  17.509  0.00  0.00    +0.000 C 
ATOM      6  C   UNL     1       6.268   5.670  17.492  0.00  0.00    +0.000 C 
ENDROOT
BRANCH   3   7
ATOM      7  C   UNL     1       2.781   7.929  18.281  0.00  0.00    +0.000 A 
ATOM      8  C   UNL     1       2.326   7.594  19.567  0.00  0.00    +0.000 A 
ATOM      9  C   UNL     1       1.300   8.316  20.178  0.00  0.00    +0.000 A 
ATOM     10  C   UNL     1       0.735   9.404  19.520  0.00  0.00    +0.000 A 
ATOM     11  C   UNL     1       1.205   9.780  18.260  0.00  0.00    +0.000 A 
ATOM     12  C   UNL     1       2.224   9.058  17.650  0.00  0.00    +0.000 A 
ENDBRANCH   3   7
BRANCH   1  14
ATOM     13  O   UNL     1       8.154   7.600  18.467  0.00  0.00    +0.000 OA
ATOM     14  C   UNL     1       7.411   7.921  17.544  0.00  0.00    +0.000 C 
ENDBRANCH   1  14
BRANCH   6  15
ATOM     15  C   UNL     1       7.126   5.077  16.407  0.00  0.00    +0.000 C 
ATOM     16  O   UNL     1       7.944   4.184  16.592  0.00  0.00    +0.000 OA
BRANCH  15  17
ATOM     17  O   UNL     1       6.836   5.667  15.194  0.00  0.00    +0.000 OA
BRANCH  17  18
ATOM     18  C   UNL     1       6.768   4.832  14.069  0.00  0.00    +0.000 A 
ATOM     19  C   UNL     1       7.654   4.901  12.994  0.00  0.00    +0.000 A 
ATOM     20  C   UNL     1       7.367   4.202  11.827  0.00  0.00    +0.000 A 
ATOM     21  C   UNL     1       6.213   3.428  11.743  0.00  0.00    +0.000 A 
ATOM     22  C   UNL     1       5.360   3.314  12.842  0.00  0.00    +0.000 A 
ATOM     23  C   UNL     1       5.637   4.016  14.013  0.00  0.00    +0.000 A 
ENDBRANCH  17  18
ENDBRANCH  15  17
ENDBRANCH   6  15
BRANCH   5  24
ATOM     24  C   UNL     1       4.874   3.638  18.255  0.00  0.00    +0.000 C 
BRANCH  24  25
ATOM     25  C   UNL     1       4.226   2.544  17.417  0.00  0.00    +0.000 C 
ATOM     26  O   UNL     1       4.796   1.925  16.528  0.00  0.00    +0.000 OA
BRANCH  25  27
ATOM     27  O   UNL     1       2.913   2.331  17.864  0.00  0.00    +0.000 OA
BRANCH  27  28
ATOM     28  C   UNL     1       2.383   2.811  19.092  0.00  0.00    +0.000 A 
ATOM     29  C   UNL     1       1.358   3.749  19.182  0.00  0.00    +0.000 A 
ATOM     30  C   UNL     1       0.879   4.129  20.442  0.00  0.00    +0.000 A 
ATOM     31  C   UNL     1       1.416   3.564  21.602  0.00  0.00    +0.000 A 
ATOM     32  C   UNL     1       2.429   2.611  21.506  0.00  0.00    +0.000 A 
ATOM     33  C   UNL     1       2.911   2.231  20.250  0.00  0.00    +0.000 A 
ENDBRANCH  27  28
ENDBRANCH  25  27
ENDBRANCH  24  25
ENDBRANCH   5  24
TORSDOF 9
ENDMDL
MODEL 6
REMARK VINA RESULT:      -7.7      2.031      4.003
REMARK  Name = 
REMARK  9 active torsions:
REMARK  status: ('A' for Active; 'I' for Inactive)
REMARK    1  A    between atoms: C_2  and  C_3
REMARK    2  A    between atoms: C_5  and  C_6
REMARK    3  A    between atoms: C_13  and  C_14
REMARK    4  A    between atoms: C_14  and  C_15
REMARK    5  A    between atoms: C_15  and  O_17
REMARK    6  A    between atoms: O_17  and  C_18
REMARK    7  A    between atoms: C_24  and  C_25
REMARK    8  A    between atoms: C_25  and  O_27
REMARK    9  A    between atoms: O_27  and  C_28
REMARK                            x       y       z     vdW  Elec       q    Type
REMARK                         _______ _______ _______ _____ _____    ______ ____
ROOT
ATOM      1  C   UNL     1       7.888   6.020  18.241  0.00  0.00    +0.000 C 
ATOM      2  O   UNL     1       8.216   7.334  18.659  0.00  0.00    +0.000 OA
ATOM      3  C   UNL     1       7.897   8.285  17.653  0.00  0.00    +0.000 C 
ATOM      4  O   UNL     1       6.485   8.314  17.496  0.00  0.00    +0.000 OA
ATOM      5  C   UNL     1       5.985   7.094  16.937  0.00  0.00    +0.000 C 
ATOM      6  C   UNL     1       6.421   5.908  17.826  0.00  0.00    +0.000 C 
ENDROOT
BRANCH   3   7
ATOM      7  C   UNL     1       8.404   9.632  18.111  0.00  0.00    +0.000 A 
ATOM      8  C   UNL     1       9.202   9.739  19.263  0.00  0.00    +0.000 A 
ATOM      9  C   UNL     1       9.654  10.980  19.713  0.00  0.00    +0.000 A 
ATOM     10  C   UNL     1       9.336  12.131  18.999  0.00  0.00    +0.000 A 
ATOM     11  C   UNL     1       8.581  12.040  17.828  0.00  0.00    +0.000 A 
ATOM     12  C   UNL     1       8.128  10.804  17.381  0.00  0.00    +0.000 A 
ENDBRANCH   3   7
BRANCH   1  14
ATOM     13  O   UNL     1       7.666   5.238  20.534  0.00  0.00    +0.000 OA
ATOM     14  C   UNL     1       8.208   5.139  19.436  0.00  0.00    +0.000 C 
ENDBRANCH   1  14
BRANCH   6  15
ATOM     15  C   UNL     1       6.335   4.620  17.053  0.00  0.00    +0.000 C 
ATOM     16  O   UNL     1       5.448   3.788  17.205  0.00  0.00    +0.000 OA
BRANCH  15  17
ATOM     17  O   UNL     1       7.373   4.537  16.149  0.00  0.00    +0.000 OA
BRANCH  17  18
ATOM     18  C   UNL     1       7.044   4.523  14.785  0.00  0.00    +0.000 A 
ATOM     19  C   UNL     1       6.083   3.681  14.225  0.00  0.00    +0.000 A 
ATOM     20  C   UNL     1       5.996   3.571  12.841  0.00  0.00    +0.000 A 
ATOM     21  C   UNL     1       6.849   4.309  12.027  0.00  0.00    +0.000 A 
ATOM     22  C   UNL     1       7.768   5.196  12.591  0.00  0.00    +0.000 A 
ATOM     23  C   UNL     1       7.867   5.307  13.976  0.00  0.00    +0.000 A 
ENDBRANCH  17  18
ENDBRANCH  15  17
ENDBRANCH   6  15
BRANCH   5  24
ATOM     24  C   UNL     1       4.456   7.264  16.848  0.00  0.00    +0.000 C 
BRANCH  24  25
ATOM     25  C   UNL     1       3.759   6.655  18.058  0.00  0.00    +0.000 C 
ATOM     26  O   UNL     1       3.964   6.992  19.216  0.00  0.00    +0.000 OA
BRANCH  25  27
ATOM     27  O   UNL     1       2.823   5.704  17.625  0.00  0.00    +0.000 OA
BRANCH  27  28
ATOM     28  C   UNL     1       2.193   4.742  18.460  0.00  0.00    +0.000 A 
ATOM     29  C   UNL     1       1.801   4.990  19.773  0.00  0.00    +0.000 A 
ATOM     30  C   UNL     1       1.151   3.986  20.501  0.00  0.00    +0.000 A 
ATOM     31  C   UNL     1       0.886   2.746  19.914  0.00  0.00    +0.000 A 
ATOM     32  C   UNL     1       1.265   2.508  18.593  0.00  0.00    +0.000 A 
ATOM     33  C   UNL     1       1.915   3.507  17.864  0.00  0.00    +0.000 A 
ENDBRANCH  27  28
ENDBRANCH  25  27
ENDBRANCH  24  25
ENDBRANCH   5  24
TORSDOF 9
ENDMDL
MODEL 7
REMARK VINA RESULT:      -7.6      1.381      6.493
REMARK  Name = 
REMARK  9 active torsions:
REMARK  status: ('A' for Active; 'I' for Inactive)
REMARK    1  A    between atoms: C_2  and  C_3
REMARK    2  A    between atoms: C_5  and  C_6
REMARK    3  A    between atoms: C_13  and  C_14
REMARK    4  A    between atoms: C_14  and  C_15
REMARK    5  A    between atoms: C_15  and  O_17
REMARK    6  A    between atoms: O_17  and  C_18
REMARK    7  A    between atoms: C_24  and  C_25
REMARK    8  A    between atoms: C_25  and  O_27
REMARK    9  A    between atoms: O_27  and  C_28
REMARK                            x       y       z     vdW  Elec       q    Type
REMARK                         _______ _______ _______ _____ _____    ______ ____
ROOT
ATOM      1  C   UNL     1       6.729   4.440  17.705  0.00  0.00    +0.000 C 
ATOM      2  O   UNL     1       7.092   4.534  16.338  0.00  0.00    +0.000 OA
ATOM      3  C   UNL     1       5.952   4.422  15.497  0.00  0.00    +0.000 C 
ATOM      4  O   UNL     1       5.123   5.557  15.714  0.00  0.00    +0.000 OA
ATOM      5  C   UNL     1       4.542   5.551  17.023  0.00  0.00    +0.000 C 
ATOM      6  C   UNL     1       5.667   5.474  18.080  0.00  0.00    +0.000 C 
ENDROOT
BRANCH   3   7
ATOM      7  C   UNL     1       6.435   4.388  14.065  0.00  0.00    +0.000 A 
ATOM      8  C   UNL     1       5.862   3.498  13.142  0.00  0.00    +0.000 A 
ATOM      9  C   UNL     1       6.317   3.437  11.824  0.00  0.00    +0.000 A 
ATOM     10  C   UNL     1       7.335   4.288  11.405  0.00  0.00    +0.000 A 
ATOM     11  C   UNL     1       7.885   5.211  12.297  0.00  0.00    +0.000 A 
ATOM     12  C   UNL     1       7.434   5.269  13.611  0.00  0.00    +0.000 A 
ENDBRANCH   3   7
BRANCH   1  14
ATOM     13  O   UNL     1       8.286   5.664  19.118  0.00  0.00    +0.000 OA
ATOM     14  C   UNL     1       8.024   4.655  18.468  0.00  0.00    +0.000 C 
ENDBRANCH   1  14
BRANCH   6  15
ATOM     15  C   UNL     1       5.111   4.998  19.395  0.00  0.00    +0.000 C 
ATOM     16  O   UNL     1       4.754   5.745  20.298  0.00  0.00    +0.000 OA
BRANCH  15  17
ATOM     17  O   UNL     1       5.046   3.620  19.414  0.00  0.00    +0.000 OA
BRANCH  17  18
ATOM     18  C   UNL     1       3.780   3.031  19.284  0.00  0.00    +0.000 A 
ATOM     19  C   UNL     1       3.304   2.459  18.103  0.00  0.00    +0.000 A 
ATOM     20  C   UNL     1       1.960   2.117  18.004  0.00  0.00    +0.000 A 
ATOM     21  C   UNL     1       1.104   2.329  19.081  0.00  0.00    +0.000 A 
ATOM     22  C   UNL     1       1.596   2.846  20.280  0.00  0.00    +0.000 A 
ATOM     23  C   UNL     1       2.940   3.197  20.387  0.00  0.00    +0.000 A 
ENDBRANCH  17  18
ENDBRANCH  15  17
ENDBRANCH   6  15
BRANCH   5  24
ATOM     24  C   UNL     1       3.698   6.836  17.118  0.00  0.00    +0.000 C 
BRANCH  24  25
ATOM     25  C   UNL     1       2.542   6.669  18.094  0.00  0.00    +0.000 C 
ATOM     26  O   UNL     1       1.768   5.721  18.094  0.00  0.00    +0.000 OA
BRANCH  25  27
ATOM     27  O   UNL     1       2.548   7.733  19.010  0.00  0.00    +0.000 OA
BRANCH  27  28
ATOM     28  C   UNL     1       1.508   8.690  19.154  0.00  0.00    +0.000 A 
ATOM     29  C   UNL     1       0.953   9.401  18.094  0.00  0.00    +0.000 A 
ATOM     30  C   UNL     1      -0.097  10.295  18.337  0.00  0.00    +0.000 A 
ATOM     31  C   UNL     1      -0.594  10.466  19.631  0.00  0.00    +0.000 A 
ATOM     32  C   UNL     1      -0.048   9.739  20.688  0.00  0.00    +0.000 A 
ATOM     33  C   UNL     1       1.002   8.847  20.449  0.00  0.00    +0.000 A 
ENDBRANCH  27  28
ENDBRANCH  25  27
ENDBRANCH  24  25
ENDBRANCH   5  24
TORSDOF 9
ENDMDL
MODEL 8
REMARK VINA RESULT:      -7.6      1.405      6.557
REMARK  Name = 
REMARK  9 active torsions:
REMARK  status: ('A' for Active; 'I' for Inactive)
REMARK    1  A    between atoms: C_2  and  C_3
REMARK    2  A    between atoms: C_5  and  C_6
REMARK    3  A    between atoms: C_13  and  C_14
REMARK    4  A    between atoms: C_14  and  C_15
REMARK    5  A    between atoms: C_15  and  O_17
REMARK    6  A    between atoms: O_17  and  C_18
REMARK    7  A    between atoms: C_24  and  C_25
REMARK    8  A    between atoms: C_25  and  O_27
REMARK    9  A    between atoms: O_27  and  C_28
REMARK                            x       y       z     vdW  Elec       q    Type
REMARK                         _______ _______ _______ _____ _____    ______ ____
ROOT
ATOM      1  C   UNL     1       6.511   4.493  17.728  0.00  0.00    +0.000 C 
ATOM      2  O   UNL     1       6.927   4.524  16.374  0.00  0.00    +0.000 OA
ATOM      3  C   UNL     1       5.810   4.531  15.495  0.00  0.00    +0.000 C 
ATOM      4  O   UNL     1       5.111   5.756  15.671  0.00  0.00    +0.000 OA
ATOM      5  C   UNL     1       4.492   5.837  16.960  0.00  0.00    +0.000 C 
ATOM      6  C   UNL     1       5.565   5.648  18.055  0.00  0.00    +0.000 C 
ENDROOT
BRANCH   3   7
ATOM      7  C   UNL     1       6.331   4.419  14.082  0.00  0.00    +0.000 A 
ATOM      8  C   UNL     1       7.390   5.234  13.646  0.00  0.00    +0.000 A 
ATOM      9  C   UNL     1       7.862   5.160  12.336  0.00  0.00    +0.000 A 
ATOM     10  C   UNL     1       7.298   4.248  11.449  0.00  0.00    +0.000 A 
ATOM     11  C   UNL     1       6.275   3.399  11.876  0.00  0.00    +0.000 A 
ATOM     12  C   UNL     1       5.802   3.476  13.181  0.00  0.00    +0.000 A 
ENDBRANCH   3   7
BRANCH   1  14
ATOM     13  O   UNL     1       7.950   5.267  19.531  0.00  0.00    +0.000 OA
ATOM     14  C   UNL     1       7.797   4.569  18.533  0.00  0.00    +0.000 C 
ENDBRANCH   1  14
BRANCH   6  15
ATOM     15  C   UNL     1       4.916   5.259  19.356  0.00  0.00    +0.000 C 
ATOM     16  O   UNL     1       4.523   6.063  20.193  0.00  0.00    +0.000 OA
BRANCH  15  17
ATOM     17  O   UNL     1       4.813   3.886  19.446  0.00  0.00    +0.000 OA
BRANCH  17  18
ATOM     18  C   UNL     1       3.524   3.332  19.424  0.00  0.00    +0.000 A 
ATOM     19  C   UNL     1       2.952   2.737  18.298  0.00  0.00    +0.000 A 
ATOM     20  C   UNL     1       1.595   2.433  18.304  0.00  0.00    +0.000 A 
ATOM     21  C   UNL     1       0.823   2.705  19.429  0.00  0.00    +0.000 A 
ATOM     22  C   UNL     1       1.412   3.244  20.573  0.00  0.00    +0.000 A 
ATOM     23  C   UNL     1       2.769   3.558  20.575  0.00  0.00    +0.000 A 
ENDBRANCH  17  18
ENDBRANCH  15  17
ENDBRANCH   6  15
BRANCH   5  24
ATOM     24  C   UNL     1       3.799   7.213  17.012  0.00  0.00    +0.000 C 
BRANCH  24  25
ATOM     25  C   UNL     1       2.480   7.142  17.769  0.00  0.00    +0.000 C 
ATOM     26  O   UNL     1       1.892   6.103  18.037  0.00  0.00    +0.000 OA
BRANCH  25  27
ATOM     27  O   UNL     1       2.092   8.436  18.149  0.00  0.00    +0.000 OA
BRANCH  27  28
ATOM     28  C   UNL     1       1.396   8.759  19.345  0.00  0.00    +0.000 A 
ATOM     29  C   UNL     1       1.613   8.128  20.566  0.00  0.00    +0.000 A 
ATOM     30  C   UNL     1       0.902   8.547  21.698  0.00  0.00    +0.000 A 
ATOM     31  C   UNL     1      -0.013   9.599  21.606  0.00  0.00    +0.000 A 
ATOM     32  C   UNL     1      -0.215  10.241  20.385  0.00  0.00    +0.000 A 
ATOM     33  C   UNL     1       0.493   9.824  19.254  0.00  0.00    +0.000 A 
ENDBRANCH  27  28
ENDBRANCH  25  27
ENDBRANCH  24  25
ENDBRANCH   5  24
TORSDOF 9
ENDMDL
MODEL 9
REMARK VINA RESULT:      -7.5      1.464      6.694
REMARK  Name = 
REMARK  9 active torsions:
REMARK  status: ('A' for Active; 'I' for Inactive)
REMARK    1  A    between atoms: C_2  and  C_3
REMARK    2  A    between atoms: C_5  and  C_6
REMARK    3  A    between atoms: C_13  and  C_14
REMARK    4  A    between atoms: C_14  and  C_15
REMARK    5  A    between atoms: C_15  and  O_17
REMARK    6  A    between atoms: O_17  and  C_18
REMARK    7  A    between atoms: C_24  and  C_25
REMARK    8  A    between atoms: C_25  and  O_27
REMARK    9  A    between atoms: O_27  and  C_28
REMARK                            x       y       z     vdW  Elec       q    Type
REMARK                         _______ _______ _______ _____ _____    ______ ____
ROOT
ATOM      1  C   UNL     1       6.451   4.446  17.648  0.00  0.00    +0.000 C 
ATOM      2  O   UNL     1       6.845   4.448  16.287  0.00  0.00    +0.000 OA
ATOM      3  C   UNL     1       5.715   4.463  15.426  0.00  0.00    +0.000 C 
ATOM      4  O   UNL     1       5.043   5.705  15.594  0.00  0.00    +0.000 OA
ATOM      5  C   UNL     1       4.446   5.819  16.890  0.00  0.00    +0.000 C 
ATOM      6  C   UNL     1       5.533   5.625  17.971  0.00  0.00    +0.000 C 
ENDROOT
BRANCH   3   7
ATOM      7  C   UNL     1       6.211   4.319  14.007  0.00  0.00    +0.000 A 
ATOM      8  C   UNL     1       5.579   3.434  13.117  0.00  0.00    +0.000 A 
ATOM      9  C   UNL     1       6.044   3.271  11.812  0.00  0.00    +0.000 A 
ATOM     10  C   UNL     1       7.134   4.015  11.370  0.00  0.00    +0.000 A 
ATOM     11  C   UNL     1       7.747   4.932  12.225  0.00  0.00    +0.000 A 
ATOM     12  C   UNL     1       7.285   5.092  13.527  0.00  0.00    +0.000 A 
ENDBRANCH   3   7
BRANCH   1  14
ATOM     13  O   UNL     1       8.806   3.997  18.065  0.00  0.00    +0.000 OA
ATOM     14  C   UNL     1       7.751   4.509  18.431  0.00  0.00    +0.000 C 
ENDBRANCH   1  14
BRANCH   6  15
ATOM     15  C   UNL     1       4.897   5.270  19.289  0.00  0.00    +0.000 C 
ATOM     16  O   UNL     1       4.550   6.094  20.126  0.00  0.00    +0.000 OA
BRANCH  15  17
ATOM     17  O   UNL     1       4.748   3.902  19.392  0.00  0.00    +0.000 OA
BRANCH  17  18
ATOM     18  C   UNL     1       3.440   3.394  19.414  0.00  0.00    +0.000 A 
ATOM     19  C   UNL     1       2.809   2.821  18.309  0.00  0.00    +0.000 A 
ATOM     20  C   UNL     1       1.443   2.566  18.360  0.00  0.00    +0.000 A 
ATOM     21  C   UNL     1       0.720   2.865  19.511  0.00  0.00    +0.000 A 
ATOM     22  C   UNL     1       1.366   3.383  20.634  0.00  0.00    +0.000 A 
ATOM     23  C   UNL     1       2.733   3.648  20.590  0.00  0.00    +0.000 A 
ENDBRANCH  17  18
ENDBRANCH  15  17
ENDBRANCH   6  15
BRANCH   5  24
ATOM     24  C   UNL     1       3.782   7.208  16.931  0.00  0.00    +0.000 C 
BRANCH  24  25
ATOM     25  C   UNL     1       2.607   7.233  17.899  0.00  0.00    +0.000 C 
ATOM     26  O   UNL     1       1.882   6.276  18.132  0.00  0.00    +0.000 OA
BRANCH  25  27
ATOM     27  O   UNL     1       2.534   8.495  18.509  0.00  0.00    +0.000 OA
BRANCH  27  28
ATOM     28  C   UNL     1       1.342   9.097  18.995  0.00  0.00    +0.000 A 
ATOM     29  C   UNL     1       0.957   9.090  20.333  0.00  0.00    +0.000 A 
ATOM     30  C   UNL     1      -0.219   9.746  20.717  0.00  0.00    +0.000 A 
ATOM     31  C   UNL     1      -0.997  10.414  19.768  0.00  0.00    +0.000 A 
ATOM     32  C   UNL     1      -0.599  10.434  18.432  0.00  0.00    +0.000 A 
ATOM     33  C   UNL     1       0.574   9.779  18.045  0.00  0.00    +0.000 A 
ENDBRANCH  27  28
ENDBRANCH  25  27
ENDBRANCH  24  25
ENDBRANCH   5  24
TORSDOF 9
ENDMDL
