MODEL 1
REMARK VINA RESULT:      -6.9      0.000      0.000
REMARK  Name = 
REMARK  7 active torsions:
REMARK  status: ('A' for Active; 'I' for Inactive)
REMARK    1  A    between atoms: C_1  and  S_2
REMARK    2  A    between atoms: S_2  and  C_3
REMARK    3  A    between atoms: C_7  and  N_8
REMARK    4  A    between atoms: N_8  and  C_9
REMARK    5  A    between atoms: N_12  and  C_13
REMARK    6  A    between atoms: C_15  and  S_16
REMARK    7  A    between atoms: S_16  and  C_17
REMARK                            x       y       z     vdW  Elec       q    Type
REMARK                         _______ _______ _______ _____ _____    ______ ____
ROOT
ATOM      1  N   UNL     1       1.297   9.171  19.935  0.00  0.00    +0.000 N 
ATOM      2  C   UNL     1       1.179   8.921  21.377  0.00  0.00    +0.000 C 
ATOM      3  C   UNL     1       2.073   8.330  19.134  0.00  0.00    +0.000 C 
ATOM      4  N   UNL     1       2.574   8.700  17.996  0.00  0.00    +0.000 NA
ATOM      5  N   UNL     1       2.307   7.066  19.638  0.00  0.00    +0.000 N 
ATOM      6  H   UNL     1       2.337   9.686  17.858  0.00  0.00    +0.000 HD
ATOM      7  H   UNL     1       2.719   7.038  20.563  0.00  0.00    +0.000 HD
ENDROOT
BRANCH   5   8
ATOM      8  C   UNL     1       2.735   5.965  18.848  0.00  0.00    +0.000 A 
ATOM      9  C   UNL     1       3.742   6.136  17.884  0.00  0.00    +0.000 A 
ATOM     10  C   UNL     1       4.199   5.070  17.101  0.00  0.00    +0.000 A 
ATOM     11  C   UNL     1       3.657   3.798  17.295  0.00  0.00    +0.000 A 
ATOM     12  C   UNL     1       2.637   3.607  18.233  0.00  0.00    +0.000 A 
ATOM     13  C   UNL     1       2.168   4.687  18.987  0.00  0.00    +0.000 A 
ATOM     14 CL   UNL     1       0.857   4.418  20.084  0.00  0.00    +0.000 Cl
BRANCH  10  15
ATOM     15  S   UNL     1       5.371   5.404  15.799  0.00  0.00    +0.000 S 
BRANCH  15  16
ATOM     16  C   UNL     1       6.900   5.505  16.754  0.00  0.00    +0.000 C 
ATOM     17  F   UNL     1       7.452   4.271  16.893  0.00  0.00    +0.000 F 
ENDBRANCH  15  16
ENDBRANCH  10  15
ENDBRANCH   5   8
BRANCH   1  22
ATOM     18  C   UNL     1      -1.716  10.643  18.190  0.00  0.00    +0.000 A 
ATOM     19  C   UNL     1      -1.413  12.002  18.224  0.00  0.00    +0.000 A 
ATOM     20  C   UNL     1      -0.255  12.434  18.863  0.00  0.00    +0.000 A 
ATOM     21  C   UNL     1       0.624  11.504  19.436  0.00  0.00    +0.000 A 
ATOM     22  C   UNL     1       0.367  10.121  19.407  0.00  0.00    +0.000 A 
ATOM     23  C   UNL     1      -0.845   9.728  18.807  0.00  0.00    +0.000 A 
BRANCH  18  25
ATOM     24  C   UNL     1      -2.809  10.702  15.630  0.00  0.00    +0.000 C 
ATOM     25  S   UNL     1      -3.099   9.988  17.267  0.00  0.00    +0.000 S 
ENDBRANCH  18  25
ENDBRANCH   1  22
TORSDOF 5
ENDMDL
MODEL 2
REMARK VINA RESULT:      -6.8      3.400      7.835
REMARK  Name = 
REMARK  7 active torsions:
REMARK  status: ('A' for Active; 'I' for Inactive)
REMARK    1  A    between atoms: C_1  and  S_2
REMARK    2  A    between atoms: S_2  and  C_3
REMARK    3  A    between atoms: C_7  and  N_8
REMARK    4  A    between atoms: N_8  and  C_9
REMARK    5  A    between atoms: N_12  and  C_13
REMARK    6  A    between atoms: C_15  and  S_16
REMARK    7  A    between atoms: S_16  and  C_17
REMARK                            x       y       z     vdW  Elec       q    Type
REMARK                         _______ _______ _______ _____ _____    ______ ____
ROOT
ATOM      1  N   UNL     1       2.323   7.759  18.945  0.00  0.00    +0.000 N 
ATOM      2  C   UNL     1       3.166   8.034  17.774  0.00  0.00    +0.000 C 
ATOM      3  C   UNL     1       1.449   8.734  19.430  0.00  0.00    +0.000 C 
ATOM      4  N   UNL     1       1.015   8.750  20.653  0.00  0.00    +0.000 NA
ATOM      5  N   UNL     1       1.083   9.715  18.531  0.00  0.00    +0.000 N 
ATOM      6  H   UNL     1       1.467   7.981  21.153  0.00  0.00    +0.000 HD
ATOM      7  H   UNL     1       1.851  10.213  18.097  0.00  0.00    +0.000 HD
ENDROOT
BRANCH   5   8
ATOM      8  C   UNL     1      -0.050  10.557  18.694  0.00  0.00    +0.000 A 
ATOM      9  C   UNL     1      -1.246  10.274  18.015  0.00  0.00    +0.000 A 
ATOM     10  C   UNL     1      -2.385  11.072  18.167  0.00  0.00    +0.000 A 
ATOM     11  C   UNL     1      -2.341  12.168  19.030  0.00  0.00    +0.000 A 
ATOM     12  C   UNL     1      -1.155  12.486  19.700  0.00  0.00    +0.000 A 
ATOM     13  C   UNL     1      -0.014  11.697  19.516  0.00  0.00    +0.000 A 
ATOM     14 CL   UNL     1       1.449  12.168  20.309  0.00  0.00    +0.000 Cl
BRANCH  10  15
ATOM     15  S   UNL     1      -3.812  10.729  17.154  0.00  0.00    +0.000 S 
BRANCH  15  16
ATOM     16  C   UNL     1      -3.072  10.807  15.509  0.00  0.00    +0.000 C 
ATOM     17  F   UNL     1      -2.949   9.558  14.988  0.00  0.00    +0.000 F 
ENDBRANCH  15  16
ENDBRANCH  10  15
ENDBRANCH   5   8
BRANCH   1  22
ATOM     18  C   UNL     1       2.432   3.983  18.798  0.00  0.00    +0.000 A 
ATOM     19  C   UNL     1       2.014   3.649  20.084  0.00  0.00    +0.000 A 
ATOM     20  C   UNL     1       1.751   4.657  21.008  0.00  0.00    +0.000 A 
ATOM     21  C   UNL     1       1.868   6.003  20.635  0.00  0.00    +0.000 A 
ATOM     22  C   UNL     1       2.268   6.386  19.341  0.00  0.00    +0.000 A 
ATOM     23  C   UNL     1       2.585   5.338  18.455  0.00  0.00    +0.000 A 
BRANCH  18  25
ATOM     24  C   UNL     1       3.566   1.474  18.384  0.00  0.00    +0.000 C 
ATOM     25  S   UNL     1       2.648   2.765  17.509  0.00  0.00    +0.000 S 
ENDBRANCH  18  25
ENDBRANCH   1  22
TORSDOF 5
ENDMDL
MODEL 3
REMARK VINA RESULT:      -6.7      1.184      1.184
REMARK  Name = 
REMARK  7 active torsions:
REMARK  status: ('A' for Active; 'I' for Inactive)
REMARK    1  A    between atoms: C_1  and  S_2
REMARK    2  A    between atoms: S_2  and  C_3
REMARK    3  A    between atoms: C_7  and  N_8
REMARK    4  A    between atoms: N_8  and  C_9
REMARK    5  A    between atoms: N_12  and  C_13
REMARK    6  A    between atoms: C_15  and  S_16
REMARK    7  A    between atoms: S_16  and  C_17
REMARK                            x       y       z     vdW  Elec       q    Type
REMARK                         _______ _______ _______ _____ _____    ______ ____
ROOT
ATOM      1  N   UNL     1       1.454   8.851  20.112  0.00  0.00    +0.000 N 
ATOM      2  C   UNL     1       1.322   8.637  21.559  0.00  0.00    +0.000 C 
ATOM      3  C   UNL     1       2.155   7.935  19.325  0.00  0.00    +0.000 C 
ATOM      4  N   UNL     1       2.681   8.242  18.179  0.00  0.00    +0.000 NA
ATOM      5  N   UNL     1       2.285   6.664  19.851  0.00  0.00    +0.000 N 
ATOM      6  H   UNL     1       2.525   9.241  18.024  0.00  0.00    +0.000 HD
ATOM      7  H   UNL     1       2.697   6.619  20.775  0.00  0.00    +0.000 HD
ENDROOT
BRANCH   5   8
ATOM      8  C   UNL     1       2.619   5.519  19.080  0.00  0.00    +0.000 A 
ATOM      9  C   UNL     1       3.628   5.590  18.106  0.00  0.00    +0.000 A 
ATOM     10  C   UNL     1       3.993   4.477  17.341  0.00  0.00    +0.000 A 
ATOM     11  C   UNL     1       3.352   3.256  17.563  0.00  0.00    +0.000 A 
ATOM     12  C   UNL     1       2.327   3.164  18.510  0.00  0.00    +0.000 A 
ATOM     13  C   UNL     1       1.952   4.293  19.247  0.00  0.00    +0.000 A 
ATOM     14 CL   UNL     1       0.632   4.150  20.356  0.00  0.00    +0.000 Cl
BRANCH  10  15
ATOM     15  S   UNL     1       5.177   4.692  16.026  0.00  0.00    +0.000 S 
BRANCH  15  16
ATOM     16  C   UNL     1       5.449   6.474  16.119  0.00  0.00    +0.000 C 
ATOM     17  F   UNL     1       4.725   7.112  15.162  0.00  0.00    +0.000 F 
ENDBRANCH  15  16
ENDBRANCH  10  15
ENDBRANCH   5   8
BRANCH   1  22
ATOM     18  C   UNL     1      -1.283  10.546  18.132  0.00  0.00    +0.000 A 
ATOM     19  C   UNL     1      -0.998  11.889  18.369  0.00  0.00    +0.000 A 
ATOM     20  C   UNL     1       0.051  12.232  19.216  0.00  0.00    +0.000 A 
ATOM     21  C   UNL     1       0.844  11.233  19.798  0.00  0.00    +0.000 A 
ATOM     22  C   UNL     1       0.604   9.865  19.570  0.00  0.00    +0.000 A 
ATOM     23  C   UNL     1      -0.504   9.557  18.758  0.00  0.00    +0.000 A 
BRANCH  18  25
ATOM     24  C   UNL     1      -3.945  11.000  17.453  0.00  0.00    +0.000 C 
ATOM     25  S   UNL     1      -2.512  10.018  16.948  0.00  0.00    +0.000 S 
ENDBRANCH  18  25
ENDBRANCH   1  22
TORSDOF 5
ENDMDL
MODEL 4
REMARK VINA RESULT:      -6.7      4.803      8.188
REMARK  Name = 
REMARK  7 active torsions:
REMARK  status: ('A' for Active; 'I' for Inactive)
REMARK    1  A    between atoms: C_1  and  S_2
REMARK    2  A    between atoms: S_2  and  C_3
REMARK    3  A    between atoms: C_7  and  N_8
REMARK    4  A    between atoms: N_8  and  C_9
REMARK    5  A    between atoms: N_12  and  C_13
REMARK    6  A    between atoms: C_15  and  S_16
REMARK    7  A    between atoms: S_16  and  C_17
REMARK                            x       y       z     vdW  Elec       q    Type
REMARK                         _______ _______ _______ _____ _____    ______ ____
ROOT
ATOM      1  N   UNL     1       6.640   4.274  16.281  0.00  0.00    +0.000 N 
ATOM      2  C   UNL     1       7.877   4.515  17.034  0.00  0.00    +0.000 C 
ATOM      3  C   UNL     1       5.412   4.208  16.943  0.00  0.00    +0.000 C 
ATOM      4  N   UNL     1       4.378   3.592  16.458  0.00  0.00    +0.000 NA
ATOM      5  N   UNL     1       5.360   4.823  18.178  0.00  0.00    +0.000 N 
ATOM      6  H   UNL     1       4.663   3.153  15.578  0.00  0.00    +0.000 HD
ATOM      7  H   UNL     1       6.059   4.516  18.844  0.00  0.00    +0.000 HD
ENDROOT
BRANCH   5   8
ATOM      8  C   UNL     1       4.153   5.191  18.830  0.00  0.00    +0.000 A 
ATOM      9  C   UNL     1       3.551   4.317  19.750  0.00  0.00    +0.000 A 
ATOM     10  C   UNL     1       2.371   4.655  20.422  0.00  0.00    +0.000 A 
ATOM     11  C   UNL     1       1.784   5.900  20.188  0.00  0.00    +0.000 A 
ATOM     12  C   UNL     1       2.350   6.778  19.258  0.00  0.00    +0.000 A 
ATOM     13  C   UNL     1       3.513   6.415  18.571  0.00  0.00    +0.000 A 
ATOM     14 CL   UNL     1       4.138   7.503  17.380  0.00  0.00    +0.000 Cl
BRANCH  10  15
ATOM     15  S   UNL     1       1.595   3.429  21.459  0.00  0.00    +0.000 S 
BRANCH  15  16
ATOM     16  C   UNL     1       1.231   2.150  20.237  0.00  0.00    +0.000 C 
ATOM     17  F   UNL     1       0.355   2.620  19.310  0.00  0.00    +0.000 F 
ENDBRANCH  15  16
ENDBRANCH  10  15
ENDBRANCH   5   8
BRANCH   1  22
ATOM     18  C   UNL     1       6.237   3.608  12.582  0.00  0.00    +0.000 A 
ATOM     19  C   UNL     1       7.120   4.539  12.041  0.00  0.00    +0.000 A 
ATOM     20  C   UNL     1       7.800   5.415  12.881  0.00  0.00    +0.000 A 
ATOM     21  C   UNL     1       7.629   5.335  14.271  0.00  0.00    +0.000 A 
ATOM     22  C   UNL     1       6.763   4.397  14.861  0.00  0.00    +0.000 A 
ATOM     23  C   UNL     1       6.046   3.570  13.975  0.00  0.00    +0.000 A 
BRANCH  18  25
ATOM     24  C   UNL     1       3.921   3.201  11.093  0.00  0.00    +0.000 C 
ATOM     25  S   UNL     1       5.437   2.352  11.594  0.00  0.00    +0.000 S 
ENDBRANCH  18  25
ENDBRANCH   1  22
TORSDOF 5
ENDMDL
MODEL 5
REMARK VINA RESULT:      -6.7      4.283      8.073
REMARK  Name = 
REMARK  7 active torsions:
REMARK  status: ('A' for Active; 'I' for Inactive)
REMARK    1  A    between atoms: C_1  and  S_2
REMARK    2  A    between atoms: S_2  and  C_3
REMARK    3  A    between atoms: C_7  and  N_8
REMARK    4  A    between atoms: N_8  and  C_9
REMARK    5  A    between atoms: N_12  and  C_13
REMARK    6  A    between atoms: C_15  and  S_16
REMARK    7  A    between atoms: S_16  and  C_17
REMARK                            x       y       z     vdW  Elec       q    Type
REMARK                         _______ _______ _______ _____ _____    ______ ____
ROOT
ATOM      1  N   UNL     1       6.570   4.214  16.658  0.00  0.00    +0.000 N 
ATOM      2  C   UNL     1       7.787   4.447  17.445  0.00  0.00    +0.000 C 
ATOM      3  C   UNL     1       5.332   4.092  17.292  0.00  0.00    +0.000 C 
ATOM      4  N   UNL     1       4.321   3.476  16.761  0.00  0.00    +0.000 NA
ATOM      5  N   UNL     1       5.244   4.650  18.553  0.00  0.00    +0.000 N 
ATOM      6  H   UNL     1       4.631   3.084  15.868  0.00  0.00    +0.000 HD
ATOM      7  H   UNL     1       5.938   4.328  19.218  0.00  0.00    +0.000 HD
ENDROOT
BRANCH   5   8
ATOM      8  C   UNL     1       4.017   4.961  19.197  0.00  0.00    +0.000 A 
ATOM      9  C   UNL     1       3.477   6.254  19.105  0.00  0.00    +0.000 A 
ATOM     10  C   UNL     1       2.263   6.590  19.713  0.00  0.00    +0.000 A 
ATOM     11  C   UNL     1       1.556   5.611  20.415  0.00  0.00    +0.000 A 
ATOM     12  C   UNL     1       2.084   4.322  20.542  0.00  0.00    +0.000 A 
ATOM     13  C   UNL     1       3.314   4.008  19.955  0.00  0.00    +0.000 A 
ATOM     14 CL   UNL     1       3.961   2.422  20.197  0.00  0.00    +0.000 Cl
BRANCH  10  15
ATOM     15  S   UNL     1       1.725   8.290  19.672  0.00  0.00    +0.000 S 
BRANCH  15  16
ATOM     16  C   UNL     1       1.136   8.487  21.368  0.00  0.00    +0.000 C 
ATOM     17  F   UNL     1      -0.180   8.158  21.451  0.00  0.00    +0.000 F 
ENDBRANCH  15  16
ENDBRANCH  10  15
ENDBRANCH   5   8
BRANCH   1  22
ATOM     18  C   UNL     1       6.266   3.696  12.926  0.00  0.00    +0.000 A 
ATOM     19  C   UNL     1       7.122   4.683  12.444  0.00  0.00    +0.000 A 
ATOM     20  C   UNL     1       7.750   5.547  13.336  0.00  0.00    +0.000 A 
ATOM     21  C   UNL     1       7.555   5.400  14.717  0.00  0.00    +0.000 A 
ATOM     22  C   UNL     1       6.715   4.404  15.248  0.00  0.00    +0.000 A 
ATOM     23  C   UNL     1       6.049   3.590  14.311  0.00  0.00    +0.000 A 
BRANCH  18  25
ATOM     24  C   UNL     1       4.045   3.304  11.293  0.00  0.00    +0.000 C 
ATOM     25  S   UNL     1       5.536   2.455  11.868  0.00  0.00    +0.000 S 
ENDBRANCH  18  25
ENDBRANCH   1  22
TORSDOF 5
ENDMDL
MODEL 6
REMARK VINA RESULT:      -6.7      1.484      2.146
REMARK  Name = 
REMARK  7 active torsions:
REMARK  status: ('A' for Active; 'I' for Inactive)
REMARK    1  A    between atoms: C_1  and  S_2
REMARK    2  A    between atoms: S_2  and  C_3
REMARK    3  A    between atoms: C_7  and  N_8
REMARK    4  A    between atoms: N_8  and  C_9
REMARK    5  A    between atoms: N_12  and  C_13
REMARK    6  A    between atoms: C_15  and  S_16
REMARK    7  A    between atoms: S_16  and  C_17
REMARK                            x       y       z     vdW  Elec       q    Type
REMARK                         _______ _______ _______ _____ _____    ______ ____
ROOT
ATOM      1  N   UNL     1       1.218   9.024  20.201  0.00  0.00    +0.000 N 
ATOM      2  C   UNL     1       1.238   8.764  21.646  0.00  0.00    +0.000 C 
ATOM      3  C   UNL     1       1.987   8.244  19.333  0.00  0.00    +0.000 C 
ATOM      4  N   UNL     1       2.364   8.652  18.161  0.00  0.00    +0.000 NA
ATOM      5  N   UNL     1       2.354   7.000  19.807  0.00  0.00    +0.000 N 
ATOM      6  H   UNL     1       2.045   9.618  18.051  0.00  0.00    +0.000 HD
ATOM      7  H   UNL     1       2.841   7.002  20.695  0.00  0.00    +0.000 HD
ENDROOT
BRANCH   5   8
ATOM      8  C   UNL     1       2.797   5.936  18.977  0.00  0.00    +0.000 A 
ATOM      9  C   UNL     1       3.813   6.152  18.031  0.00  0.00    +0.000 A 
ATOM     10  C   UNL     1       4.284   5.122  17.210  0.00  0.00    +0.000 A 
ATOM     11  C   UNL     1       3.747   3.840  17.345  0.00  0.00    +0.000 A 
ATOM     12  C   UNL     1       2.719   3.604  18.262  0.00  0.00    +0.000 A 
ATOM     13  C   UNL     1       2.235   4.650  19.056  0.00  0.00    +0.000 A 
ATOM     14 CL   UNL     1       0.914   4.328  20.127  0.00  0.00    +0.000 Cl
BRANCH  10  15
ATOM     15  S   UNL     1       5.468   5.516  15.936  0.00  0.00    +0.000 S 
BRANCH  15  16
ATOM     16  C   UNL     1       6.985   5.589  16.912  0.00  0.00    +0.000 C 
ATOM     17  F   UNL     1       7.576   4.366  16.958  0.00  0.00    +0.000 F 
ENDBRANCH  15  16
ENDBRANCH  10  15
ENDBRANCH   5   8
BRANCH   1  22
ATOM     18  C   UNL     1      -1.461  11.690  20.210  0.00  0.00    +0.000 A 
ATOM     19  C   UNL     1      -1.986  11.551  18.927  0.00  0.00    +0.000 A 
ATOM     20  C   UNL     1      -1.428  10.627  18.049  0.00  0.00    +0.000 A 
ATOM     21  C   UNL     1      -0.367   9.810  18.466  0.00  0.00    +0.000 A 
ATOM     22  C   UNL     1       0.181   9.903  19.758  0.00  0.00    +0.000 A 
ATOM     23  C   UNL     1      -0.370  10.892  20.595  0.00  0.00    +0.000 A 
BRANCH  18  25
ATOM     24  C   UNL     1      -1.229  12.325  22.910  0.00  0.00    +0.000 C 
ATOM     25  S   UNL     1      -2.206  12.742  21.446  0.00  0.00    +0.000 S 
ENDBRANCH  18  25
ENDBRANCH   1  22
TORSDOF 5
ENDMDL
MODEL 7
REMARK VINA RESULT:      -6.7      3.901      7.894
REMARK  Name = 
REMARK  7 active torsions:
REMARK  status: ('A' for Active; 'I' for Inactive)
REMARK    1  A    between atoms: C_1  and  S_2
REMARK    2  A    between atoms: S_2  and  C_3
REMARK    3  A    between atoms: C_7  and  N_8
REMARK    4  A    between atoms: N_8  and  C_9
REMARK    5  A    between atoms: N_12  and  C_13
REMARK    6  A    between atoms: C_15  and  S_16
REMARK    7  A    between atoms: S_16  and  C_17
REMARK                            x       y       z     vdW  Elec       q    Type
REMARK                         _______ _______ _______ _____ _____    ______ ____
ROOT
ATOM      1  N   UNL     1       6.544   4.232  16.648  0.00  0.00    +0.000 N 
ATOM      2  C   UNL     1       7.764   4.451  17.435  0.00  0.00    +0.000 C 
ATOM      3  C   UNL     1       5.303   4.131  17.282  0.00  0.00    +0.000 C 
ATOM      4  N   UNL     1       4.284   3.527  16.753  0.00  0.00    +0.000 NA
ATOM      5  N   UNL     1       5.222   4.695  18.540  0.00  0.00    +0.000 N 
ATOM      6  H   UNL     1       4.589   3.127  15.862  0.00  0.00    +0.000 HD
ATOM      7  H   UNL     1       5.911   4.366  19.207  0.00  0.00    +0.000 HD
ENDROOT
BRANCH   5   8
ATOM      8  C   UNL     1       3.999   5.027  19.182  0.00  0.00    +0.000 A 
ATOM      9  C   UNL     1       3.466   6.321  19.065  0.00  0.00    +0.000 A 
ATOM     10  C   UNL     1       2.256   6.676  19.670  0.00  0.00    +0.000 A 
ATOM     11  C   UNL     1       1.547   5.716  20.394  0.00  0.00    +0.000 A 
ATOM     12  C   UNL     1       2.067   4.427  20.546  0.00  0.00    +0.000 A 
ATOM     13  C   UNL     1       3.294   4.094  19.961  0.00  0.00    +0.000 A 
ATOM     14 CL   UNL     1       3.933   2.509  20.235  0.00  0.00    +0.000 Cl
BRANCH  10  15
ATOM     15  S   UNL     1       1.728   8.378  19.596  0.00  0.00    +0.000 S 
BRANCH  15  16
ATOM     16  C   UNL     1       1.916   8.701  17.829  0.00  0.00    +0.000 C 
ATOM     17  F   UNL     1       2.292   9.990  17.623  0.00  0.00    +0.000 F 
ENDBRANCH  15  16
ENDBRANCH  10  15
ENDBRANCH   5   8
BRANCH   1  22
ATOM     18  C   UNL     1       6.244   3.696  12.919  0.00  0.00    +0.000 A 
ATOM     19  C   UNL     1       7.106   4.676  12.433  0.00  0.00    +0.000 A 
ATOM     20  C   UNL     1       7.738   5.541  13.322  0.00  0.00    +0.000 A 
ATOM     21  C   UNL     1       7.539   5.402  14.703  0.00  0.00    +0.000 A 
ATOM     22  C   UNL     1       6.693   4.414  15.238  0.00  0.00    +0.000 A 
ATOM     23  C   UNL     1       6.024   3.599  14.304  0.00  0.00    +0.000 A 
BRANCH  18  25
ATOM     24  C   UNL     1       4.030   3.312  11.275  0.00  0.00    +0.000 C 
ATOM     25  S   UNL     1       5.509   2.454  11.866  0.00  0.00    +0.000 S 
ENDBRANCH  18  25
ENDBRANCH   1  22
TORSDOF 5
ENDMDL
MODEL 8
REMARK VINA RESULT:      -6.7      1.459      2.056
REMARK  Name = 
REMARK  7 active torsions:
REMARK  status: ('A' for Active; 'I' for Inactive)
REMARK    1  A    between atoms: C_1  and  S_2
REMARK    2  A    between atoms: S_2  and  C_3
REMARK    3  A    between atoms: C_7  and  N_8
REMARK    4  A    between atoms: N_8  and  C_9
REMARK    5  A    between atoms: N_12  and  C_13
REMARK    6  A    between atoms: C_15  and  S_16
REMARK    7  A    between atoms: S_16  and  C_17
REMARK                            x       y       z     vdW  Elec       q    Type
REMARK                         _______ _______ _______ _____ _____    ______ ____
ROOT
ATOM      1  N   UNL     1       1.065   9.312  19.607  0.00  0.00    +0.000 N 
ATOM      2  C   UNL     1       1.125   9.222  21.071  0.00  0.00    +0.000 C 
ATOM      3  C   UNL     1       1.875   8.495  18.815  0.00  0.00    +0.000 C 
ATOM      4  N   UNL     1       2.204   8.791  17.596  0.00  0.00    +0.000 NA
ATOM      5  N   UNL     1       2.339   7.342  19.419  0.00  0.00    +0.000 N 
ATOM      6  H   UNL     1       1.813   9.712  17.384  0.00  0.00    +0.000 HD
ATOM      7  H   UNL     1       2.838   7.481  20.290  0.00  0.00    +0.000 HD
ENDROOT
BRANCH   5   8
ATOM      8  C   UNL     1       2.847   6.224  18.705  0.00  0.00    +0.000 A 
ATOM      9  C   UNL     1       3.832   6.401  17.720  0.00  0.00    +0.000 A 
ATOM     10  C   UNL     1       4.365   5.320  17.010  0.00  0.00    +0.000 A 
ATOM     11  C   UNL     1       3.924   4.027  17.300  0.00  0.00    +0.000 A 
ATOM     12  C   UNL     1       2.926   3.826  18.259  0.00  0.00    +0.000 A 
ATOM     13  C   UNL     1       2.379   4.920  18.940  0.00  0.00    +0.000 A 
ATOM     14 CL   UNL     1       1.099   4.631  20.067  0.00  0.00    +0.000 Cl
BRANCH  10  15
ATOM     15  S   UNL     1       5.501   5.648  15.675  0.00  0.00    +0.000 S 
BRANCH  15  16
ATOM     16  C   UNL     1       6.045   3.970  15.289  0.00  0.00    +0.000 C 
ATOM     17  F   UNL     1       6.509   3.906  14.013  0.00  0.00    +0.000 F 
ENDBRANCH  15  16
ENDBRANCH  10  15
ENDBRANCH   5   8
BRANCH   1  22
ATOM     18  C   UNL     1      -1.726  11.847  19.330  0.00  0.00    +0.000 A 
ATOM     19  C   UNL     1      -2.335  11.451  18.141  0.00  0.00    +0.000 A 
ATOM     20  C   UNL     1      -1.799  10.396  17.409  0.00  0.00    +0.000 A 
ATOM     21  C   UNL     1      -0.675   9.706  17.886  0.00  0.00    +0.000 A 
ATOM     22  C   UNL     1      -0.041  10.058  19.091  0.00  0.00    +0.000 A 
ATOM     23  C   UNL     1      -0.575  11.170  19.771  0.00  0.00    +0.000 A 
BRANCH  18  25
ATOM     24  C   UNL     1      -1.224  14.429  20.240  0.00  0.00    +0.000 C 
ATOM     25  S   UNL     1      -2.428  13.089  20.405  0.00  0.00    +0.000 S 
ENDBRANCH  18  25
ENDBRANCH   1  22
TORSDOF 5
ENDMDL
MODEL 9
REMARK VINA RESULT:      -6.6      1.235      1.915
REMARK  Name = 
REMARK  7 active torsions:
REMARK  status: ('A' for Active; 'I' for Inactive)
REMARK    1  A    between atoms: C_1  and  S_2
REMARK    2  A    between atoms: S_2  and  C_3
REMARK    3  A    between atoms: C_7  and  N_8
REMARK    4  A    between atoms: N_8  and  C_9
REMARK    5  A    between atoms: N_12  and  C_13
REMARK    6  A    between atoms: C_15  and  S_16
REMARK    7  A    between atoms: S_16  and  C_17
REMARK                            x       y       z     vdW  Elec       q    Type
REMARK                         _______ _______ _______ _____ _____    ______ ____
ROOT
ATOM      1  N   UNL     1       1.260   9.053  19.741  0.00  0.00    +0.000 N 
ATOM      2  C   UNL     1       1.100   8.795  21.178  0.00  0.00    +0.000 C 
ATOM      3  C   UNL     1       2.081   8.235  18.963  0.00  0.00    +0.000 C 
ATOM      4  N   UNL     1       2.611   8.621  17.844  0.00  0.00    +0.000 NA
ATOM      5  N   UNL     1       2.327   6.973  19.470  0.00  0.00    +0.000 N 
ATOM      6  H   UNL     1       2.356   9.602  17.702  0.00  0.00    +0.000 HD
ATOM      7  H   UNL     1       2.709   6.951  20.408  0.00  0.00    +0.000 HD
ENDROOT
BRANCH   5   8
ATOM      8  C   UNL     1       2.807   5.887  18.691  0.00  0.00    +0.000 A 
ATOM      9  C   UNL     1       3.832   6.088  17.751  0.00  0.00    +0.000 A 
ATOM     10  C   UNL     1       4.339   5.037  16.980  0.00  0.00    +0.000 A 
ATOM     11  C   UNL     1       3.830   3.749  17.160  0.00  0.00    +0.000 A 
ATOM     12  C   UNL     1       2.793   3.527  18.072  0.00  0.00    +0.000 A 
ATOM     13  C   UNL     1       2.274   4.593  18.815  0.00  0.00    +0.000 A 
ATOM     14 CL   UNL     1       0.945   4.284  19.879  0.00  0.00    +0.000 Cl
BRANCH  10  15
ATOM     15  S   UNL     1       5.533   5.406  15.708  0.00  0.00    +0.000 S 
BRANCH  15  16
ATOM     16  C   UNL     1       7.030   5.575  16.704  0.00  0.00    +0.000 C 
ATOM     17  F   UNL     1       7.441   4.358  17.146  0.00  0.00    +0.000 F 
ENDBRANCH  15  16
ENDBRANCH  10  15
ENDBRANCH   5   8
BRANCH   1  22
ATOM     18  C   UNL     1      -0.768  12.197  19.200  0.00  0.00    +0.000 A 
ATOM     19  C   UNL     1      -1.634  11.791  18.187  0.00  0.00    +0.000 A 
ATOM     20  C   UNL     1      -1.515  10.513  17.649  0.00  0.00    +0.000 A 
ATOM     21  C   UNL     1      -0.555   9.623  18.152  0.00  0.00    +0.000 A 
ATOM     22  C   UNL     1       0.326   9.984  19.187  0.00  0.00    +0.000 A 
ATOM     23  C   UNL     1       0.216  11.306  19.662  0.00  0.00    +0.000 A 
BRANCH  18  25
ATOM     24  C   UNL     1      -0.195  14.900  18.858  0.00  0.00    +0.000 C 
ATOM     25  S   UNL     1      -0.944  13.760  20.047  0.00  0.00    +0.000 S 
ENDBRANCH  18  25
ENDBRANCH   1  22
TORSDOF 5
ENDMDL
