MODEL 1
REMARK VINA RESULT:      -8.5      0.000      0.000
REMARK  Name = 
REMARK  9 active torsions:
REMARK  status: ('A' for Active; 'I' for Inactive)
REMARK    1  A    between atoms: C_1  and  O_2
REMARK    2  A    between atoms: O_2  and  C_3
REMARK    3  A    between atoms: C_3  and  C_5
REMARK    4  A    between atoms: C_7  and  O_8
REMARK    5  A    between atoms: O_8  and  C_9
REMARK    6  A    between atoms: C_9  and  C_11
REMARK    7  A    between atoms: C_20  and  C_21
REMARK    8  A    between atoms: C_28  and  C_29
REMARK    9  A    between atoms: C_35  and  C_36
REMARK                            x       y       z     vdW  Elec       q    Type
REMARK                         _______ _______ _______ _____ _____    ______ ____
ROOT
ATOM      1  C   UNL     1       2.433   4.734  20.333  0.00  0.00    +0.000 C 
ATOM      2  C   UNL     1       1.406   5.890  20.453  0.00  0.00    +0.000 C 
ATOM      3  C   UNL     1       2.016   7.282  20.259  0.00  0.00    +0.000 C 
ATOM      4  C   UNL     1       2.813   7.274  18.945  0.00  0.00    +0.000 C 
ATOM      5  O   UNL     1       2.570   8.019  18.009  0.00  0.00    +0.000 OA
ATOM      6  C   UNL     1       3.921   6.207  18.896  0.00  0.00    +0.000 C 
ATOM      7  C   UNL     1       3.243   4.788  18.970  0.00  0.00    +0.000 C 
ATOM      8  C   UNL     1       2.277   4.556  17.779  0.00  0.00    +0.000 C 
ATOM      9  C   UNL     1       4.377   3.723  18.971  0.00  0.00    +0.000 C 
ATOM     10  C   UNL     1       5.431   3.910  17.877  0.00  0.00    +0.000 C 
ATOM     11  C   UNL     1       6.080   5.290  17.968  0.00  0.00    +0.000 C 
ATOM     12  C   UNL     1       7.250   5.437  17.018  0.00  0.00    +0.000 C 
ATOM     13  O   UNL     1       7.767   4.491  16.439  0.00  0.00    +0.000 OA
ATOM     14  O   UNL     1       7.785   6.676  16.941  0.00  0.00    +0.000 OA
ATOM     15  C   UNL     1       7.069   7.892  17.255  0.00  0.00    +0.000 C 
ATOM     16  C   UNL     1       5.830   7.710  18.146  0.00  0.00    +0.000 C 
ATOM     17  C   UNL     1       5.042   6.423  17.812  0.00  0.00    +0.000 C 
ATOM     18  C   UNL     1       4.532   6.514  16.352  0.00  0.00    +0.000 C 
ENDROOT
BRANCH  15  19
ATOM     19  C   UNL     1       8.016   8.885  17.849  0.00  0.00    +0.000 A 
ATOM     20  C   UNL     1       8.244  10.227  17.422  0.00  0.00    +0.000 A 
ATOM     21  C   UNL     1       9.199  10.744  18.263  0.00  0.00    +0.000 A 
ATOM     22  O   UNL     1       9.575   9.819  19.182  0.00  0.00    +0.000 OA
ATOM     23  C   UNL     1       8.852   8.698  18.931  0.00  0.00    +0.000 A 
ENDBRANCH  15  19
BRANCH   1  24
ATOM     24  C   UNL     1       1.704   3.409  20.650  0.00  0.00    +0.000 C 
ATOM     25  O   UNL     1       2.083   2.596  21.467  0.00  0.00    +0.000 OA
BRANCH  24  27
ATOM     26  C   UNL     1       0.595   2.099  19.007  0.00  0.00    +0.000 C 
ATOM     27  O   UNL     1       0.608   3.260  19.850  0.00  0.00    +0.000 OA
ENDBRANCH  24  27
ENDBRANCH   1  24
BRANCH   3  28
ATOM     28  O   UNL     1       0.983   8.277  20.256  0.00  0.00    +0.000 OA
BRANCH  28  29
ATOM     29  C   UNL     1       0.966   9.064  21.361  0.00  0.00    +0.000 C 
ATOM     30  O   UNL     1       1.706   8.936  22.327  0.00  0.00    +0.000 OA
BRANCH  29  31
ATOM     31  C   UNL     1      -0.089  10.104  21.299  0.00  0.00    +0.000 A 
ATOM     32  C   UNL     1      -0.443  10.631  20.048  0.00  0.00    +0.000 A 
ATOM     33  C   UNL     1      -1.336  11.701  19.967  0.00  0.00    +0.000 A 
ATOM     34  C   UNL     1      -1.882  12.239  21.131  0.00  0.00    +0.000 A 
ATOM     35  C   UNL     1      -1.555  11.696  22.375  0.00  0.00    +0.000 A 
ATOM     36  C   UNL     1      -0.666  10.622  22.462  0.00  0.00    +0.000 A 
ENDBRANCH  29  31
ENDBRANCH  28  29
ENDBRANCH   3  28
TORSDOF 6
ENDMDL
MODEL 2
REMARK VINA RESULT:      -8.3      0.984      1.179
REMARK  Name = 
REMARK  9 active torsions:
REMARK  status: ('A' for Active; 'I' for Inactive)
REMARK    1  A    between atoms: C_1  and  O_2
REMARK    2  A    between atoms: O_2  and  C_3
REMARK    3  A    between atoms: C_3  and  C_5
REMARK    4  A    between atoms: C_7  and  O_8
REMARK    5  A    between atoms: O_8  and  C_9
REMARK    6  A    between atoms: C_9  and  C_11
REMARK    7  A    between atoms: C_20  and  C_21
REMARK    8  A    between atoms: C_28  and  C_29
REMARK    9  A    between atoms: C_35  and  C_36
REMARK                            x       y       z     vdW  Elec       q    Type
REMARK                         _______ _______ _______ _____ _____    ______ ____
ROOT
ATOM      1  C   UNL     1       2.388   4.785  20.480  0.00  0.00    +0.000 C 
ATOM      2  C   UNL     1       1.330   5.917  20.402  0.00  0.00    +0.000 C 
ATOM      3  C   UNL     1       1.921   7.296  20.091  0.00  0.00    +0.000 C 
ATOM      4  C   UNL     1       2.803   7.165  18.840  0.00  0.00    +0.000 C 
ATOM      5  O   UNL     1       2.607   7.793  17.811  0.00  0.00    +0.000 OA
ATOM      6  C   UNL     1       3.935   6.132  18.982  0.00  0.00    +0.000 C 
ATOM      7  C   UNL     1       3.286   4.711  19.173  0.00  0.00    +0.000 C 
ATOM      8  C   UNL     1       2.406   4.320  17.957  0.00  0.00    +0.000 C 
ATOM      9  C   UNL     1       4.440   3.686  19.367  0.00  0.00    +0.000 C 
ATOM     10  C   UNL     1       5.561   3.781  18.328  0.00  0.00    +0.000 C 
ATOM     11  C   UNL     1       6.171   5.181  18.303  0.00  0.00    +0.000 C 
ATOM     12  C   UNL     1       7.398   5.256  17.418  0.00  0.00    +0.000 C 
ATOM     13  O   UNL     1       7.973   4.267  16.985  0.00  0.00    +0.000 OA
ATOM     14  O   UNL     1       7.909   6.493  17.236  0.00  0.00    +0.000 OA
ATOM     15  C   UNL     1       7.147   7.715  17.364  0.00  0.00    +0.000 C 
ATOM     16  C   UNL     1       5.857   7.598  18.190  0.00  0.00    +0.000 C 
ATOM     17  C   UNL     1       5.121   6.259  17.954  0.00  0.00    +0.000 C 
ATOM     18  C   UNL     1       4.707   6.171  16.464  0.00  0.00    +0.000 C 
ENDROOT
BRANCH  15  19
ATOM     19  C   UNL     1       8.031   8.796  17.901  0.00  0.00    +0.000 A 
ATOM     20  C   UNL     1       8.164  10.129  17.411  0.00  0.00    +0.000 A 
ATOM     21  C   UNL     1       9.090  10.747  18.216  0.00  0.00    +0.000 A 
ATOM     22  O   UNL     1       9.535   9.893  19.171  0.00  0.00    +0.000 OA
ATOM     23  C   UNL     1       8.887   8.716  18.981  0.00  0.00    +0.000 A 
ENDBRANCH  15  19
BRANCH   1  24
ATOM     24  C   UNL     1       1.670   3.483  20.898  0.00  0.00    +0.000 C 
ATOM     25  O   UNL     1       2.050   2.742  21.779  0.00  0.00    +0.000 OA
BRANCH  24  27
ATOM     26  C   UNL     1       0.632   2.089  19.276  0.00  0.00    +0.000 C 
ATOM     27  O   UNL     1       0.580   3.260  20.105  0.00  0.00    +0.000 OA
ENDBRANCH  24  27
ENDBRANCH   1  24
BRANCH   3  28
ATOM     28  O   UNL     1       0.868   8.254  19.910  0.00  0.00    +0.000 OA
BRANCH  28  29
ATOM     29  C   UNL     1       0.977   9.354  20.696  0.00  0.00    +0.000 C 
ATOM     30  O   UNL     1       1.360   9.353  21.858  0.00  0.00    +0.000 OA
BRANCH  29  31
ATOM     31  C   UNL     1       0.543  10.590  20.001  0.00  0.00    +0.000 A 
ATOM     32  C   UNL     1       1.100  11.816  20.394  0.00  0.00    +0.000 A 
ATOM     33  C   UNL     1       0.619  13.009  19.852  0.00  0.00    +0.000 A 
ATOM     34  C   UNL     1      -0.412  12.979  18.913  0.00  0.00    +0.000 A 
ATOM     35  C   UNL     1      -0.946  11.759  18.498  0.00  0.00    +0.000 A 
ATOM     36  C   UNL     1      -0.465  10.561  19.033  0.00  0.00    +0.000 A 
ENDBRANCH  29  31
ENDBRANCH  28  29
ENDBRANCH   3  28
TORSDOF 6
ENDMDL
MODEL 3
REMARK VINA RESULT:      -8.3      0.477      1.161
REMARK  Name = 
REMARK  9 active torsions:
REMARK  status: ('A' for Active; 'I' for Inactive)
REMARK    1  A    between atoms: C_1  and  O_2
REMARK    2  A    between atoms: O_2  and  C_3
REMARK    3  A    between atoms: C_3  and  C_5
REMARK    4  A    between atoms: C_7  and  O_8
REMARK    5  A    between atoms: O_8  and  C_9
REMARK    6  A    between atoms: C_9  and  C_11
REMARK    7  A    between atoms: C_20  and  C_21
REMARK    8  A    between atoms: C_28  and  C_29
REMARK    9  A    between atoms: C_35  and  C_36
REMARK                            x       y       z     vdW  Elec       q    Type
REMARK                         _______ _______ _______ _____ _____    ______ ____
ROOT
ATOM      1  C   UNL     1       2.367   4.867  20.348  0.00  0.00    +0.000 C 
ATOM      2  C   UNL     1       1.343   6.032  20.390  0.00  0.00    +0.000 C 
ATOM      3  C   UNL     1       1.966   7.412  20.158  0.00  0.00    +0.000 C 
ATOM      4  C   UNL     1       2.802   7.347  18.871  0.00  0.00    +0.000 C 
ATOM      5  O   UNL     1       2.592   8.055  17.898  0.00  0.00    +0.000 OA
ATOM      6  C   UNL     1       3.905   6.275  18.898  0.00  0.00    +0.000 C 
ATOM      7  C   UNL     1       3.218   4.863  19.009  0.00  0.00    +0.000 C 
ATOM      8  C   UNL     1       2.286   4.588  17.799  0.00  0.00    +0.000 C 
ATOM      9  C   UNL     1       4.345   3.793  19.086  0.00  0.00    +0.000 C 
ATOM     10  C   UNL     1       5.433   3.932  18.018  0.00  0.00    +0.000 C 
ATOM     11  C   UNL     1       6.086   5.312  18.073  0.00  0.00    +0.000 C 
ATOM     12  C   UNL     1       7.285   5.416  17.153  0.00  0.00    +0.000 C 
ATOM     13  O   UNL     1       7.813   4.445  16.629  0.00  0.00    +0.000 OA
ATOM     14  O   UNL     1       7.829   6.648  17.044  0.00  0.00    +0.000 OA
ATOM     15  C   UNL     1       7.110   7.879  17.287  0.00  0.00    +0.000 C 
ATOM     16  C   UNL     1       5.845   7.738  18.147  0.00  0.00    +0.000 C 
ATOM     17  C   UNL     1       5.060   6.442  17.840  0.00  0.00    +0.000 C 
ATOM     18  C   UNL     1       4.594   6.477  16.363  0.00  0.00    +0.000 C 
ENDROOT
BRANCH  15  19
ATOM     19  C   UNL     1       8.045   8.891  17.868  0.00  0.00    +0.000 A 
ATOM     20  C   UNL     1       8.249  10.233  17.432  0.00  0.00    +0.000 A 
ATOM     21  C   UNL     1       9.200  10.771  18.264  0.00  0.00    +0.000 A 
ATOM     22  O   UNL     1       9.596   9.858  19.186  0.00  0.00    +0.000 OA
ATOM     23  C   UNL     1       8.890   8.725  18.948  0.00  0.00    +0.000 A 
ENDBRANCH  15  19
BRANCH   1  24
ATOM     24  C   UNL     1       1.621   3.559  20.695  0.00  0.00    +0.000 C 
ATOM     25  O   UNL     1       0.704   3.099  20.049  0.00  0.00    +0.000 OA
BRANCH  24  27
ATOM     26  C   UNL     1       3.065   1.967  21.710  0.00  0.00    +0.000 C 
ATOM     27  O   UNL     1       2.106   3.024  21.855  0.00  0.00    +0.000 OA
ENDBRANCH  24  27
ENDBRANCH   1  24
BRANCH   3  28
ATOM     28  O   UNL     1       0.939   8.411  20.085  0.00  0.00    +0.000 OA
BRANCH  28  29
ATOM     29  C   UNL     1       0.841   9.190  21.191  0.00  0.00    +0.000 C 
ATOM     30  O   UNL     1       1.417   8.983  22.250  0.00  0.00    +0.000 OA
BRANCH  29  31
ATOM     31  C   UNL     1      -0.085  10.331  20.998  0.00  0.00    +0.000 A 
ATOM     32  C   UNL     1      -0.510  11.053  22.124  0.00  0.00    +0.000 A 
ATOM     33  C   UNL     1      -1.480  12.048  21.992  0.00  0.00    +0.000 A 
ATOM     34  C   UNL     1      -2.022  12.327  20.739  0.00  0.00    +0.000 A 
ATOM     35  C   UNL     1      -1.579  11.632  19.613  0.00  0.00    +0.000 A 
ATOM     36  C   UNL     1      -0.603  10.639  19.737  0.00  0.00    +0.000 A 
ENDBRANCH  29  31
ENDBRANCH  28  29
ENDBRANCH   3  28
TORSDOF 6
ENDMDL
MODEL 4
REMARK VINA RESULT:      -8.2      0.961      1.384
REMARK  Name = 
REMARK  9 active torsions:
REMARK  status: ('A' for Active; 'I' for Inactive)
REMARK    1  A    between atoms: C_1  and  O_2
REMARK    2  A    between atoms: O_2  and  C_3
REMARK    3  A    between atoms: C_3  and  C_5
REMARK    4  A    between atoms: C_7  and  O_8
REMARK    5  A    between atoms: O_8  and  C_9
REMARK    6  A    between atoms: C_9  and  C_11
REMARK    7  A    between atoms: C_20  and  C_21
REMARK    8  A    between atoms: C_28  and  C_29
REMARK    9  A    between atoms: C_35  and  C_36
REMARK                            x       y       z     vdW  Elec       q    Type
REMARK                         _______ _______ _______ _____ _____    ______ ____
ROOT
ATOM      1  C   UNL     1       2.150   5.258  20.069  0.00  0.00    +0.000 C 
ATOM      2  C   UNL     1       1.137   6.404  19.804  0.00  0.00    +0.000 C 
ATOM      3  C   UNL     1       1.796   7.747  19.475  0.00  0.00    +0.000 C 
ATOM      4  C   UNL     1       2.806   7.517  18.340  0.00  0.00    +0.000 C 
ATOM      5  O   UNL     1       2.741   8.081  17.259  0.00  0.00    +0.000 OA
ATOM      6  C   UNL     1       3.887   6.474  18.671  0.00  0.00    +0.000 C 
ATOM      7  C   UNL     1       3.183   5.081  18.878  0.00  0.00    +0.000 C 
ATOM      8  C   UNL     1       2.431   4.629  17.598  0.00  0.00    +0.000 C 
ATOM      9  C   UNL     1       4.281   4.048  19.262  0.00  0.00    +0.000 C 
ATOM     10  C   UNL     1       5.510   4.053  18.349  0.00  0.00    +0.000 C 
ATOM     11  C   UNL     1       6.157   5.436  18.305  0.00  0.00    +0.000 C 
ATOM     12  C   UNL     1       7.476   5.429  17.559  0.00  0.00    +0.000 C 
ATOM     13  O   UNL     1       8.067   4.402  17.255  0.00  0.00    +0.000 OA
ATOM     14  O   UNL     1       8.037   6.641  17.358  0.00  0.00    +0.000 OA
ATOM     15  C   UNL     1       7.299   7.884  17.324  0.00  0.00    +0.000 C 
ATOM     16  C   UNL     1       5.923   7.846  18.008  0.00  0.00    +0.000 C 
ATOM     17  C   UNL     1       5.182   6.510  17.775  0.00  0.00    +0.000 C 
ATOM     18  C   UNL     1       4.931   6.334  16.257  0.00  0.00    +0.000 C 
ENDROOT
BRANCH  15  19
ATOM     19  C   UNL     1       8.147   8.979  17.887  0.00  0.00    +0.000 A 
ATOM     20  C   UNL     1       8.280  10.312  17.396  0.00  0.00    +0.000 A 
ATOM     21  C   UNL     1       9.167  10.947  18.231  0.00  0.00    +0.000 A 
ATOM     22  O   UNL     1       9.589  10.102  19.205  0.00  0.00    +0.000 OA
ATOM     23  C   UNL     1       8.965   8.916  18.998  0.00  0.00    +0.000 A 
ENDBRANCH  15  19
BRANCH   1  24
ATOM     24  C   UNL     1       1.355   4.001  20.485  0.00  0.00    +0.000 C 
ATOM     25  O   UNL     1       0.468   3.500  19.826  0.00  0.00    +0.000 OA
BRANCH  24  27
ATOM     26  C   UNL     1       2.447   2.309  21.747  0.00  0.00    +0.000 C 
ATOM     27  O   UNL     1       1.754   3.565  21.716  0.00  0.00    +0.000 OA
ENDBRANCH  24  27
ENDBRANCH   1  24
BRANCH   3  28
ATOM     28  O   UNL     1       0.796   8.712  19.119  0.00  0.00    +0.000 OA
BRANCH  28  29
ATOM     29  C   UNL     1       1.002   9.946  19.645  0.00  0.00    +0.000 C 
ATOM     30  O   UNL     1       1.775  10.781  19.196  0.00  0.00    +0.000 OA
BRANCH  29  31
ATOM     31  C   UNL     1       0.201  10.179  20.870  0.00  0.00    +0.000 A 
ATOM     32  C   UNL     1      -0.639  11.301  20.923  0.00  0.00    +0.000 A 
ATOM     33  C   UNL     1      -1.306  11.621  22.107  0.00  0.00    +0.000 A 
ATOM     34  C   UNL     1      -1.141  10.818  23.235  0.00  0.00    +0.000 A 
ATOM     35  C   UNL     1      -0.331   9.683  23.175  0.00  0.00    +0.000 A 
ATOM     36  C   UNL     1       0.334   9.355  21.991  0.00  0.00    +0.000 A 
ENDBRANCH  29  31
ENDBRANCH  28  29
ENDBRANCH   3  28
TORSDOF 6
ENDMDL
MODEL 5
REMARK VINA RESULT:      -8.1      0.720      1.125
REMARK  Name = 
REMARK  9 active torsions:
REMARK  status: ('A' for Active; 'I' for Inactive)
REMARK    1  A    between atoms: C_1  and  O_2
REMARK    2  A    between atoms: O_2  and  C_3
REMARK    3  A    between atoms: C_3  and  C_5
REMARK    4  A    between atoms: C_7  and  O_8
REMARK    5  A    between atoms: O_8  and  C_9
REMARK    6  A    between atoms: C_9  and  C_11
REMARK    7  A    between atoms: C_20  and  C_21
REMARK    8  A    between atoms: C_28  and  C_29
REMARK    9  A    between atoms: C_35  and  C_36
REMARK                            x       y       z     vdW  Elec       q    Type
REMARK                         _______ _______ _______ _____ _____    ______ ____
ROOT
ATOM      1  C   UNL     1       2.305   5.038  20.354  0.00  0.00    +0.000 C 
ATOM      2  C   UNL     1       1.271   6.192  20.277  0.00  0.00    +0.000 C 
ATOM      3  C   UNL     1       1.892   7.561  19.981  0.00  0.00    +0.000 C 
ATOM      4  C   UNL     1       2.782   7.422  18.736  0.00  0.00    +0.000 C 
ATOM      5  O   UNL     1       2.607   8.062  17.712  0.00  0.00    +0.000 OA
ATOM      6  C   UNL     1       3.891   6.365  18.879  0.00  0.00    +0.000 C 
ATOM      7  C   UNL     1       3.211   4.956  19.054  0.00  0.00    +0.000 C 
ATOM      8  C   UNL     1       2.333   4.593  17.828  0.00  0.00    +0.000 C 
ATOM      9  C   UNL     1       4.342   3.906  19.248  0.00  0.00    +0.000 C 
ATOM     10  C   UNL     1       5.472   3.986  18.218  0.00  0.00    +0.000 C 
ATOM     11  C   UNL     1       6.112   5.373  18.210  0.00  0.00    +0.000 C 
ATOM     12  C   UNL     1       7.347   5.430  17.335  0.00  0.00    +0.000 C 
ATOM     13  O   UNL     1       7.905   4.432  16.898  0.00  0.00    +0.000 OA
ATOM     14  O   UNL     1       7.886   6.658  17.167  0.00  0.00    +0.000 OA
ATOM     15  C   UNL     1       7.148   7.894  17.299  0.00  0.00    +0.000 C 
ATOM     16  C   UNL     1       5.849   7.797  18.114  0.00  0.00    +0.000 C 
ATOM     17  C   UNL     1       5.088   6.475  17.861  0.00  0.00    +0.000 C 
ATOM     18  C   UNL     1       4.684   6.408  16.367  0.00  0.00    +0.000 C 
ENDROOT
BRANCH  15  19
ATOM     19  C   UNL     1       8.049   8.952  17.851  0.00  0.00    +0.000 A 
ATOM     20  C   UNL     1       8.926   8.845  18.972  0.00  0.00    +0.000 A 
ATOM     21  C   UNL     1       9.541  10.067  19.100  0.00  0.00    +0.000 A 
ATOM     22  O   UNL     1       9.110  10.920  18.137  0.00  0.00    +0.000 OA
ATOM     23  C   UNL     1       8.213  10.239  17.380  0.00  0.00    +0.000 A 
ENDBRANCH  15  19
BRANCH   1  24
ATOM     24  C   UNL     1       1.556   3.748  20.755  0.00  0.00    +0.000 C 
ATOM     25  O   UNL     1       0.594   3.302  20.167  0.00  0.00    +0.000 OA
BRANCH  24  27
ATOM     26  C   UNL     1       2.664   1.900  21.759  0.00  0.00    +0.000 C 
ATOM     27  O   UNL     1       2.097   3.212  21.889  0.00  0.00    +0.000 OA
ENDBRANCH  24  27
ENDBRANCH   1  24
BRANCH   3  28
ATOM     28  O   UNL     1       0.861   8.542  19.800  0.00  0.00    +0.000 OA
BRANCH  28  29
ATOM     29  C   UNL     1       0.701   9.381  20.854  0.00  0.00    +0.000 C 
ATOM     30  O   UNL     1       1.334   9.326  21.900  0.00  0.00    +0.000 OA
BRANCH  29  31
ATOM     31  C   UNL     1      -0.369  10.381  20.623  0.00  0.00    +0.000 A 
ATOM     32  C   UNL     1      -0.934  10.481  19.343  0.00  0.00    +0.000 A 
ATOM     33  C   UNL     1      -1.849  11.496  19.059  0.00  0.00    +0.000 A 
ATOM     34  C   UNL     1      -2.207  12.406  20.053  0.00  0.00    +0.000 A 
ATOM     35  C   UNL     1      -1.670  12.289  21.336  0.00  0.00    +0.000 A 
ATOM     36  C   UNL     1      -0.758  11.271  21.628  0.00  0.00    +0.000 A 
ENDBRANCH  29  31
ENDBRANCH  28  29
ENDBRANCH   3  28
TORSDOF 6
ENDMDL
MODEL 6
REMARK VINA RESULT:      -8.0      1.014      1.584
REMARK  Name = 
REMARK  9 active torsions:
REMARK  status: ('A' for Active; 'I' for Inactive)
REMARK    1  A    between atoms: C_1  and  O_2
REMARK    2  A    between atoms: O_2  and  C_3
REMARK    3  A    between atoms: C_3  and  C_5
REMARK    4  A    between atoms: C_7  and  O_8
REMARK    5  A    between atoms: O_8  and  C_9
REMARK    6  A    between atoms: C_9  and  C_11
REMARK    7  A    between atoms: C_20  and  C_21
REMARK    8  A    between atoms: C_28  and  C_29
REMARK    9  A    between atoms: C_35  and  C_36
REMARK                            x       y       z     vdW  Elec       q    Type
REMARK                         _______ _______ _______ _____ _____    ______ ____
ROOT
ATOM      1  C   UNL     1       2.180   5.241  20.198  0.00  0.00    +0.000 C 
ATOM      2  C   UNL     1       1.152   6.375  19.949  0.00  0.00    +0.000 C 
ATOM      3  C   UNL     1       1.790   7.723  19.596  0.00  0.00    +0.000 C 
ATOM      4  C   UNL     1       2.776   7.494  18.440  0.00  0.00    +0.000 C 
ATOM      5  O   UNL     1       2.681   8.051  17.357  0.00  0.00    +0.000 OA
ATOM      6  C   UNL     1       3.874   6.464  18.754  0.00  0.00    +0.000 C 
ATOM      7  C   UNL     1       3.188   5.066  18.985  0.00  0.00    +0.000 C 
ATOM      8  C   UNL     1       2.411   4.598  17.726  0.00  0.00    +0.000 C 
ATOM      9  C   UNL     1       4.304   4.045  19.351  0.00  0.00    +0.000 C 
ATOM     10  C   UNL     1       5.512   4.055  18.411  0.00  0.00    +0.000 C 
ATOM     11  C   UNL     1       6.145   5.444  18.343  0.00  0.00    +0.000 C 
ATOM     12  C   UNL     1       7.446   5.444  17.567  0.00  0.00    +0.000 C 
ATOM     13  O   UNL     1       8.041   4.420  17.256  0.00  0.00    +0.000 OA
ATOM     14  O   UNL     1       7.992   6.660  17.346  0.00  0.00    +0.000 OA
ATOM     15  C   UNL     1       7.241   7.896  17.321  0.00  0.00    +0.000 C 
ATOM     16  C   UNL     1       5.882   7.850  18.035  0.00  0.00    +0.000 C 
ATOM     17  C   UNL     1       5.148   6.505  17.828  0.00  0.00    +0.000 C 
ATOM     18  C   UNL     1       4.865   6.317  16.317  0.00  0.00    +0.000 C 
ENDROOT
BRANCH  15  19
ATOM     19  C   UNL     1       8.092   9.002  17.857  0.00  0.00    +0.000 A 
ATOM     20  C   UNL     1       8.966   8.956  18.983  0.00  0.00    +0.000 A 
ATOM     21  C   UNL     1       9.526  10.206  19.091  0.00  0.00    +0.000 A 
ATOM     22  O   UNL     1       9.064  11.020  18.110  0.00  0.00    +0.000 OA
ATOM     23  C   UNL     1       8.202  10.287  17.361  0.00  0.00    +0.000 A 
ENDBRANCH  15  19
BRANCH   1  24
ATOM     24  C   UNL     1       1.407   3.979  20.640  0.00  0.00    +0.000 C 
ATOM     25  O   UNL     1       0.450   3.520  20.054  0.00  0.00    +0.000 OA
BRANCH  24  27
ATOM     26  C   UNL     1       2.403   2.136  21.762  0.00  0.00    +0.000 C 
ATOM     27  O   UNL     1       1.919   3.486  21.806  0.00  0.00    +0.000 OA
ENDBRANCH  24  27
ENDBRANCH   1  24
BRANCH   3  28
ATOM     28  O   UNL     1       0.773   8.676  19.257  0.00  0.00    +0.000 OA
BRANCH  28  29
ATOM     29  C   UNL     1       1.040   9.943  19.664  0.00  0.00    +0.000 C 
ATOM     30  O   UNL     1       1.796  10.719  19.096  0.00  0.00    +0.000 OA
BRANCH  29  31
ATOM     31  C   UNL     1       0.334  10.294  20.919  0.00  0.00    +0.000 A 
ATOM     32  C   UNL     1       0.230   9.325  21.928  0.00  0.00    +0.000 A 
ATOM     33  C   UNL     1      -0.539   9.579  23.065  0.00  0.00    +0.000 A 
ATOM     34  C   UNL     1      -1.198  10.800  23.200  0.00  0.00    +0.000 A 
ATOM     35  C   UNL     1      -1.070  11.777  22.211  0.00  0.00    +0.000 A 
ATOM     36  C   UNL     1      -0.297  11.531  21.074  0.00  0.00    +0.000 A 
ENDBRANCH  29  31
ENDBRANCH  28  29
ENDBRANCH   3  28
TORSDOF 6
ENDMDL
MODEL 7
REMARK VINA RESULT:      -7.7      1.081      1.535
REMARK  Name = 
REMARK  9 active torsions:
REMARK  status: ('A' for Active; 'I' for Inactive)
REMARK    1  A    between atoms: C_1  and  O_2
REMARK    2  A    between atoms: O_2  and  C_3
REMARK    3  A    between atoms: C_3  and  C_5
REMARK    4  A    between atoms: C_7  and  O_8
REMARK    5  A    between atoms: O_8  and  C_9
REMARK    6  A    between atoms: C_9  and  C_11
REMARK    7  A    between atoms: C_20  and  C_21
REMARK    8  A    between atoms: C_28  and  C_29
REMARK    9  A    between atoms: C_35  and  C_36
REMARK                            x       y       z     vdW  Elec       q    Type
REMARK                         _______ _______ _______ _____ _____    ______ ____
ROOT
ATOM      1  C   UNL     1       2.470   4.244  19.764  0.00  0.00    +0.000 C 
ATOM      2  C   UNL     1       1.398   5.339  20.007  0.00  0.00    +0.000 C 
ATOM      3  C   UNL     1       1.954   6.766  19.982  0.00  0.00    +0.000 C 
ATOM      4  C   UNL     1       2.758   6.941  18.684  0.00  0.00    +0.000 C 
ATOM      5  O   UNL     1       2.492   7.780  17.838  0.00  0.00    +0.000 OA
ATOM      6  C   UNL     1       3.907   5.931  18.523  0.00  0.00    +0.000 C 
ATOM      7  C   UNL     1       3.285   4.488  18.425  0.00  0.00    +0.000 C 
ATOM      8  C   UNL     1       2.335   4.360  17.205  0.00  0.00    +0.000 C 
ATOM      9  C   UNL     1       4.460   3.473  18.313  0.00  0.00    +0.000 C 
ATOM     10  C   UNL     1       5.512   3.827  17.258  0.00  0.00    +0.000 C 
ATOM     11  C   UNL     1       6.105   5.210  17.516  0.00  0.00    +0.000 C 
ATOM     12  C   UNL     1       7.274   5.512  16.601  0.00  0.00    +0.000 C 
ATOM     13  O   UNL     1       7.831   4.660  15.922  0.00  0.00    +0.000 OA
ATOM     14  O   UNL     1       7.761   6.771  16.675  0.00  0.00    +0.000 OA
ATOM     15  C   UNL     1       6.996   7.914  17.120  0.00  0.00    +0.000 C 
ATOM     16  C   UNL     1       5.761   7.582  17.972  0.00  0.00    +0.000 C 
ATOM     17  C   UNL     1       5.025   6.314  17.482  0.00  0.00    +0.000 C 
ATOM     18  C   UNL     1       4.520   6.555  16.038  0.00  0.00    +0.000 C 
ENDROOT
BRANCH  15  19
ATOM     19  C   UNL     1       7.900   8.866  17.835  0.00  0.00    +0.000 A 
ATOM     20  C   UNL     1       8.742   8.589  18.953  0.00  0.00    +0.000 A 
ATOM     21  C   UNL     1       9.376   9.768  19.263  0.00  0.00    +0.000 A 
ATOM     22  O   UNL     1       8.989  10.753  18.414  0.00  0.00    +0.000 OA
ATOM     23  C   UNL     1       8.101  10.202  17.548  0.00  0.00    +0.000 A 
ENDBRANCH  15  19
BRANCH   1  24
ATOM     24  C   UNL     1       1.792   2.864  19.917  0.00  0.00    +0.000 C 
ATOM     25  O   UNL     1       1.750   2.020  19.048  0.00  0.00    +0.000 OA
BRANCH  24  27
ATOM     26  C   UNL     1       2.088   2.836  22.275  0.00  0.00    +0.000 C 
ATOM     27  O   UNL     1       1.207   2.751  21.146  0.00  0.00    +0.000 OA
ENDBRANCH  24  27
ENDBRANCH   1  24
BRANCH   3  28
ATOM     28  O   UNL     1       0.883   7.715  20.085  0.00  0.00    +0.000 OA
BRANCH  28  29
ATOM     29  C   UNL     1       1.161   8.784  20.872  0.00  0.00    +0.000 C 
ATOM     30  O   UNL     1       1.683   8.727  21.976  0.00  0.00    +0.000 OA
BRANCH  29  31
ATOM     31  C   UNL     1       0.728  10.063  20.260  0.00  0.00    +0.000 A 
ATOM     32  C   UNL     1       1.045  11.264  20.913  0.00  0.00    +0.000 A 
ATOM     33  C   UNL     1       0.541  12.475  20.434  0.00  0.00    +0.000 A 
ATOM     34  C   UNL     1      -0.271  12.489  19.301  0.00  0.00    +0.000 A 
ATOM     35  C   UNL     1      -0.561  11.299  18.632  0.00  0.00    +0.000 A 
ATOM     36  C   UNL     1      -0.056  10.085  19.103  0.00  0.00    +0.000 A 
ENDBRANCH  29  31
ENDBRANCH  28  29
ENDBRANCH   3  28
TORSDOF 6
ENDMDL
MODEL 8
REMARK VINA RESULT:      -7.6      3.923      8.114
REMARK  Name = 
REMARK  9 active torsions:
REMARK  status: ('A' for Active; 'I' for Inactive)
REMARK    1  A    between atoms: C_1  and  O_2
REMARK    2  A    between atoms: O_2  and  C_3
REMARK    3  A    between atoms: C_3  and  C_5
REMARK    4  A    between atoms: C_7  and  O_8
REMARK    5  A    between atoms: O_8  and  C_9
REMARK    6  A    between atoms: C_9  and  C_11
REMARK    7  A    between atoms: C_20  and  C_21
REMARK    8  A    between atoms: C_28  and  C_29
REMARK    9  A    between atoms: C_35  and  C_36
REMARK                            x       y       z     vdW  Elec       q    Type
REMARK                         _______ _______ _______ _____ _____    ______ ____
ROOT
ATOM      1  C   UNL     1      -0.734  10.576  17.907  0.00  0.00    +0.000 C 
ATOM      2  C   UNL     1      -0.172   9.273  18.533  0.00  0.00    +0.000 C 
ATOM      3  C   UNL     1       1.237   9.424  19.116  0.00  0.00    +0.000 C 
ATOM      4  C   UNL     1       1.231  10.633  20.065  0.00  0.00    +0.000 C 
ATOM      5  O   UNL     1       1.508  10.556  21.252  0.00  0.00    +0.000 OA
ATOM      6  C   UNL     1       0.801  11.949  19.394  0.00  0.00    +0.000 C 
ATOM      7  C   UNL     1      -0.693  11.796  18.921  0.00  0.00    +0.000 C 
ATOM      8  C   UNL     1      -1.642  11.514  20.115  0.00  0.00    +0.000 C 
ATOM      9  C   UNL     1      -1.098  13.114  18.199  0.00  0.00    +0.000 C 
ATOM     10  C   UNL     1      -0.763  14.394  18.970  0.00  0.00    +0.000 C 
ATOM     11  C   UNL     1       0.729  14.469  19.289  0.00  0.00    +0.000 C 
ATOM     12  C   UNL     1       1.121  15.804  19.888  0.00  0.00    +0.000 C 
ATOM     13  O   UNL     1       0.388  16.783  19.880  0.00  0.00    +0.000 OA
ATOM     14  O   UNL     1       2.396  15.894  20.325  0.00  0.00    +0.000 OA
ATOM     15  C   UNL     1       3.200  14.761  20.727  0.00  0.00    +0.000 C 
ATOM     16  C   UNL     1       2.733  13.402  20.182  0.00  0.00    +0.000 C 
ATOM     17  C   UNL     1       1.193  13.273  20.150  0.00  0.00    +0.000 C 
ATOM     18  C   UNL     1       0.651  13.385  21.597  0.00  0.00    +0.000 C 
ENDROOT
BRANCH  15  19
ATOM     19  C   UNL     1       4.630  15.018  20.372  0.00  0.00    +0.000 A 
ATOM     20  C   UNL     1       5.160  15.337  19.086  0.00  0.00    +0.000 A 
ATOM     21  C   UNL     1       6.517  15.479  19.250  0.00  0.00    +0.000 A 
ATOM     22  O   UNL     1       6.863  15.273  20.546  0.00  0.00    +0.000 OA
ATOM     23  C   UNL     1       5.718  15.001  21.222  0.00  0.00    +0.000 A 
ENDBRANCH  15  19
BRANCH   1  24
ATOM     24  C   UNL     1      -2.105  10.253  17.272  0.00  0.00    +0.000 C 
ATOM     25  O   UNL     1      -2.955   9.560  17.791  0.00  0.00    +0.000 OA
BRANCH  24  27
ATOM     26  C   UNL     1      -3.508  10.797  15.433  0.00  0.00    +0.000 C 
ATOM     27  O   UNL     1      -2.203  10.812  16.030  0.00  0.00    +0.000 OA
ENDBRANCH  24  27
ENDBRANCH   1  24
BRANCH   3  28
ATOM     28  O   UNL     1       1.626   8.216  19.785  0.00  0.00    +0.000 OA
BRANCH  28  29
ATOM     29  C   UNL     1       2.387   7.384  19.031  0.00  0.00    +0.000 C 
ATOM     30  O   UNL     1       3.235   7.743  18.226  0.00  0.00    +0.000 OA
BRANCH  29  31
ATOM     31  C   UNL     1       2.057   5.956  19.258  0.00  0.00    +0.000 A 
ATOM     32  C   UNL     1       1.996   5.095  18.153  0.00  0.00    +0.000 A 
ATOM     33  C   UNL     1       1.562   3.778  18.316  0.00  0.00    +0.000 A 
ATOM     34  C   UNL     1       1.197   3.318  19.580  0.00  0.00    +0.000 A 
ATOM     35  C   UNL     1       1.288   4.165  20.686  0.00  0.00    +0.000 A 
ATOM     36  C   UNL     1       1.727   5.482  20.530  0.00  0.00    +0.000 A 
ENDBRANCH  29  31
ENDBRANCH  28  29
ENDBRANCH   3  28
TORSDOF 6
ENDMDL
MODEL 9
REMARK VINA RESULT:      -7.5      3.964      8.207
REMARK  Name = 
REMARK  9 active torsions:
REMARK  status: ('A' for Active; 'I' for Inactive)
REMARK    1  A    between atoms: C_1  and  O_2
REMARK    2  A    between atoms: O_2  and  C_3
REMARK    3  A    between atoms: C_3  and  C_5
REMARK    4  A    between atoms: C_7  and  O_8
REMARK    5  A    between atoms: O_8  and  C_9
REMARK    6  A    between atoms: C_9  and  C_11
REMARK    7  A    between atoms: C_20  and  C_21
REMARK    8  A    between atoms: C_28  and  C_29
REMARK    9  A    between atoms: C_35  and  C_36
REMARK                            x       y       z     vdW  Elec       q    Type
REMARK                         _______ _______ _______ _____ _____    ______ ____
ROOT
ATOM      1  C   UNL     1      -0.705  10.686  17.949  0.00  0.00    +0.000 C 
ATOM      2  C   UNL     1      -0.152   9.373  18.561  0.00  0.00    +0.000 C 
ATOM      3  C   UNL     1       1.256   9.510  19.150  0.00  0.00    +0.000 C 
ATOM      4  C   UNL     1       1.255  10.708  20.112  0.00  0.00    +0.000 C 
ATOM      5  O   UNL     1       1.528  10.615  21.299  0.00  0.00    +0.000 OA
ATOM      6  C   UNL     1       0.833  12.033  19.455  0.00  0.00    +0.000 C 
ATOM      7  C   UNL     1      -0.660  11.894  18.977  0.00  0.00    +0.000 C 
ATOM      8  C   UNL     1      -1.614  11.602  20.166  0.00  0.00    +0.000 C 
ATOM      9  C   UNL     1      -1.057  13.222  18.270  0.00  0.00    +0.000 C 
ATOM     10  C   UNL     1      -0.717  14.491  19.056  0.00  0.00    +0.000 C 
ATOM     11  C   UNL     1       0.775  14.555  19.380  0.00  0.00    +0.000 C 
ATOM     12  C   UNL     1       1.172  15.880  19.996  0.00  0.00    +0.000 C 
ATOM     13  O   UNL     1       0.444  16.864  19.997  0.00  0.00    +0.000 OA
ATOM     14  O   UNL     1       2.447  15.958  20.437  0.00  0.00    +0.000 OA
ATOM     15  C   UNL     1       3.244  14.817  20.827  0.00  0.00    +0.000 C 
ATOM     16  C   UNL     1       2.771  13.467  20.266  0.00  0.00    +0.000 C 
ATOM     17  C   UNL     1       1.230  13.347  20.228  0.00  0.00    +0.000 C 
ATOM     18  C   UNL     1       0.685  13.445  21.675  0.00  0.00    +0.000 C 
ENDROOT
BRANCH  15  19
ATOM     19  C   UNL     1       4.676  15.070  20.479  0.00  0.00    +0.000 A 
ATOM     20  C   UNL     1       5.801  15.026  21.353  0.00  0.00    +0.000 A 
ATOM     21  C   UNL     1       6.900  15.331  20.588  0.00  0.00    +0.000 A 
ATOM     22  O   UNL     1       6.535  15.558  19.301  0.00  0.00    +0.000 OA
ATOM     23  C   UNL     1       5.189  15.393  19.238  0.00  0.00    +0.000 A 
ENDBRANCH  15  19
BRANCH   1  24
ATOM     24  C   UNL     1      -2.076  10.377  17.307  0.00  0.00    +0.000 C 
ATOM     25  O   UNL     1      -2.898   9.619  17.777  0.00  0.00    +0.000 OA
BRANCH  24  27
ATOM     26  C   UNL     1      -3.138  10.467  15.182  0.00  0.00    +0.000 C 
ATOM     27  O   UNL     1      -2.209  11.035  16.118  0.00  0.00    +0.000 OA
ENDBRANCH  24  27
ENDBRANCH   1  24
BRANCH   3  28
ATOM     28  O   UNL     1       1.637   8.292  19.805  0.00  0.00    +0.000 OA
BRANCH  28  29
ATOM     29  C   UNL     1       2.358   7.445  19.029  0.00  0.00    +0.000 C 
ATOM     30  O   UNL     1       3.218   7.784  18.228  0.00  0.00    +0.000 OA
BRANCH  29  31
ATOM     31  C   UNL     1       1.967   6.028  19.225  0.00  0.00    +0.000 A 
ATOM     32  C   UNL     1       1.741   5.565  20.530  0.00  0.00    +0.000 A 
ATOM     33  C   UNL     1       1.500   4.210  20.760  0.00  0.00    +0.000 A 
ATOM     34  C   UNL     1       1.478   3.317  19.689  0.00  0.00    +0.000 A 
ATOM     35  C   UNL     1       1.671   3.781  18.387  0.00  0.00    +0.000 A 
ATOM     36  C   UNL     1       1.907   5.137  18.150  0.00  0.00    +0.000 A 
ENDBRANCH  29  31
ENDBRANCH  28  29
ENDBRANCH   3  28
TORSDOF 6
ENDMDL
