MODEL 1
REMARK VINA RESULT:      -8.4      0.000      0.000
REMARK  Name = 
REMARK  14 active torsions:
REMARK  status: ('A' for Active; 'I' for Inactive)
REMARK    1  A    between atoms: C_1  and  C_2
REMARK    2  A    between atoms: C_2  and  C_3
REMARK    3  A    between atoms: C_7  and  C_8
REMARK    4  A    between atoms: C_12  and  C_13
REMARK    5  A    between atoms: C_12  and  O_14
REMARK    6  A    between atoms: C_15  and  C_16
REMARK    7  A    between atoms: C_16  and  C_17
REMARK    8  A    between atoms: C_17  and  C_18
REMARK    9  A    between atoms: C_18  and  C_19
REMARK   10  A    between atoms: C_18  and  O_20
REMARK   11  A    between atoms: C_18  and  C_21
REMARK   12  A    between atoms: C_22  and  C_23
REMARK   13  A    between atoms: C_26  and  C_27
REMARK   14  A    between atoms: C_27  and  O_29
REMARK                            x       y       z     vdW  Elec       q    Type
REMARK                         _______ _______ _______ _____ _____    ______ ____
ROOT
ATOM      1  C   UNL     1       3.383   7.977  17.831  0.00  0.00    +0.000 C 
ENDROOT
BRANCH   1  15
ATOM      2  C   UNL     1       4.219   2.464  19.931  0.00  0.00    +0.000 C 
ATOM      3  C   UNL     1       3.253   2.737  18.767  0.00  0.00    +0.000 C 
ATOM      4  C   UNL     1       3.264   1.459  17.884  0.00  0.00    +0.000 C 
ATOM      5  C   UNL     1       1.801   2.909  19.274  0.00  0.00    +0.000 C 
ATOM      6  C   UNL     1       1.514   4.262  19.912  0.00  0.00    +0.000 C 
ATOM      7  C   UNL     1       1.897   5.436  19.003  0.00  0.00    +0.000 C 
ATOM      8  C   UNL     1       3.388   5.410  18.531  0.00  0.00    +0.000 C 
ATOM      9  C   UNL     1       4.251   5.754  19.766  0.00  0.00    +0.000 C 
ATOM     10  C   UNL     1       3.630   3.982  17.902  0.00  0.00    +0.000 C 
ATOM     11  C   UNL     1       5.006   3.872  17.233  0.00  0.00    +0.000 C 
ATOM     12  C   UNL     1       5.075   4.838  16.071  0.00  0.00    +0.000 C 
ATOM     13  C   UNL     1       4.955   6.289  16.527  0.00  0.00    +0.000 C 
ATOM     14  C   UNL     1       6.278   6.728  17.177  0.00  0.00    +0.000 C 
ATOM     15  C   UNL     1       3.627   6.497  17.379  0.00  0.00    +0.000 C 
BRANCH  13  16
ATOM     16  O   UNL     1       4.839   7.011  15.288  0.00  0.00    +0.000 OA
ATOM     17  H   UNL     1       4.476   6.418  14.609  0.00  0.00    +0.000 HD
ENDBRANCH  13  16
ENDBRANCH   1  15
BRANCH   1  18
ATOM     18  C   UNL     1       1.898   8.339  17.694  0.00  0.00    +0.000 C 
BRANCH  18  19
ATOM     19  C   UNL     1       1.388   9.683  18.215  0.00  0.00    +0.000 C 
ATOM     20  C   UNL     1       1.623   9.682  19.738  0.00  0.00    +0.000 C 
BRANCH  19  21
ATOM     21  O   UNL     1       2.111  10.760  17.633  0.00  0.00    +0.000 OA
ATOM     22  H   UNL     1       1.861  11.574  18.100  0.00  0.00    +0.000 HD
ENDBRANCH  19  21
BRANCH  19  23
ATOM     23  C   UNL     1      -0.085   9.865  17.946  0.00  0.00    +0.000 C 
ATOM     24  C   UNL     1      -0.783  10.980  18.209  0.00  0.00    +0.000 C 
BRANCH  24  25
ATOM     25  C   UNL     1      -2.236  11.104  18.042  0.00  0.00    +0.000 A 
ATOM     26  C   UNL     1      -2.943  11.807  19.019  0.00  0.00    +0.000 A 
ATOM     27  C   UNL     1      -4.333  11.901  18.958  0.00  0.00    +0.000 A 
ATOM     28  C   UNL     1      -5.034  11.300  17.907  0.00  0.00    +0.000 A 
ATOM     29  C   UNL     1      -4.332  10.644  16.890  0.00  0.00    +0.000 A 
ATOM     30  C   UNL     1      -2.938  10.552  16.959  0.00  0.00    +0.000 A 
BRANCH  28  31
ATOM     31  C   UNL     1      -6.511  11.424  17.899  0.00  0.00    +0.000 C 
ATOM     32  O   UNL     1      -7.080  12.361  17.346  0.00  0.00    +0.000 OA
BRANCH  31  33
ATOM     33  O   UNL     1      -7.170  10.466  18.571  0.00  0.00    +0.000 OA
ATOM     34  H   UNL     1      -6.610   9.746  18.918  0.00  0.00    +0.000 HD
ENDBRANCH  31  33
ENDBRANCH  28  31
ENDBRANCH  24  25
ENDBRANCH  19  23
ENDBRANCH  18  19
ENDBRANCH   1  18
TORSDOF 9
ENDMDL
MODEL 2
REMARK VINA RESULT:      -8.3      0.364      1.082
REMARK  Name = 
REMARK  14 active torsions:
REMARK  status: ('A' for Active; 'I' for Inactive)
REMARK    1  A    between atoms: C_1  and  C_2
REMARK    2  A    between atoms: C_2  and  C_3
REMARK    3  A    between atoms: C_7  and  C_8
REMARK    4  A    between atoms: C_12  and  C_13
REMARK    5  A    between atoms: C_12  and  O_14
REMARK    6  A    between atoms: C_15  and  C_16
REMARK    7  A    between atoms: C_16  and  C_17
REMARK    8  A    between atoms: C_17  and  C_18
REMARK    9  A    between atoms: C_18  and  C_19
REMARK   10  A    between atoms: C_18  and  O_20
REMARK   11  A    between atoms: C_18  and  C_21
REMARK   12  A    between atoms: C_22  and  C_23
REMARK   13  A    between atoms: C_26  and  C_27
REMARK   14  A    between atoms: C_27  and  O_29
REMARK                            x       y       z     vdW  Elec       q    Type
REMARK                         _______ _______ _______ _____ _____    ______ ____
ROOT
ATOM      1  C   UNL     1       3.536   7.972  17.646  0.00  0.00    +0.000 C 
ENDROOT
BRANCH   1  15
ATOM      2  C   UNL     1       4.231   2.485  19.863  0.00  0.00    +0.000 C 
ATOM      3  C   UNL     1       3.292   2.754  18.675  0.00  0.00    +0.000 C 
ATOM      4  C   UNL     1       3.298   1.459  17.816  0.00  0.00    +0.000 C 
ATOM      5  C   UNL     1       1.835   2.961  19.150  0.00  0.00    +0.000 C 
ATOM      6  C   UNL     1       1.560   4.331  19.758  0.00  0.00    +0.000 C 
ATOM      7  C   UNL     1       1.981   5.480  18.834  0.00  0.00    +0.000 C 
ATOM      8  C   UNL     1       3.481   5.420  18.394  0.00  0.00    +0.000 C 
ATOM      9  C   UNL     1       4.326   5.770  19.639  0.00  0.00    +0.000 C 
ATOM     10  C   UNL     1       3.709   3.975  17.795  0.00  0.00    +0.000 C 
ATOM     11  C   UNL     1       5.096   3.828  17.156  0.00  0.00    +0.000 C 
ATOM     12  C   UNL     1       5.205   4.771  15.978  0.00  0.00    +0.000 C 
ATOM     13  C   UNL     1       5.103   6.233  16.406  0.00  0.00    +0.000 C 
ATOM     14  C   UNL     1       6.420   6.660  17.073  0.00  0.00    +0.000 C 
ATOM     15  C   UNL     1       3.763   6.480  17.227  0.00  0.00    +0.000 C 
BRANCH  13  16
ATOM     16  O   UNL     1       5.024   6.934  15.151  0.00  0.00    +0.000 OA
ATOM     17  H   UNL     1       4.416   7.686  15.247  0.00  0.00    +0.000 HD
ENDBRANCH  13  16
ENDBRANCH   1  15
BRANCH   1  18
ATOM     18  C   UNL     1       2.039   8.306  17.647  0.00  0.00    +0.000 C 
BRANCH  18  19
ATOM     19  C   UNL     1       1.503   9.412  18.557  0.00  0.00    +0.000 C 
ATOM     20  C   UNL     1       1.764   8.956  20.006  0.00  0.00    +0.000 C 
BRANCH  19  21
ATOM     21  O   UNL     1       2.187  10.636  18.324  0.00  0.00    +0.000 OA
ATOM     22  H   UNL     1       2.338  10.716  17.368  0.00  0.00    +0.000 HD
ENDBRANCH  19  21
BRANCH  19  23
ATOM     23  C   UNL     1       0.021   9.623  18.369  0.00  0.00    +0.000 C 
ATOM     24  C   UNL     1      -0.613  10.796  18.506  0.00  0.00    +0.000 C 
BRANCH  24  25
ATOM     25  C   UNL     1      -2.069  10.964  18.426  0.00  0.00    +0.000 A 
ATOM     26  C   UNL     1      -2.771  10.126  17.558  0.00  0.00    +0.000 A 
ATOM     27  C   UNL     1      -4.146  10.282  17.381  0.00  0.00    +0.000 A 
ATOM     28  C   UNL     1      -4.839  11.274  18.083  0.00  0.00    +0.000 A 
ATOM     29  C   UNL     1      -4.155  12.081  19.000  0.00  0.00    +0.000 A 
ATOM     30  C   UNL     1      -2.777  11.921  19.171  0.00  0.00    +0.000 A 
BRANCH  28  31
ATOM     31  C   UNL     1      -6.297  11.399  17.847  0.00  0.00    +0.000 C 
ATOM     32  O   UNL     1      -7.114  10.730  18.472  0.00  0.00    +0.000 OA
BRANCH  31  33
ATOM     33  O   UNL     1      -6.649  12.262  16.880  0.00  0.00    +0.000 OA
ATOM     34  H   UNL     1      -5.965  12.916  16.641  0.00  0.00    +0.000 HD
ENDBRANCH  31  33
ENDBRANCH  28  31
ENDBRANCH  24  25
ENDBRANCH  19  23
ENDBRANCH  18  19
ENDBRANCH   1  18
TORSDOF 9
ENDMDL
MODEL 3
REMARK VINA RESULT:      -8.1      4.746      9.185
REMARK  Name = 
REMARK  14 active torsions:
REMARK  status: ('A' for Active; 'I' for Inactive)
REMARK    1  A    between atoms: C_1  and  C_2
REMARK    2  A    between atoms: C_2  and  C_3
REMARK    3  A    between atoms: C_7  and  C_8
REMARK    4  A    between atoms: C_12  and  C_13
REMARK    5  A    between atoms: C_12  and  O_14
REMARK    6  A    between atoms: C_15  and  C_16
REMARK    7  A    between atoms: C_16  and  C_17
REMARK    8  A    between atoms: C_17  and  C_18
REMARK    9  A    between atoms: C_18  and  C_19
REMARK   10  A    between atoms: C_18  and  O_20
REMARK   11  A    between atoms: C_18  and  C_21
REMARK   12  A    between atoms: C_22  and  C_23
REMARK   13  A    between atoms: C_26  and  C_27
REMARK   14  A    between atoms: C_27  and  O_29
REMARK                            x       y       z     vdW  Elec       q    Type
REMARK                         _______ _______ _______ _____ _____    ______ ____
ROOT
ATOM      1  C   UNL     1       4.785   6.328  17.337  0.00  0.00    +0.000 C 
ENDROOT
BRANCH   1  15
ATOM      2  C   UNL     1       1.396   2.047  19.723  0.00  0.00    +0.000 C 
ATOM      3  C   UNL     1       2.386   2.854  20.580  0.00  0.00    +0.000 C 
ATOM      4  C   UNL     1       1.772   2.919  22.006  0.00  0.00    +0.000 C 
ATOM      5  C   UNL     1       3.738   2.115  20.716  0.00  0.00    +0.000 C 
ATOM      6  C   UNL     1       4.632   2.207  19.486  0.00  0.00    +0.000 C 
ATOM      7  C   UNL     1       4.865   3.654  19.034  0.00  0.00    +0.000 C 
ATOM      8  C   UNL     1       3.547   4.450  18.757  0.00  0.00    +0.000 C 
ATOM      9  C   UNL     1       2.943   3.871  17.458  0.00  0.00    +0.000 C 
ATOM     10  C   UNL     1       2.657   4.299  20.054  0.00  0.00    +0.000 C 
ATOM     11  C   UNL     1       1.401   5.178  19.997  0.00  0.00    +0.000 C 
ATOM     12  C   UNL     1       1.813   6.633  19.961  0.00  0.00    +0.000 C 
ATOM     13  C   UNL     1       2.608   6.971  18.703  0.00  0.00    +0.000 C 
ATOM     14  C   UNL     1       1.651   7.048  17.503  0.00  0.00    +0.000 C 
ATOM     15  C   UNL     1       3.866   6.007  18.565  0.00  0.00    +0.000 C 
BRANCH  13  16
ATOM     16  O   UNL     1       3.066   8.312  18.958  0.00  0.00    +0.000 OA
ATOM     17  H   UNL     1       2.885   8.537  19.887  0.00  0.00    +0.000 HD
ENDBRANCH  13  16
ENDBRANCH   1  15
BRANCH   1  18
ATOM     18  C   UNL     1       5.792   7.428  17.696  0.00  0.00    +0.000 C 
BRANCH  18  19
ATOM     19  C   UNL     1       7.289   7.192  17.487  0.00  0.00    +0.000 C 
ATOM     20  C   UNL     1       7.778   6.372  18.697  0.00  0.00    +0.000 C 
BRANCH  19  21
ATOM     21  O   UNL     1       7.523   6.451  16.296  0.00  0.00    +0.000 OA
ATOM     22  H   UNL     1       7.236   6.995  15.546  0.00  0.00    +0.000 HD
ENDBRANCH  19  21
BRANCH  19  23
ATOM     23  C   UNL     1       8.057   8.488  17.430  0.00  0.00    +0.000 C 
ATOM     24  C   UNL     1       8.457   9.194  18.498  0.00  0.00    +0.000 C 
BRANCH  24  25
ATOM     25  C   UNL     1       9.108  10.507  18.425  0.00  0.00    +0.000 A 
ATOM     26  C   UNL     1       8.439  11.527  17.747  0.00  0.00    +0.000 A 
ATOM     27  C   UNL     1       9.035  12.777  17.579  0.00  0.00    +0.000 A 
ATOM     28  C   UNL     1      10.308  13.026  18.102  0.00  0.00    +0.000 A 
ATOM     29  C   UNL     1      10.964  12.030  18.835  0.00  0.00    +0.000 A 
ATOM     30  C   UNL     1      10.362  10.779  18.997  0.00  0.00    +0.000 A 
BRANCH  28  31
ATOM     31  C   UNL     1      10.896  14.369  17.885  0.00  0.00    +0.000 C 
ATOM     32  O   UNL     1      11.462  14.982  18.786  0.00  0.00    +0.000 OA
BRANCH  31  33
ATOM     33  O   UNL     1      10.727  14.875  16.653  0.00  0.00    +0.000 OA
ATOM     34  H   UNL     1      10.036  15.561  16.579  0.00  0.00    +0.000 HD
ENDBRANCH  31  33
ENDBRANCH  28  31
ENDBRANCH  24  25
ENDBRANCH  19  23
ENDBRANCH  18  19
ENDBRANCH   1  18
TORSDOF 9
ENDMDL
MODEL 4
REMARK VINA RESULT:      -8.0      5.837      8.849
REMARK  Name = 
REMARK  14 active torsions:
REMARK  status: ('A' for Active; 'I' for Inactive)
REMARK    1  A    between atoms: C_1  and  C_2
REMARK    2  A    between atoms: C_2  and  C_3
REMARK    3  A    between atoms: C_7  and  C_8
REMARK    4  A    between atoms: C_12  and  C_13
REMARK    5  A    between atoms: C_12  and  O_14
REMARK    6  A    between atoms: C_15  and  C_16
REMARK    7  A    between atoms: C_16  and  C_17
REMARK    8  A    between atoms: C_17  and  C_18
REMARK    9  A    between atoms: C_18  and  C_19
REMARK   10  A    between atoms: C_18  and  O_20
REMARK   11  A    between atoms: C_18  and  C_21
REMARK   12  A    between atoms: C_22  and  C_23
REMARK   13  A    between atoms: C_26  and  C_27
REMARK   14  A    between atoms: C_27  and  O_29
REMARK                            x       y       z     vdW  Elec       q    Type
REMARK                         _______ _______ _______ _____ _____    ______ ____
ROOT
ATOM      1  C   UNL     1       4.981   6.852  16.792  0.00  0.00    +0.000 C 
ENDROOT
BRANCH   1  15
ATOM      2  C   UNL     1       2.943   3.071  20.920  0.00  0.00    +0.000 C 
ATOM      3  C   UNL     1       2.061   3.518  19.742  0.00  0.00    +0.000 C 
ATOM      4  C   UNL     1       1.101   2.334  19.444  0.00  0.00    +0.000 C 
ATOM      5  C   UNL     1       1.169   4.720  20.137  0.00  0.00    +0.000 C 
ATOM      6  C   UNL     1       1.898   6.057  20.181  0.00  0.00    +0.000 C 
ATOM      7  C   UNL     1       2.648   6.362  18.879  0.00  0.00    +0.000 C 
ATOM      8  C   UNL     1       3.665   5.251  18.459  0.00  0.00    +0.000 C 
ATOM      9  C   UNL     1       4.844   5.326  19.456  0.00  0.00    +0.000 C 
ATOM     10  C   UNL     1       2.860   3.892  18.453  0.00  0.00    +0.000 C 
ATOM     11  C   UNL     1       3.688   2.732  17.886  0.00  0.00    +0.000 C 
ATOM     12  C   UNL     1       4.011   3.013  16.435  0.00  0.00    +0.000 C 
ATOM     13  C   UNL     1       4.881   4.256  16.273  0.00  0.00    +0.000 C 
ATOM     14  C   UNL     1       6.322   3.926  16.695  0.00  0.00    +0.000 C 
ATOM     15  C   UNL     1       4.192   5.510  16.969  0.00  0.00    +0.000 C 
BRANCH  13  16
ATOM     16  O   UNL     1       4.899   4.458  14.848  0.00  0.00    +0.000 OA
ATOM     17  H   UNL     1       4.161   3.966  14.450  0.00  0.00    +0.000 HD
ENDBRANCH  13  16
ENDBRANCH   1  15
BRANCH   1  18
ATOM     18  C   UNL     1       5.964   7.052  17.953  0.00  0.00    +0.000 C 
BRANCH  18  19
ATOM     19  C   UNL     1       7.459   7.208  17.670  0.00  0.00    +0.000 C 
ATOM     20  C   UNL     1       8.195   6.318  18.690  0.00  0.00    +0.000 C 
BRANCH  19  21
ATOM     21  O   UNL     1       7.775   6.770  16.355  0.00  0.00    +0.000 OA
ATOM     22  H   UNL     1       6.970   6.392  15.966  0.00  0.00    +0.000 HD
ENDBRANCH  19  21
BRANCH  19  23
ATOM     23  C   UNL     1       7.915   8.635  17.846  0.00  0.00    +0.000 C 
ATOM     24  C   UNL     1       8.819   9.049  18.747  0.00  0.00    +0.000 C 
BRANCH  24  25
ATOM     25  C   UNL     1       9.173  10.454  18.978  0.00  0.00    +0.000 A 
ATOM     26  C   UNL     1       9.002  11.348  17.920  0.00  0.00    +0.000 A 
ATOM     27  C   UNL     1       9.387  12.683  18.051  0.00  0.00    +0.000 A 
ATOM     28  C   UNL     1       9.937  13.143  19.252  0.00  0.00    +0.000 A 
ATOM     29  C   UNL     1      10.058  12.269  20.339  0.00  0.00    +0.000 A 
ATOM     30  C   UNL     1       9.672  10.933  20.200  0.00  0.00    +0.000 A 
BRANCH  28  31
ATOM     31  C   UNL     1      10.336  14.568  19.331  0.00  0.00    +0.000 C 
ATOM     32  O   UNL     1      10.022  15.377  18.462  0.00  0.00    +0.000 OA
BRANCH  31  33
ATOM     33  O   UNL     1      11.091  14.894  20.392  0.00  0.00    +0.000 OA
ATOM     34  H   UNL     1      11.200  14.185  21.054  0.00  0.00    +0.000 HD
ENDBRANCH  31  33
ENDBRANCH  28  31
ENDBRANCH  24  25
ENDBRANCH  19  23
ENDBRANCH  18  19
ENDBRANCH   1  18
TORSDOF 9
ENDMDL
MODEL 5
REMARK VINA RESULT:      -7.9      4.769      9.273
REMARK  Name = 
REMARK  14 active torsions:
REMARK  status: ('A' for Active; 'I' for Inactive)
REMARK    1  A    between atoms: C_1  and  C_2
REMARK    2  A    between atoms: C_2  and  C_3
REMARK    3  A    between atoms: C_7  and  C_8
REMARK    4  A    between atoms: C_12  and  C_13
REMARK    5  A    between atoms: C_12  and  O_14
REMARK    6  A    between atoms: C_15  and  C_16
REMARK    7  A    between atoms: C_16  and  C_17
REMARK    8  A    between atoms: C_17  and  C_18
REMARK    9  A    between atoms: C_18  and  C_19
REMARK   10  A    between atoms: C_18  and  O_20
REMARK   11  A    between atoms: C_18  and  C_21
REMARK   12  A    between atoms: C_22  and  C_23
REMARK   13  A    between atoms: C_26  and  C_27
REMARK   14  A    between atoms: C_27  and  O_29
REMARK                            x       y       z     vdW  Elec       q    Type
REMARK                         _______ _______ _______ _____ _____    ______ ____
ROOT
ATOM      1  C   UNL     1       4.685   6.118  17.021  0.00  0.00    +0.000 C 
ENDROOT
BRANCH   1  15
ATOM      2  C   UNL     1       1.369   2.067  19.866  0.00  0.00    +0.000 C 
ATOM      3  C   UNL     1       2.462   2.863  20.600  0.00  0.00    +0.000 C 
ATOM      4  C   UNL     1       1.984   3.003  22.071  0.00  0.00    +0.000 C 
ATOM      5  C   UNL     1       3.792   2.074  20.643  0.00  0.00    +0.000 C 
ATOM      6  C   UNL     1       4.574   2.086  19.335  0.00  0.00    +0.000 C 
ATOM      7  C   UNL     1       4.819   3.505  18.808  0.00  0.00    +0.000 C 
ATOM      8  C   UNL     1       3.512   4.344  18.619  0.00  0.00    +0.000 C 
ATOM      9  C   UNL     1       2.771   3.745  17.403  0.00  0.00    +0.000 C 
ATOM     10  C   UNL     1       2.738   4.276  19.995  0.00  0.00    +0.000 C 
ATOM     11  C   UNL     1       1.516   5.203  20.016  0.00  0.00    +0.000 C 
ATOM     12  C   UNL     1       1.978   6.638  19.887  0.00  0.00    +0.000 C 
ATOM     13  C   UNL     1       2.668   6.898  18.551  0.00  0.00    +0.000 C 
ATOM     14  C   UNL     1       1.608   6.971  17.439  0.00  0.00    +0.000 C 
ATOM     15  C   UNL     1       3.871   5.879  18.338  0.00  0.00    +0.000 C 
BRANCH  13  16
ATOM     16  O   UNL     1       3.197   8.227  18.711  0.00  0.00    +0.000 OA
ATOM     17  H   UNL     1       3.772   8.246  19.495  0.00  0.00    +0.000 HD
ENDBRANCH  13  16
ENDBRANCH   1  15
BRANCH   1  18
ATOM     18  C   UNL     1       5.601   7.340  17.174  0.00  0.00    +0.000 C 
BRANCH  18  19
ATOM     19  C   UNL     1       7.107   7.148  17.355  0.00  0.00    +0.000 C 
ATOM     20  C   UNL     1       7.289   6.222  18.574  0.00  0.00    +0.000 C 
BRANCH  19  21
ATOM     21  O   UNL     1       7.681   6.529  16.210  0.00  0.00    +0.000 OA
ATOM     22  H   UNL     1       7.243   5.672  16.085  0.00  0.00    +0.000 HD
ENDBRANCH  19  21
BRANCH  19  23
ATOM     23  C   UNL     1       7.810   8.455  17.623  0.00  0.00    +0.000 C 
ATOM     24  C   UNL     1       8.605   8.701  18.674  0.00  0.00    +0.000 C 
BRANCH  24  25
ATOM     25  C   UNL     1       9.195  10.009  18.978  0.00  0.00    +0.000 A 
ATOM     26  C   UNL     1       9.690  10.761  17.911  0.00  0.00    +0.000 A 
ATOM     27  C   UNL     1      10.327  11.981  18.139  0.00  0.00    +0.000 A 
ATOM     28  C   UNL     1      10.466  12.471  19.442  0.00  0.00    +0.000 A 
ATOM     29  C   UNL     1       9.921  11.755  20.513  0.00  0.00    +0.000 A 
ATOM     30  C   UNL     1       9.286  10.532  20.278  0.00  0.00    +0.000 A 
BRANCH  28  31
ATOM     31  C   UNL     1      11.160  13.768  19.624  0.00  0.00    +0.000 C 
ATOM     32  O   UNL     1      11.940  14.209  18.785  0.00  0.00    +0.000 OA
BRANCH  31  33
ATOM     33  O   UNL     1      10.903  14.396  20.783  0.00  0.00    +0.000 OA
ATOM     34  H   UNL     1       9.959  14.455  21.020  0.00  0.00    +0.000 HD
ENDBRANCH  31  33
ENDBRANCH  28  31
ENDBRANCH  24  25
ENDBRANCH  19  23
ENDBRANCH  18  19
ENDBRANCH   1  18
TORSDOF 9
ENDMDL
MODEL 6
REMARK VINA RESULT:      -7.9      4.767      9.198
REMARK  Name = 
REMARK  14 active torsions:
REMARK  status: ('A' for Active; 'I' for Inactive)
REMARK    1  A    between atoms: C_1  and  C_2
REMARK    2  A    between atoms: C_2  and  C_3
REMARK    3  A    between atoms: C_7  and  C_8
REMARK    4  A    between atoms: C_12  and  C_13
REMARK    5  A    between atoms: C_12  and  O_14
REMARK    6  A    between atoms: C_15  and  C_16
REMARK    7  A    between atoms: C_16  and  C_17
REMARK    8  A    between atoms: C_17  and  C_18
REMARK    9  A    between atoms: C_18  and  C_19
REMARK   10  A    between atoms: C_18  and  O_20
REMARK   11  A    between atoms: C_18  and  C_21
REMARK   12  A    between atoms: C_22  and  C_23
REMARK   13  A    between atoms: C_26  and  C_27
REMARK   14  A    between atoms: C_27  and  O_29
REMARK                            x       y       z     vdW  Elec       q    Type
REMARK                         _______ _______ _______ _____ _____    ______ ____
ROOT
ATOM      1  C   UNL     1       4.772   6.175  17.151  0.00  0.00    +0.000 C 
ENDROOT
BRANCH   1  15
ATOM      2  C   UNL     1       1.175   2.194  19.743  0.00  0.00    +0.000 C 
ATOM      3  C   UNL     1       2.277   2.912  20.540  0.00  0.00    +0.000 C 
ATOM      4  C   UNL     1       1.754   3.027  21.998  0.00  0.00    +0.000 C 
ATOM      5  C   UNL     1       3.567   2.061  20.600  0.00  0.00    +0.000 C 
ATOM      6  C   UNL     1       4.394   2.079  19.321  0.00  0.00    +0.000 C 
ATOM      7  C   UNL     1       4.722   3.501  18.851  0.00  0.00    +0.000 C 
ATOM      8  C   UNL     1       3.463   4.406  18.647  0.00  0.00    +0.000 C 
ATOM      9  C   UNL     1       2.738   3.883  17.387  0.00  0.00    +0.000 C 
ATOM     10  C   UNL     1       2.639   4.330  19.993  0.00  0.00    +0.000 C 
ATOM     11  C   UNL     1       1.461   5.313  20.005  0.00  0.00    +0.000 C 
ATOM     12  C   UNL     1       1.992   6.728  19.941  0.00  0.00    +0.000 C 
ATOM     13  C   UNL     1       2.740   6.999  18.638  0.00  0.00    +0.000 C 
ATOM     14  C   UNL     1       1.725   7.158  17.495  0.00  0.00    +0.000 C 
ATOM     15  C   UNL     1       3.901   5.931  18.431  0.00  0.00    +0.000 C 
BRANCH  13  16
ATOM     16  O   UNL     1       3.324   8.295  18.861  0.00  0.00    +0.000 OA
ATOM     17  H   UNL     1       2.861   8.949  18.310  0.00  0.00    +0.000 HD
ENDBRANCH  13  16
ENDBRANCH   1  15
BRANCH   1  18
ATOM     18  C   UNL     1       5.808   7.276  17.411  0.00  0.00    +0.000 C 
BRANCH  18  19
ATOM     19  C   UNL     1       7.294   6.925  17.487  0.00  0.00    +0.000 C 
ATOM     20  C   UNL     1       7.409   5.694  18.406  0.00  0.00    +0.000 C 
BRANCH  19  21
ATOM     21  O   UNL     1       7.803   6.595  16.201  0.00  0.00    +0.000 OA
ATOM     22  H   UNL     1       8.383   5.823  16.299  0.00  0.00    +0.000 HD
ENDBRANCH  19  21
BRANCH  19  23
ATOM     23  C   UNL     1       8.106   8.052  18.073  0.00  0.00    +0.000 C 
ATOM     24  C   UNL     1       7.884   9.357  17.854  0.00  0.00    +0.000 C 
BRANCH  24  25
ATOM     25  C   UNL     1       8.747  10.437  18.344  0.00  0.00    +0.000 A 
ATOM     26  C   UNL     1       9.399  10.244  19.563  0.00  0.00    +0.000 A 
ATOM     27  C   UNL     1      10.176  11.260  20.120  0.00  0.00    +0.000 A 
ATOM     28  C   UNL     1      10.321  12.481  19.454  0.00  0.00    +0.000 A 
ATOM     29  C   UNL     1       9.721  12.665  18.203  0.00  0.00    +0.000 A 
ATOM     30  C   UNL     1       8.942  11.644  17.652  0.00  0.00    +0.000 A 
BRANCH  28  31
ATOM     31  C   UNL     1      11.151  13.527  20.098  0.00  0.00    +0.000 C 
ATOM     32  O   UNL     1      10.761  14.150  21.080  0.00  0.00    +0.000 OA
BRANCH  31  33
ATOM     33  O   UNL     1      12.333  13.764  19.507  0.00  0.00    +0.000 OA
ATOM     34  H   UNL     1      12.312  14.430  18.794  0.00  0.00    +0.000 HD
ENDBRANCH  31  33
ENDBRANCH  28  31
ENDBRANCH  24  25
ENDBRANCH  19  23
ENDBRANCH  18  19
ENDBRANCH   1  18
TORSDOF 9
ENDMDL
MODEL 7
REMARK VINA RESULT:      -7.8      3.326     10.641
REMARK  Name = 
REMARK  14 active torsions:
REMARK  status: ('A' for Active; 'I' for Inactive)
REMARK    1  A    between atoms: C_1  and  C_2
REMARK    2  A    between atoms: C_2  and  C_3
REMARK    3  A    between atoms: C_7  and  C_8
REMARK    4  A    between atoms: C_12  and  C_13
REMARK    5  A    between atoms: C_12  and  O_14
REMARK    6  A    between atoms: C_15  and  C_16
REMARK    7  A    between atoms: C_16  and  C_17
REMARK    8  A    between atoms: C_17  and  C_18
REMARK    9  A    between atoms: C_18  and  C_19
REMARK   10  A    between atoms: C_18  and  O_20
REMARK   11  A    between atoms: C_18  and  C_21
REMARK   12  A    between atoms: C_22  and  C_23
REMARK   13  A    between atoms: C_26  and  C_27
REMARK   14  A    between atoms: C_27  and  O_29
REMARK                            x       y       z     vdW  Elec       q    Type
REMARK                         _______ _______ _______ _____ _____    ______ ____
ROOT
ATOM      1  C   UNL     1      -1.307  12.467  20.460  0.00  0.00    +0.000 C 
ENDROOT
BRANCH   1  15
ATOM      2  C   UNL     1      -6.544  14.795  22.089  0.00  0.00    +0.000 C 
ATOM      3  C   UNL     1      -6.349  13.274  21.966  0.00  0.00    +0.000 C 
ATOM      4  C   UNL     1      -7.307  12.628  23.005  0.00  0.00    +0.000 C 
ATOM      5  C   UNL     1      -6.799  12.765  20.577  0.00  0.00    +0.000 C 
ATOM      6  C   UNL     1      -5.809  13.046  19.453  0.00  0.00    +0.000 C 
ATOM      7  C   UNL     1      -4.398  12.536  19.769  0.00  0.00    +0.000 C 
ATOM      8  C   UNL     1      -3.810  13.095  21.107  0.00  0.00    +0.000 C 
ATOM      9  C   UNL     1      -3.493  14.588  20.865  0.00  0.00    +0.000 C 
ATOM     10  C   UNL     1      -4.885  12.795  22.224  0.00  0.00    +0.000 C 
ATOM     11  C   UNL     1      -4.367  13.130  23.629  0.00  0.00    +0.000 C 
ATOM     12  C   UNL     1      -3.192  12.234  23.953  0.00  0.00    +0.000 C 
ATOM     13  C   UNL     1      -2.014  12.474  23.013  0.00  0.00    +0.000 C 
ATOM     14  C   UNL     1      -1.320  13.792  23.395  0.00  0.00    +0.000 C 
ATOM     15  C   UNL     1      -2.470  12.310  21.498  0.00  0.00    +0.000 C 
BRANCH  13  16
ATOM     16  O   UNL     1      -1.106  11.410  23.351  0.00  0.00    +0.000 OA
ATOM     17  H   UNL     1      -0.632  11.132  22.549  0.00  0.00    +0.000 HD
ENDBRANCH  13  16
ENDBRANCH   1  15
BRANCH   1  18
ATOM     18  C   UNL     1      -0.774  11.091  20.041  0.00  0.00    +0.000 C 
BRANCH  18  19
ATOM     19  C   UNL     1       0.711  10.763  20.207  0.00  0.00    +0.000 C 
ATOM     20  C   UNL     1       1.488  11.837  19.422  0.00  0.00    +0.000 C 
BRANCH  19  21
ATOM     21  O   UNL     1       1.093  10.818  21.575  0.00  0.00    +0.000 OA
ATOM     22  H   UNL     1       1.098   9.911  21.920  0.00  0.00    +0.000 HD
ENDBRANCH  19  21
BRANCH  19  23
ATOM     23  C   UNL     1       1.050   9.405  19.646  0.00  0.00    +0.000 C 
ATOM     24  C   UNL     1       1.563   8.386  20.352  0.00  0.00    +0.000 C 
BRANCH  24  25
ATOM     25  C   UNL     1       1.987   7.108  19.772  0.00  0.00    +0.000 A 
ATOM     26  C   UNL     1       2.613   7.138  18.525  0.00  0.00    +0.000 A 
ATOM     27  C   UNL     1       2.976   5.952  17.885  0.00  0.00    +0.000 A 
ATOM     28  C   UNL     1       2.727   4.718  18.494  0.00  0.00    +0.000 A 
ATOM     29  C   UNL     1       2.154   4.678  19.770  0.00  0.00    +0.000 A 
ATOM     30  C   UNL     1       1.791   5.869  20.405  0.00  0.00    +0.000 A 
BRANCH  28  31
ATOM     31  C   UNL     1       3.126   3.492  17.763  0.00  0.00    +0.000 C 
ATOM     32  O   UNL     1       4.278   3.311  17.381  0.00  0.00    +0.000 OA
BRANCH  31  33
ATOM     33  O   UNL     1       2.132   2.622  17.520  0.00  0.00    +0.000 OA
ATOM     34  H   UNL     1       2.190   1.781  18.011  0.00  0.00    +0.000 HD
ENDBRANCH  31  33
ENDBRANCH  28  31
ENDBRANCH  24  25
ENDBRANCH  19  23
ENDBRANCH  18  19
ENDBRANCH   1  18
TORSDOF 9
ENDMDL
MODEL 8
REMARK VINA RESULT:      -7.7      3.994     10.708
REMARK  Name = 
REMARK  14 active torsions:
REMARK  status: ('A' for Active; 'I' for Inactive)
REMARK    1  A    between atoms: C_1  and  C_2
REMARK    2  A    between atoms: C_2  and  C_3
REMARK    3  A    between atoms: C_7  and  C_8
REMARK    4  A    between atoms: C_12  and  C_13
REMARK    5  A    between atoms: C_12  and  O_14
REMARK    6  A    between atoms: C_15  and  C_16
REMARK    7  A    between atoms: C_16  and  C_17
REMARK    8  A    between atoms: C_17  and  C_18
REMARK    9  A    between atoms: C_18  and  C_19
REMARK   10  A    between atoms: C_18  and  O_20
REMARK   11  A    between atoms: C_18  and  C_21
REMARK   12  A    between atoms: C_22  and  C_23
REMARK   13  A    between atoms: C_26  and  C_27
REMARK   14  A    between atoms: C_27  and  O_29
REMARK                            x       y       z     vdW  Elec       q    Type
REMARK                         _______ _______ _______ _____ _____    ______ ____
ROOT
ATOM      1  C   UNL     1       1.618  11.948  19.687  0.00  0.00    +0.000 C 
ENDROOT
BRANCH   1  15
ATOM      2  C   UNL     1       2.307  17.865  19.796  0.00  0.00    +0.000 C 
ATOM      3  C   UNL     1       1.629  17.162  18.608  0.00  0.00    +0.000 C 
ATOM      4  C   UNL     1       0.595  18.172  18.038  0.00  0.00    +0.000 C 
ATOM      5  C   UNL     1       2.641  16.880  17.474  0.00  0.00    +0.000 C 
ATOM      6  C   UNL     1       3.561  15.693  17.732  0.00  0.00    +0.000 C 
ATOM      7  C   UNL     1       2.790  14.414  18.080  0.00  0.00    +0.000 C 
ATOM      8  C   UNL     1       1.821  14.572  19.297  0.00  0.00    +0.000 C 
ATOM      9  C   UNL     1       2.707  14.686  20.559  0.00  0.00    +0.000 C 
ATOM     10  C   UNL     1       0.912  15.825  18.982  0.00  0.00    +0.000 C 
ATOM     11  C   UNL     1      -0.211  15.997  20.013  0.00  0.00    +0.000 C 
ATOM     12  C   UNL     1      -1.138  14.803  19.943  0.00  0.00    +0.000 C 
ATOM     13  C   UNL     1      -0.428  13.506  20.322  0.00  0.00    +0.000 C 
ATOM     14  C   UNL     1      -0.228  13.464  21.846  0.00  0.00    +0.000 C 
ATOM     15  C   UNL     1       0.863  13.294  19.417  0.00  0.00    +0.000 C 
BRANCH  13  16
ATOM     16  O   UNL     1      -1.401  12.496  20.001  0.00  0.00    +0.000 OA
ATOM     17  H   UNL     1      -0.963  11.779  19.511  0.00  0.00    +0.000 HD
ENDBRANCH  13  16
ENDBRANCH   1  15
BRANCH   1  18
ATOM     18  C   UNL     1       1.701  11.115  18.401  0.00  0.00    +0.000 C 
BRANCH  18  19
ATOM     19  C   UNL     1       1.024   9.745  18.333  0.00  0.00    +0.000 C 
ATOM     20  C   UNL     1       0.699   9.342  19.785  0.00  0.00    +0.000 C 
BRANCH  19  21
ATOM     21  O   UNL     1      -0.185   9.813  17.587  0.00  0.00    +0.000 OA
ATOM     22  H   UNL     1      -0.116  10.565  16.977  0.00  0.00    +0.000 HD
ENDBRANCH  19  21
BRANCH  19  23
ATOM     23  C   UNL     1       1.929   8.703  17.726  0.00  0.00    +0.000 C 
ATOM     24  C   UNL     1       2.543   7.724  18.408  0.00  0.00    +0.000 C 
BRANCH  24  25
ATOM     25  C   UNL     1       3.505   6.785  17.821  0.00  0.00    +0.000 A 
ATOM     26  C   UNL     1       4.626   7.318  17.184  0.00  0.00    +0.000 A 
ATOM     27  C   UNL     1       5.542   6.483  16.544  0.00  0.00    +0.000 A 
ATOM     28  C   UNL     1       5.351   5.097  16.544  0.00  0.00    +0.000 A 
ATOM     29  C   UNL     1       4.262   4.547  17.229  0.00  0.00    +0.000 A 
ATOM     30  C   UNL     1       3.348   5.390  17.867  0.00  0.00    +0.000 A 
BRANCH  28  31
ATOM     31  C   UNL     1       6.351   4.260  15.839  0.00  0.00    +0.000 C 
ATOM     32  O   UNL     1       7.452   4.698  15.518  0.00  0.00    +0.000 OA
BRANCH  31  33
ATOM     33  O   UNL     1       5.949   3.013  15.547  0.00  0.00    +0.000 OA
ATOM     34  H   UNL     1       6.608   2.466  15.078  0.00  0.00    +0.000 HD
ENDBRANCH  31  33
ENDBRANCH  28  31
ENDBRANCH  24  25
ENDBRANCH  19  23
ENDBRANCH  18  19
ENDBRANCH   1  18
TORSDOF 9
ENDMDL
MODEL 9
REMARK VINA RESULT:      -7.7      3.280      4.683
REMARK  Name = 
REMARK  14 active torsions:
REMARK  status: ('A' for Active; 'I' for Inactive)
REMARK    1  A    between atoms: C_1  and  C_2
REMARK    2  A    between atoms: C_2  and  C_3
REMARK    3  A    between atoms: C_7  and  C_8
REMARK    4  A    between atoms: C_12  and  C_13
REMARK    5  A    between atoms: C_12  and  O_14
REMARK    6  A    between atoms: C_15  and  C_16
REMARK    7  A    between atoms: C_16  and  C_17
REMARK    8  A    between atoms: C_17  and  C_18
REMARK    9  A    between atoms: C_18  and  C_19
REMARK   10  A    between atoms: C_18  and  O_20
REMARK   11  A    between atoms: C_18  and  C_21
REMARK   12  A    between atoms: C_22  and  C_23
REMARK   13  A    between atoms: C_26  and  C_27
REMARK   14  A    between atoms: C_27  and  O_29
REMARK                            x       y       z     vdW  Elec       q    Type
REMARK                         _______ _______ _______ _____ _____    ______ ____
ROOT
ATOM      1  C   UNL     1       3.519   7.989  17.865  0.00  0.00    +0.000 C 
ENDROOT
BRANCH   1  15
ATOM      2  C   UNL     1       4.320   2.439  19.878  0.00  0.00    +0.000 C 
ATOM      3  C   UNL     1       3.341   2.739  18.730  0.00  0.00    +0.000 C 
ATOM      4  C   UNL     1       3.325   1.473  17.830  0.00  0.00    +0.000 C 
ATOM      5  C   UNL     1       1.899   2.920  19.260  0.00  0.00    +0.000 C 
ATOM      6  C   UNL     1       1.636   4.268  19.921  0.00  0.00    +0.000 C 
ATOM      7  C   UNL     1       2.019   5.449  19.022  0.00  0.00    +0.000 C 
ATOM      8  C   UNL     1       3.504   5.413  18.530  0.00  0.00    +0.000 C 
ATOM      9  C   UNL     1       4.387   5.730  19.758  0.00  0.00    +0.000 C 
ATOM     10  C   UNL     1       3.721   3.991  17.878  0.00  0.00    +0.000 C 
ATOM     11  C   UNL     1       5.087   3.874  17.189  0.00  0.00    +0.000 C 
ATOM     12  C   UNL     1       5.151   4.856  16.039  0.00  0.00    +0.000 C 
ATOM     13  C   UNL     1       5.054   6.302  16.517  0.00  0.00    +0.000 C 
ATOM     14  C   UNL     1       6.390   6.716  17.154  0.00  0.00    +0.000 C 
ATOM     15  C   UNL     1       3.740   6.513  17.389  0.00  0.00    +0.000 C 
BRANCH  13  16
ATOM     16  O   UNL     1       4.929   7.043  15.289  0.00  0.00    +0.000 OA
ATOM     17  H   UNL     1       5.322   6.524  14.566  0.00  0.00    +0.000 HD
ENDBRANCH  13  16
ENDBRANCH   1  15
BRANCH   1  18
ATOM     18  C   UNL     1       2.132   8.487  17.435  0.00  0.00    +0.000 C 
BRANCH  18  19
ATOM     19  C   UNL     1       1.306   9.359  18.382  0.00  0.00    +0.000 C 
ATOM     20  C   UNL     1      -0.155   9.268  17.901  0.00  0.00    +0.000 C 
BRANCH  19  21
ATOM     21  O   UNL     1       1.388   8.876  19.717  0.00  0.00    +0.000 OA
ATOM     22  H   UNL     1       0.530   8.485  19.946  0.00  0.00    +0.000 HD
ENDBRANCH  19  21
BRANCH  19  23
ATOM     23  C   UNL     1       1.747  10.800  18.342  0.00  0.00    +0.000 C 
ATOM     24  C   UNL     1       1.108  11.818  18.938  0.00  0.00    +0.000 C 
BRANCH  24  25
ATOM     25  C   UNL     1       1.489  13.228  18.801  0.00  0.00    +0.000 A 
ATOM     26  C   UNL     1       0.516  14.191  19.073  0.00  0.00    +0.000 A 
ATOM     27  C   UNL     1       0.791  15.547  18.892  0.00  0.00    +0.000 A 
ATOM     28  C   UNL     1       2.053  15.957  18.448  0.00  0.00    +0.000 A 
ATOM     29  C   UNL     1       3.054  15.004  18.229  0.00  0.00    +0.000 A 
ATOM     30  C   UNL     1       2.771  13.647  18.410  0.00  0.00    +0.000 A 
BRANCH  28  31
ATOM     31  C   UNL     1       2.285  17.409  18.265  0.00  0.00    +0.000 C 
ATOM     32  O   UNL     1       2.409  18.171  19.219  0.00  0.00    +0.000 OA
BRANCH  31  33
ATOM     33  O   UNL     1       2.310  17.829  16.989  0.00  0.00    +0.000 OA
ATOM     34  H   UNL     1       2.361  17.119  16.322  0.00  0.00    +0.000 HD
ENDBRANCH  31  33
ENDBRANCH  28  31
ENDBRANCH  24  25
ENDBRANCH  19  23
ENDBRANCH  18  19
ENDBRANCH   1  18
TORSDOF 9
ENDMDL
