MODEL 1
REMARK VINA RESULT:      -6.4      0.000      0.000
REMARK  Name = 
REMARK  4 active torsions:
REMARK  status: ('A' for Active; 'I' for Inactive)
REMARK    1  A    between atoms: C_13  and  C_14
REMARK    2  A    between atoms: C_16  and  O_17
REMARK    3  A    between atoms: C_19  and  C_20
REMARK    4  A    between atoms: C_19  and  C_21
REMARK                            x       y       z     vdW  Elec       q    Type
REMARK                         _______ _______ _______ _____ _____    ______ ____
ROOT
ATOM      1  C   UNL     1       7.208  11.872  23.253  0.00  0.00    +0.000 C 
ATOM      2  C   UNL     1       7.839  12.969  22.768  0.00  0.00    +0.000 C 
ATOM      3  C   UNL     1       9.299  12.901  22.327  0.00  0.00    +0.000 C 
ATOM      4  C   UNL     1       9.436  12.220  20.956  0.00  0.00    +0.000 C 
ATOM      5  C   UNL     1      10.641  12.514  20.003  0.00  0.00    +0.000 C 
ATOM      6  C   UNL     1      11.164  13.977  20.169  0.00  0.00    +0.000 C 
ATOM      7  C   UNL     1      11.609  14.605  18.853  0.00  0.00    +0.000 C 
ATOM      8  C   UNL     1      10.389  14.581  17.970  0.00  0.00    +0.000 C 
ATOM      9  C   UNL     1       9.630  13.462  17.918  0.00  0.00    +0.000 C 
ATOM     10  C   UNL     1       8.180  13.542  17.518  0.00  0.00    +0.000 C 
ATOM     11  O   UNL     1       7.569  12.542  17.146  0.00  0.00    +0.000 OA
ATOM     12  C   UNL     1       7.441  14.885  17.632  0.00  0.00    +0.000 C 
ATOM     13  C   UNL     1       7.323  15.458  19.037  0.00  0.00    +0.000 C 
ATOM     14  C   UNL     1       7.438  16.963  19.114  0.00  0.00    +0.000 C 
ATOM     15  C   UNL     1       7.087  14.717  20.146  0.00  0.00    +0.000 C 
ATOM     16  C   UNL     1       7.072  15.265  21.553  0.00  0.00    +0.000 C 
ATOM     17  C   UNL     1       7.125  14.305  22.782  0.00  0.00    +0.000 C 
ATOM     18  C   UNL     1      10.229  12.161  18.488  0.00  0.00    +0.000 C 
ATOM     19  C   UNL     1      11.425  11.745  17.572  0.00  0.00    +0.000 C 
ATOM     20  C   UNL     1       9.354  10.875  18.438  0.00  0.00    +0.000 C 
ENDROOT
BRANCH  16  21
ATOM     21  O   UNL     1       5.874  16.040  21.683  0.00  0.00    +0.000 OA
ATOM     22  H   UNL     1       6.115  16.870  22.118  0.00  0.00    +0.000 HD
ENDBRANCH  16  21
TORSDOF 1
ENDMDL
MODEL 2
REMARK VINA RESULT:      -5.8      1.960      4.614
REMARK  Name = 
REMARK  4 active torsions:
REMARK  status: ('A' for Active; 'I' for Inactive)
REMARK    1  A    between atoms: C_13  and  C_14
REMARK    2  A    between atoms: C_16  and  O_17
REMARK    3  A    between atoms: C_19  and  C_20
REMARK    4  A    between atoms: C_19  and  C_21
REMARK                            x       y       z     vdW  Elec       q    Type
REMARK                         _______ _______ _______ _____ _____    ______ ____
ROOT
ATOM      1  C   UNL     1      11.739  11.578  18.379  0.00  0.00    +0.000 C 
ATOM      2  C   UNL     1      10.507  11.854  18.872  0.00  0.00    +0.000 C 
ATOM      3  C   UNL     1      10.315  12.217  20.343  0.00  0.00    +0.000 C 
ATOM      4  C   UNL     1      10.747  13.665  20.621  0.00  0.00    +0.000 C 
ATOM      5  C   UNL     1      10.153  14.493  21.807  0.00  0.00    +0.000 C 
ATOM      6  C   UNL     1       8.680  14.077  22.119  0.00  0.00    +0.000 C 
ATOM      7  C   UNL     1       7.799  15.254  22.522  0.00  0.00    +0.000 C 
ATOM      8  C   UNL     1       7.840  16.198  21.349  0.00  0.00    +0.000 C 
ATOM      9  C   UNL     1       9.026  16.463  20.752  0.00  0.00    +0.000 C 
ATOM     10  C   UNL     1       9.072  16.928  19.321  0.00  0.00    +0.000 C 
ATOM     11  O   UNL     1      10.071  17.482  18.865  0.00  0.00    +0.000 OA
ATOM     12  C   UNL     1       7.870  16.654  18.401  0.00  0.00    +0.000 C 
ATOM     13  C   UNL     1       7.547  15.187  18.156  0.00  0.00    +0.000 C 
ATOM     14  C   UNL     1       6.071  14.876  18.062  0.00  0.00    +0.000 C 
ATOM     15  C   UNL     1       8.478  14.218  17.984  0.00  0.00    +0.000 C 
ATOM     16  C   UNL     1       8.166  12.748  17.843  0.00  0.00    +0.000 C 
ATOM     17  C   UNL     1       9.293  11.678  17.982  0.00  0.00    +0.000 C 
ATOM     18  C   UNL     1      10.312  16.064  21.502  0.00  0.00    +0.000 C 
ATOM     19  C   UNL     1      10.419  16.964  22.776  0.00  0.00    +0.000 C 
ATOM     20  C   UNL     1      11.676  16.358  20.814  0.00  0.00    +0.000 C 
ENDROOT
BRANCH  16  21
ATOM     21  O   UNL     1       7.582  12.569  16.547  0.00  0.00    +0.000 OA
ATOM     22  H   UNL     1       7.632  13.421  16.090  0.00  0.00    +0.000 HD
ENDBRANCH  16  21
TORSDOF 1
ENDMDL
MODEL 3
REMARK VINA RESULT:      -5.8      2.173      4.240
REMARK  Name = 
REMARK  4 active torsions:
REMARK  status: ('A' for Active; 'I' for Inactive)
REMARK    1  A    between atoms: C_13  and  C_14
REMARK    2  A    between atoms: C_16  and  O_17
REMARK    3  A    between atoms: C_19  and  C_20
REMARK    4  A    between atoms: C_19  and  C_21
REMARK                            x       y       z     vdW  Elec       q    Type
REMARK                         _______ _______ _______ _____ _____    ______ ____
ROOT
ATOM      1  C   UNL     1       7.768  15.260  24.230  0.00  0.00    +0.000 C 
ATOM      2  C   UNL     1       7.484  14.457  23.176  0.00  0.00    +0.000 C 
ATOM      3  C   UNL     1       7.009  15.045  21.850  0.00  0.00    +0.000 C 
ATOM      4  C   UNL     1       8.176  15.661  21.062  0.00  0.00    +0.000 C 
ATOM      5  C   UNL     1       8.144  15.793  19.504  0.00  0.00    +0.000 C 
ATOM      6  C   UNL     1       7.319  14.642  18.844  0.00  0.00    +0.000 C 
ATOM      7  C   UNL     1       7.912  14.163  17.523  0.00  0.00    +0.000 C 
ATOM      8  C   UNL     1       9.300  13.686  17.863  0.00  0.00    +0.000 C 
ATOM      9  C   UNL     1      10.079  14.436  18.677  0.00  0.00    +0.000 C 
ATOM     10  C   UNL     1      11.196  13.801  19.461  0.00  0.00    +0.000 C 
ATOM     11  O   UNL     1      12.106  14.481  19.934  0.00  0.00    +0.000 OA
ATOM     12  C   UNL     1      11.167  12.285  19.720  0.00  0.00    +0.000 C 
ATOM     13  C   UNL     1       9.991  11.779  20.544  0.00  0.00    +0.000 C 
ATOM     14  C   UNL     1       9.458  10.432  20.114  0.00  0.00    +0.000 C 
ATOM     15  C   UNL     1       9.469  12.430  21.611  0.00  0.00    +0.000 C 
ATOM     16  C   UNL     1       8.240  11.985  22.367  0.00  0.00    +0.000 C 
ATOM     17  C   UNL     1       7.519  12.953  23.356  0.00  0.00    +0.000 C 
ATOM     18  C   UNL     1       9.648  15.892  18.940  0.00  0.00    +0.000 C 
ATOM     19  C   UNL     1       9.785  16.681  17.598  0.00  0.00    +0.000 C 
ATOM     20  C   UNL     1      10.535  16.754  19.884  0.00  0.00    +0.000 C 
ENDROOT
BRANCH  16  21
ATOM     21  O   UNL     1       8.615  10.825  23.120  0.00  0.00    +0.000 OA
ATOM     22  H   UNL     1       9.223  10.310  22.571  0.00  0.00    +0.000 HD
ENDBRANCH  16  21
TORSDOF 1
ENDMDL
MODEL 4
REMARK VINA RESULT:      -5.7      1.981      4.123
REMARK  Name = 
REMARK  4 active torsions:
REMARK  status: ('A' for Active; 'I' for Inactive)
REMARK    1  A    between atoms: C_13  and  C_14
REMARK    2  A    between atoms: C_16  and  O_17
REMARK    3  A    between atoms: C_19  and  C_20
REMARK    4  A    between atoms: C_19  and  C_21
REMARK                            x       y       z     vdW  Elec       q    Type
REMARK                         _______ _______ _______ _____ _____    ______ ____
ROOT
ATOM      1  C   UNL     1       8.954  10.432  18.226  0.00  0.00    +0.000 C 
ATOM      2  C   UNL     1       9.623  11.113  19.188  0.00  0.00    +0.000 C 
ATOM      3  C   UNL     1      10.687  12.144  18.819  0.00  0.00    +0.000 C 
ATOM      4  C   UNL     1      10.049  13.457  18.338  0.00  0.00    +0.000 C 
ATOM      5  C   UNL     1      10.789  14.829  18.456  0.00  0.00    +0.000 C 
ATOM      6  C   UNL     1      11.737  14.867  19.698  0.00  0.00    +0.000 C 
ATOM      7  C   UNL     1      11.772  16.229  20.382  0.00  0.00    +0.000 C 
ATOM      8  C   UNL     1      10.349  16.497  20.800  0.00  0.00    +0.000 C 
ATOM      9  C   UNL     1       9.344  16.245  19.930  0.00  0.00    +0.000 C 
ATOM     10  C   UNL     1       7.950  15.977  20.433  0.00  0.00    +0.000 C 
ATOM     11  O   UNL     1       6.976  16.074  19.687  0.00  0.00    +0.000 OA
ATOM     12  C   UNL     1       7.749  15.519  21.887  0.00  0.00    +0.000 C 
ATOM     13  C   UNL     1       8.387  14.187  22.254  0.00  0.00    +0.000 C 
ATOM     14  C   UNL     1       8.958  14.128  23.653  0.00  0.00    +0.000 C 
ATOM     15  C   UNL     1       8.418  13.105  21.441  0.00  0.00    +0.000 C 
ATOM     16  C   UNL     1       9.137  11.816  21.758  0.00  0.00    +0.000 C 
ATOM     17  C   UNL     1       9.403  10.756  20.643  0.00  0.00    +0.000 C 
ATOM     18  C   UNL     1       9.713  16.025  18.450  0.00  0.00    +0.000 C 
ATOM     19  C   UNL     1      10.253  17.379  17.887  0.00  0.00    +0.000 C 
ATOM     20  C   UNL     1       8.560  15.725  17.450  0.00  0.00    +0.000 C 
ENDROOT
BRANCH  16  21
ATOM     21  O   UNL     1       8.380  11.160  22.783  0.00  0.00    +0.000 OA
ATOM     22  H   UNL     1       7.670  10.670  22.345  0.00  0.00    +0.000 HD
ENDBRANCH  16  21
TORSDOF 1
ENDMDL
MODEL 5
REMARK VINA RESULT:      -5.6      9.831     11.654
REMARK  Name = 
REMARK  4 active torsions:
REMARK  status: ('A' for Active; 'I' for Inactive)
REMARK    1  A    between atoms: C_13  and  C_14
REMARK    2  A    between atoms: C_16  and  O_17
REMARK    3  A    between atoms: C_19  and  C_20
REMARK    4  A    between atoms: C_19  and  C_21
REMARK                            x       y       z     vdW  Elec       q    Type
REMARK                         _______ _______ _______ _____ _____    ______ ____
ROOT
ATOM      1  C   UNL     1      -3.036  10.840  15.650  0.00  0.00    +0.000 C 
ATOM      2  C   UNL     1      -3.185  10.561  16.968  0.00  0.00    +0.000 C 
ATOM      3  C   UNL     1      -2.021  10.006  17.786  0.00  0.00    +0.000 C 
ATOM      4  C   UNL     1      -1.010  11.109  18.137  0.00  0.00    +0.000 C 
ATOM      5  C   UNL     1      -0.084  11.013  19.394  0.00  0.00    +0.000 C 
ATOM      6  C   UNL     1      -0.770  10.226  20.557  0.00  0.00    +0.000 C 
ATOM      7  C   UNL     1      -0.446  10.795  21.935  0.00  0.00    +0.000 C 
ATOM      8  C   UNL     1      -0.940  12.218  21.901  0.00  0.00    +0.000 C 
ATOM      9  C   UNL     1      -0.678  12.985  20.817  0.00  0.00    +0.000 C 
ATOM     10  C   UNL     1      -1.556  14.163  20.487  0.00  0.00    +0.000 C 
ATOM     11  O   UNL     1      -1.168  15.052  19.731  0.00  0.00    +0.000 OA
ATOM     12  C   UNL     1      -2.981  14.224  21.062  0.00  0.00    +0.000 C 
ATOM     13  C   UNL     1      -3.919  13.108  20.622  0.00  0.00    +0.000 C 
ATOM     14  C   UNL     1      -4.873  12.631  21.693  0.00  0.00    +0.000 C 
ATOM     15  C   UNL     1      -3.958  12.591  19.371  0.00  0.00    +0.000 C 
ATOM     16  C   UNL     1      -4.812  11.417  18.957  0.00  0.00    +0.000 C 
ATOM     17  C   UNL     1      -4.554  10.682  17.604  0.00  0.00    +0.000 C 
ATOM     18  C   UNL     1       0.393  12.487  19.827  0.00  0.00    +0.000 C 
ATOM     19  C   UNL     1       1.774  12.533  20.556  0.00  0.00    +0.000 C 
ATOM     20  C   UNL     1       0.688  13.362  18.575  0.00  0.00    +0.000 C 
ENDROOT
BRANCH  16  21
ATOM     21  O   UNL     1      -6.168  11.880  18.926  0.00  0.00    +0.000 OA
ATOM     22  H   UNL     1      -6.175  12.713  18.434  0.00  0.00    +0.000 HD
ENDBRANCH  16  21
TORSDOF 1
ENDMDL
MODEL 6
REMARK VINA RESULT:      -5.6      9.852     12.220
REMARK  Name = 
REMARK  4 active torsions:
REMARK  status: ('A' for Active; 'I' for Inactive)
REMARK    1  A    between atoms: C_13  and  C_14
REMARK    2  A    between atoms: C_16  and  O_17
REMARK    3  A    between atoms: C_19  and  C_20
REMARK    4  A    between atoms: C_19  and  C_21
REMARK                            x       y       z     vdW  Elec       q    Type
REMARK                         _______ _______ _______ _____ _____    ______ ____
ROOT
ATOM      1  C   UNL     1      -5.803  11.065  19.097  0.00  0.00    +0.000 C 
ATOM      2  C   UNL     1      -4.739  11.885  18.920  0.00  0.00    +0.000 C 
ATOM      3  C   UNL     1      -4.639  13.211  19.669  0.00  0.00    +0.000 C 
ATOM      4  C   UNL     1      -4.226  12.996  21.133  0.00  0.00    +0.000 C 
ATOM      5  C   UNL     1      -3.490  14.103  21.958  0.00  0.00    +0.000 C 
ATOM      6  C   UNL     1      -2.586  14.994  21.047  0.00  0.00    +0.000 C 
ATOM      7  C   UNL     1      -1.285  15.411  21.722  0.00  0.00    +0.000 C 
ATOM      8  C   UNL     1      -0.582  14.121  22.057  0.00  0.00    +0.000 C 
ATOM      9  C   UNL     1      -1.288  13.105  22.605  0.00  0.00    +0.000 C 
ATOM     10  C   UNL     1      -0.812  11.683  22.463  0.00  0.00    +0.000 C 
ATOM     11  O   UNL     1      -1.230  10.797  23.207  0.00  0.00    +0.000 OA
ATOM     12  C   UNL     1       0.169  11.327  21.333  0.00  0.00    +0.000 C 
ATOM     13  C   UNL     1      -0.349  11.538  19.918  0.00  0.00    +0.000 C 
ATOM     14  C   UNL     1       0.688  12.038  18.938  0.00  0.00    +0.000 C 
ATOM     15  C   UNL     1      -1.615  11.268  19.519  0.00  0.00    +0.000 C 
ATOM     16  C   UNL     1      -2.162  11.572  18.145  0.00  0.00    +0.000 C 
ATOM     17  C   UNL     1      -3.699  11.538  17.874  0.00  0.00    +0.000 C 
ATOM     18  C   UNL     1      -2.684  13.425  23.173  0.00  0.00    +0.000 C 
ATOM     19  C   UNL     1      -2.492  14.349  24.418  0.00  0.00    +0.000 C 
ATOM     20  C   UNL     1      -3.502  12.256  23.794  0.00  0.00    +0.000 C 
ENDROOT
BRANCH  16  21
ATOM     21  O   UNL     1      -1.561  10.634  17.243  0.00  0.00    +0.000 OA
ATOM     22  H   UNL     1      -1.284   9.870  17.766  0.00  0.00    +0.000 HD
ENDBRANCH  16  21
TORSDOF 1
ENDMDL
MODEL 7
REMARK VINA RESULT:      -5.5     12.992     15.353
REMARK  Name = 
REMARK  4 active torsions:
REMARK  status: ('A' for Active; 'I' for Inactive)
REMARK    1  A    between atoms: C_13  and  C_14
REMARK    2  A    between atoms: C_16  and  O_17
REMARK    3  A    between atoms: C_19  and  C_20
REMARK    4  A    between atoms: C_19  and  C_21
REMARK                            x       y       z     vdW  Elec       q    Type
REMARK                         _______ _______ _______ _____ _____    ______ ____
ROOT
ATOM      1  C   UNL     1      -6.817   9.634  18.966  0.00  0.00    +0.000 C 
ATOM      2  C   UNL     1      -6.438  10.935  18.959  0.00  0.00    +0.000 C 
ATOM      3  C   UNL     1      -7.368  12.024  19.488  0.00  0.00    +0.000 C 
ATOM      4  C   UNL     1      -7.389  12.041  21.025  0.00  0.00    +0.000 C 
ATOM      5  C   UNL     1      -7.737  13.335  21.833  0.00  0.00    +0.000 C 
ATOM      6  C   UNL     1      -7.291  14.626  21.074  0.00  0.00    +0.000 C 
ATOM      7  C   UNL     1      -6.765  15.714  22.004  0.00  0.00    +0.000 C 
ATOM      8  C   UNL     1      -5.592  15.092  22.717  0.00  0.00    +0.000 C 
ATOM      9  C   UNL     1      -5.703  13.835  23.204  0.00  0.00    +0.000 C 
ATOM     10  C   UNL     1      -4.476  12.991  23.423  0.00  0.00    +0.000 C 
ATOM     11  O   UNL     1      -4.507  12.003  24.155  0.00  0.00    +0.000 OA
ATOM     12  C   UNL     1      -3.179  13.341  22.674  0.00  0.00    +0.000 C 
ATOM     13  C   UNL     1      -3.249  13.255  21.156  0.00  0.00    +0.000 C 
ATOM     14  C   UNL     1      -2.454  14.315  20.430  0.00  0.00    +0.000 C 
ATOM     15  C   UNL     1      -3.919  12.295  20.476  0.00  0.00    +0.000 C 
ATOM     16  C   UNL     1      -4.077  12.263  18.974  0.00  0.00    +0.000 C 
ATOM     17  C   UNL     1      -5.129  11.325  18.304  0.00  0.00    +0.000 C 
ATOM     18  C   UNL     1      -7.116  13.229  23.313  0.00  0.00    +0.000 C 
ATOM     19  C   UNL     1      -7.897  14.033  24.402  0.00  0.00    +0.000 C 
ATOM     20  C   UNL     1      -7.246  11.780  23.864  0.00  0.00    +0.000 C 
ENDROOT
BRANCH  16  21
ATOM     21  O   UNL     1      -2.800  11.912  18.429  0.00  0.00    +0.000 OA
ATOM     22  H   UNL     1      -2.273  11.539  19.150  0.00  0.00    +0.000 HD
ENDBRANCH  16  21
TORSDOF 1
ENDMDL
MODEL 8
REMARK VINA RESULT:      -5.5      1.553      4.855
REMARK  Name = 
REMARK  4 active torsions:
REMARK  status: ('A' for Active; 'I' for Inactive)
REMARK    1  A    between atoms: C_13  and  C_14
REMARK    2  A    between atoms: C_16  and  O_17
REMARK    3  A    between atoms: C_19  and  C_20
REMARK    4  A    between atoms: C_19  and  C_21
REMARK                            x       y       z     vdW  Elec       q    Type
REMARK                         _______ _______ _______ _____ _____    ______ ____
ROOT
ATOM      1  C   UNL     1      11.739  11.745  19.240  0.00  0.00    +0.000 C 
ATOM      2  C   UNL     1      10.397  11.784  19.426  0.00  0.00    +0.000 C 
ATOM      3  C   UNL     1       9.800  11.724  20.830  0.00  0.00    +0.000 C 
ATOM      4  C   UNL     1       9.937  13.073  21.553  0.00  0.00    +0.000 C 
ATOM      5  C   UNL     1       8.956  13.505  22.692  0.00  0.00    +0.000 C 
ATOM      6  C   UNL     1       7.527  12.910  22.479  0.00  0.00    +0.000 C 
ATOM      7  C   UNL     1       6.414  13.867  22.893  0.00  0.00    +0.000 C 
ATOM      8  C   UNL     1       6.605  15.091  22.036  0.00  0.00    +0.000 C 
ATOM      9  C   UNL     1       7.851  15.595  21.869  0.00  0.00    +0.000 C 
ATOM     10  C   UNL     1       8.179  16.429  20.659  0.00  0.00    +0.000 C 
ATOM     11  O   UNL     1       9.169  17.159  20.641  0.00  0.00    +0.000 OA
ATOM     12  C   UNL     1       7.293  16.321  19.407  0.00  0.00    +0.000 C 
ATOM     13  C   UNL     1       7.256  14.953  18.740  0.00  0.00    +0.000 C 
ATOM     14  C   UNL     1       5.909  14.568  18.173  0.00  0.00    +0.000 C 
ATOM     15  C   UNL     1       8.330  14.140  18.605  0.00  0.00    +0.000 C 
ATOM     16  C   UNL     1       8.278  12.741  18.038  0.00  0.00    +0.000 C 
ATOM     17  C   UNL     1       9.478  11.761  18.222  0.00  0.00    +0.000 C 
ATOM     18  C   UNL     1       8.956  15.109  22.826  0.00  0.00    +0.000 C 
ATOM     19  C   UNL     1       8.617  15.639  24.256  0.00  0.00    +0.000 C 
ATOM     20  C   UNL     1      10.390  15.679  22.630  0.00  0.00    +0.000 C 
ENDROOT
BRANCH  16  21
ATOM     21  O   UNL     1       8.063  12.873  16.627  0.00  0.00    +0.000 OA
ATOM     22  H   UNL     1       7.892  13.809  16.449  0.00  0.00    +0.000 HD
ENDBRANCH  16  21
TORSDOF 1
ENDMDL
MODEL 9
REMARK VINA RESULT:      -5.5     10.098     11.651
REMARK  Name = 
REMARK  4 active torsions:
REMARK  status: ('A' for Active; 'I' for Inactive)
REMARK    1  A    between atoms: C_13  and  C_14
REMARK    2  A    between atoms: C_16  and  O_17
REMARK    3  A    between atoms: C_19  and  C_20
REMARK    4  A    between atoms: C_19  and  C_21
REMARK                            x       y       z     vdW  Elec       q    Type
REMARK                         _______ _______ _______ _____ _____    ______ ____
ROOT
ATOM      1  C   UNL     1      -5.803  12.453  21.572  0.00  0.00    +0.000 C 
ATOM      2  C   UNL     1      -5.134  12.870  20.470  0.00  0.00    +0.000 C 
ATOM      3  C   UNL     1      -3.942  13.817  20.589  0.00  0.00    +0.000 C 
ATOM      4  C   UNL     1      -2.685  13.074  21.068  0.00  0.00    +0.000 C 
ATOM      5  C   UNL     1      -1.244  13.583  20.734  0.00  0.00    +0.000 C 
ATOM      6  C   UNL     1      -1.200  14.324  19.358  0.00  0.00    +0.000 C 
ATOM      7  C   UNL     1       0.084  14.061  18.579  0.00  0.00    +0.000 C 
ATOM      8  C   UNL     1       0.123  12.569  18.373  0.00  0.00    +0.000 C 
ATOM      9  C   UNL     1      -0.175  11.749  19.408  0.00  0.00    +0.000 C 
ATOM     10  C   UNL     1      -0.670  10.350  19.153  0.00  0.00    +0.000 C 
ATOM     11  O   UNL     1      -0.631   9.493  20.034  0.00  0.00    +0.000 OA
ATOM     12  C   UNL     1      -1.285  10.006  17.786  0.00  0.00    +0.000 C 
ATOM     13  C   UNL     1      -2.551  10.768  17.421  0.00  0.00    +0.000 C 
ATOM     14  C   UNL     1      -2.667  11.131  15.958  0.00  0.00    +0.000 C 
ATOM     15  C   UNL     1      -3.538  11.073  18.297  0.00  0.00    +0.000 C 
ATOM     16  C   UNL     1      -4.746  11.916  17.964  0.00  0.00    +0.000 C 
ATOM     17  C   UNL     1      -5.652  12.492  19.098  0.00  0.00    +0.000 C 
ATOM     18  C   UNL     1      -0.204  12.359  20.822  0.00  0.00    +0.000 C 
ATOM     19  C   UNL     1       1.256  12.776  21.193  0.00  0.00    +0.000 C 
ATOM     20  C   UNL     1      -0.557  11.421  22.012  0.00  0.00    +0.000 C 
ENDROOT
BRANCH  16  21
ATOM     21  O   UNL     1      -5.589  11.120  17.123  0.00  0.00    +0.000 OA
ATOM     22  H   UNL     1      -5.030  10.746  16.428  0.00  0.00    +0.000 HD
ENDBRANCH  16  21
TORSDOF 1
ENDMDL
