MODEL 1
REMARK VINA RESULT:      -8.1      0.000      0.000
REMARK  Name = 
REMARK  9 active torsions:
REMARK  status: ('A' for Active; 'I' for Inactive)
REMARK    1  A    between atoms: C_1  and  O_2
REMARK    2  A    between atoms: O_2  and  C_3
REMARK    3  A    between atoms: C_5  and  C_6
REMARK    4  A    between atoms: C_6  and  C_7
REMARK    5  A    between atoms: C_9  and  C_10
REMARK    6  A    between atoms: C_22  and  O_23
REMARK    7  A    between atoms: O_23  and  C_24
REMARK    8  A    between atoms: C_25  and  O_26
REMARK    9  A    between atoms: O_26  and  C_27
REMARK                            x       y       z     vdW  Elec       q    Type
REMARK                         _______ _______ _______ _____ _____    ______ ____
ROOT
ATOM      1  C   UNL     1       3.251   4.274  18.162  0.00  0.00    +0.000 A 
ATOM      2  N   UNL     1       2.772   5.479  18.110  0.00  0.00    +0.000 NA
ATOM      3  C   UNL     1       2.504   6.114  19.303  0.00  0.00    +0.000 A 
ATOM      4  N   UNL     1       2.634   5.560  20.473  0.00  0.00    +0.000 NA
ATOM      5  N   UNL     1       3.092   4.283  20.548  0.00  0.00    +0.000 N 
ATOM      6  C   UNL     1       3.499   3.559  19.466  0.00  0.00    +0.000 A 
ATOM      7  O   UNL     1       4.042   2.470  19.509  0.00  0.00    +0.000 OA
ATOM      8  H   UNL     1       3.242   3.897  21.475  0.00  0.00    +0.000 HD
ENDROOT
BRANCH   3   9
ATOM      9  C   UNL     1       2.063   7.542  19.208  0.00  0.00    +0.000 A 
ATOM     10  C   UNL     1       1.481   8.196  20.303  0.00  0.00    +0.000 A 
ATOM     11  C   UNL     1       1.040   9.519  20.182  0.00  0.00    +0.000 A 
ATOM     12  C   UNL     1       1.178  10.189  18.967  0.00  0.00    +0.000 A 
ATOM     13 CL   UNL     1       0.625  11.811  18.818  0.00  0.00    +0.000 Cl
ATOM     14  C   UNL     1       1.756   9.551  17.873  0.00  0.00    +0.000 A 
ATOM     15  C   UNL     1       2.198   8.231  17.992  0.00  0.00    +0.000 A 
ENDBRANCH   3   9
BRANCH   1  16
ATOM     16  C   UNL     1       3.623   3.541  16.900  0.00  0.00    +0.000 C 
BRANCH  16  19
ATOM     17  C   UNL     1       6.706   5.621  16.068  0.00  0.00    +0.000 A 
ATOM     18  C   UNL     1       5.505   5.199  16.664  0.00  0.00    +0.000 A 
ATOM     19  C   UNL     1       4.756   4.157  16.120  0.00  0.00    +0.000 A 
ATOM     20  C   UNL     1       5.146   3.640  14.884  0.00  0.00    +0.000 A 
ATOM     21  C   UNL     1       6.301   4.098  14.225  0.00  0.00    +0.000 A 
ATOM     22  C   UNL     1       7.107   5.095  14.819  0.00  0.00    +0.000 A 
BRANCH  17  24
ATOM     23  C   UNL     1       7.545   6.466  18.119  0.00  0.00    +0.000 C 
ATOM     24  O   UNL     1       7.483   6.564  16.694  0.00  0.00    +0.000 OA
ENDBRANCH  17  24
BRANCH  21  25
ATOM     25  O   UNL     1       6.489   3.428  13.040  0.00  0.00    +0.000 OA
ATOM     26  C   UNL     1       5.402   3.257  12.145  0.00  0.00    +0.000 C 
ENDBRANCH  21  25
BRANCH  22  27
ATOM     27  O   UNL     1       8.212   5.480  14.107  0.00  0.00    +0.000 OA
ATOM     28  C   UNL     1       8.120   5.735  12.715  0.00  0.00    +0.000 C 
ENDBRANCH  22  27
ENDBRANCH  16  19
ENDBRANCH   1  16
TORSDOF 6
ENDMDL
MODEL 2
REMARK VINA RESULT:      -8.1      4.018      6.669
REMARK  Name = 
REMARK  9 active torsions:
REMARK  status: ('A' for Active; 'I' for Inactive)
REMARK    1  A    between atoms: C_1  and  O_2
REMARK    2  A    between atoms: O_2  and  C_3
REMARK    3  A    between atoms: C_5  and  C_6
REMARK    4  A    between atoms: C_6  and  C_7
REMARK    5  A    between atoms: C_9  and  C_10
REMARK    6  A    between atoms: C_22  and  O_23
REMARK    7  A    between atoms: O_23  and  C_24
REMARK    8  A    between atoms: C_25  and  O_26
REMARK    9  A    between atoms: O_26  and  C_27
REMARK                            x       y       z     vdW  Elec       q    Type
REMARK                         _______ _______ _______ _____ _____    ______ ____
ROOT
ATOM      1  C   UNL     1       6.980   6.763  17.336  0.00  0.00    +0.000 A 
ATOM      2  N   UNL     1       7.263   8.030  17.349  0.00  0.00    +0.000 NA
ATOM      3  C   UNL     1       8.183   8.471  18.276  0.00  0.00    +0.000 A 
ATOM      4  N   UNL     1       8.731   7.715  19.181  0.00  0.00    +0.000 NA
ATOM      5  N   UNL     1       8.415   6.394  19.213  0.00  0.00    +0.000 N 
ATOM      6  C   UNL     1       7.604   5.786  18.300  0.00  0.00    +0.000 A 
ATOM      7  O   UNL     1       7.410   4.587  18.216  0.00  0.00    +0.000 OA
ATOM      8  H   UNL     1       8.903   5.815  19.890  0.00  0.00    +0.000 HD
ENDROOT
BRANCH   3   9
ATOM      9  C   UNL     1       8.571   9.914  18.186  0.00  0.00    +0.000 A 
ATOM     10  C   UNL     1       7.787  10.833  17.472  0.00  0.00    +0.000 A 
ATOM     11  C   UNL     1       8.189  12.170  17.366  0.00  0.00    +0.000 A 
ATOM     12  C   UNL     1       9.374  12.590  17.971  0.00  0.00    +0.000 A 
ATOM     13 CL   UNL     1       9.870  14.230  17.830  0.00  0.00    +0.000 Cl
ATOM     14  C   UNL     1      10.159  11.687  18.684  0.00  0.00    +0.000 A 
ATOM     15  C   UNL     1       9.759  10.353  18.791  0.00  0.00    +0.000 A 
ENDBRANCH   3   9
BRANCH   1  16
ATOM     16  C   UNL     1       6.031   6.200  16.312  0.00  0.00    +0.000 C 
BRANCH  16  19
ATOM     17  C   UNL     1       3.150   3.961  17.413  0.00  0.00    +0.000 A 
ATOM     18  C   UNL     1       4.267   4.447  16.710  0.00  0.00    +0.000 A 
ATOM     19  C   UNL     1       4.694   5.765  16.857  0.00  0.00    +0.000 A 
ATOM     20  C   UNL     1       3.900   6.637  17.601  0.00  0.00    +0.000 A 
ATOM     21  C   UNL     1       2.732   6.198  18.251  0.00  0.00    +0.000 A 
ATOM     22  C   UNL     1       2.347   4.841  18.173  0.00  0.00    +0.000 A 
BRANCH  17  24
ATOM     23  C   UNL     1       3.470   1.788  18.306  0.00  0.00    +0.000 C 
ATOM     24  O   UNL     1       2.829   2.628  17.344  0.00  0.00    +0.000 OA
ENDBRANCH  17  24
BRANCH  21  25
ATOM     25  O   UNL     1       2.133   7.229  18.934  0.00  0.00    +0.000 OA
ATOM     26  C   UNL     1       1.985   8.496  18.314  0.00  0.00    +0.000 C 
ENDBRANCH  21  25
BRANCH  22  27
ATOM     27  O   UNL     1       1.197   4.502  18.837  0.00  0.00    +0.000 OA
ATOM     28  C   UNL     1       1.240   4.110  20.199  0.00  0.00    +0.000 C 
ENDBRANCH  22  27
ENDBRANCH  16  19
ENDBRANCH   1  16
TORSDOF 6
ENDMDL
MODEL 3
REMARK VINA RESULT:      -7.9      0.335      2.681
REMARK  Name = 
REMARK  9 active torsions:
REMARK  status: ('A' for Active; 'I' for Inactive)
REMARK    1  A    between atoms: C_1  and  O_2
REMARK    2  A    between atoms: O_2  and  C_3
REMARK    3  A    between atoms: C_5  and  C_6
REMARK    4  A    between atoms: C_6  and  C_7
REMARK    5  A    between atoms: C_9  and  C_10
REMARK    6  A    between atoms: C_22  and  O_23
REMARK    7  A    between atoms: O_23  and  C_24
REMARK    8  A    between atoms: C_25  and  O_26
REMARK    9  A    between atoms: O_26  and  C_27
REMARK                            x       y       z     vdW  Elec       q    Type
REMARK                         _______ _______ _______ _____ _____    ______ ____
ROOT
ATOM      1  C   UNL     1       3.350   4.329  18.082  0.00  0.00    +0.000 A 
ATOM      2  N   UNL     1       2.823   5.513  18.008  0.00  0.00    +0.000 NA
ATOM      3  C   UNL     1       2.593   6.187  19.188  0.00  0.00    +0.000 A 
ATOM      4  N   UNL     1       2.804   5.688  20.370  0.00  0.00    +0.000 NA
ATOM      5  N   UNL     1       3.313   4.432  20.471  0.00  0.00    +0.000 N 
ATOM      6  C   UNL     1       3.691   3.679  19.399  0.00  0.00    +0.000 A 
ATOM      7  O   UNL     1       4.277   2.613  19.456  0.00  0.00    +0.000 OA
ATOM      8  H   UNL     1       3.526   4.090  21.403  0.00  0.00    +0.000 HD
ENDROOT
BRANCH   3   9
ATOM      9  C   UNL     1       2.094   7.593  19.059  0.00  0.00    +0.000 A 
ATOM     10  C   UNL     1       2.274   8.321  17.874  0.00  0.00    +0.000 A 
ATOM     11  C   UNL     1       1.836   9.648  17.788  0.00  0.00    +0.000 A 
ATOM     12  C   UNL     1       1.219  10.249  18.884  0.00  0.00    +0.000 A 
ATOM     13 CL   UNL     1       0.691  11.882  18.779  0.00  0.00    +0.000 Cl
ATOM     14  C   UNL     1       1.032   9.535  20.065  0.00  0.00    +0.000 A 
ATOM     15  C   UNL     1       1.468   8.211  20.154  0.00  0.00    +0.000 A 
ENDBRANCH   3   9
BRANCH   1  16
ATOM     16  C   UNL     1       3.684   3.559  16.833  0.00  0.00    +0.000 C 
BRANCH  16  19
ATOM     17  C   UNL     1       6.300   4.080  14.111  0.00  0.00    +0.000 A 
ATOM     18  C   UNL     1       5.261   3.512  14.870  0.00  0.00    +0.000 A 
ATOM     19  C   UNL     1       4.952   3.990  16.142  0.00  0.00    +0.000 A 
ATOM     20  C   UNL     1       5.795   4.946  16.710  0.00  0.00    +0.000 A 
ATOM     21  C   UNL     1       6.890   5.476  16.004  0.00  0.00    +0.000 A 
ATOM     22  C   UNL     1       7.151   5.053  14.681  0.00  0.00    +0.000 A 
BRANCH  17  24
ATOM     23  C   UNL     1       5.323   3.280  12.103  0.00  0.00    +0.000 C 
ATOM     24  O   UNL     1       6.499   3.671  12.815  0.00  0.00    +0.000 OA
ENDBRANCH  17  24
BRANCH  21  25
ATOM     25  O   UNL     1       7.555   6.412  16.759  0.00  0.00    +0.000 OA
ATOM     26  C   UNL     1       6.830   7.452  17.394  0.00  0.00    +0.000 C 
ENDBRANCH  21  25
BRANCH  22  27
ATOM     27  O   UNL     1       8.237   5.622  14.070  0.00  0.00    +0.000 OA
ATOM     28  C   UNL     1       8.273   5.777  12.661  0.00  0.00    +0.000 C 
ENDBRANCH  22  27
ENDBRANCH  16  19
ENDBRANCH   1  16
TORSDOF 6
ENDMDL
MODEL 4
REMARK VINA RESULT:      -7.9      5.448      8.969
REMARK  Name = 
REMARK  9 active torsions:
REMARK  status: ('A' for Active; 'I' for Inactive)
REMARK    1  A    between atoms: C_1  and  O_2
REMARK    2  A    between atoms: O_2  and  C_3
REMARK    3  A    between atoms: C_5  and  C_6
REMARK    4  A    between atoms: C_6  and  C_7
REMARK    5  A    between atoms: C_9  and  C_10
REMARK    6  A    between atoms: C_22  and  O_23
REMARK    7  A    between atoms: O_23  and  C_24
REMARK    8  A    between atoms: C_25  and  O_26
REMARK    9  A    between atoms: O_26  and  C_27
REMARK                            x       y       z     vdW  Elec       q    Type
REMARK                         _______ _______ _______ _____ _____    ______ ____
ROOT
ATOM      1  C   UNL     1       1.451   9.203  19.110  0.00  0.00    +0.000 A 
ATOM      2  N   UNL     1       2.240   8.498  18.358  0.00  0.00    +0.000 NA
ATOM      3  C   UNL     1       2.663   7.278  18.839  0.00  0.00    +0.000 A 
ATOM      4  N   UNL     1       2.379   6.819  20.023  0.00  0.00    +0.000 NA
ATOM      5  N   UNL     1       1.591   7.561  20.843  0.00  0.00    +0.000 N 
ATOM      6  C   UNL     1       1.009   8.739  20.474  0.00  0.00    +0.000 A 
ATOM      7  O   UNL     1       0.190   9.357  21.130  0.00  0.00    +0.000 OA
ATOM      8  H   UNL     1       1.334   7.152  21.737  0.00  0.00    +0.000 HD
ENDROOT
BRANCH   3   9
ATOM      9  C   UNL     1       3.476   6.443  17.899  0.00  0.00    +0.000 A 
ATOM     10  C   UNL     1       4.419   7.027  17.041  0.00  0.00    +0.000 A 
ATOM     11  C   UNL     1       5.141   6.233  16.142  0.00  0.00    +0.000 A 
ATOM     12  C   UNL     1       4.921   4.857  16.097  0.00  0.00    +0.000 A 
ATOM     13 CL   UNL     1       5.801   3.886  14.984  0.00  0.00    +0.000 Cl
ATOM     14  C   UNL     1       3.989   4.265  16.946  0.00  0.00    +0.000 A 
ATOM     15  C   UNL     1       3.268   5.056  17.845  0.00  0.00    +0.000 A 
ENDBRANCH   3   9
BRANCH   1  16
ATOM     16  C   UNL     1       0.901  10.518  18.625  0.00  0.00    +0.000 C 
BRANCH  16  19
ATOM     17  C   UNL     1      -2.729  11.582  19.081  0.00  0.00    +0.000 A 
ATOM     18  C   UNL     1      -1.371  11.330  19.345  0.00  0.00    +0.000 A 
ATOM     19  C   UNL     1      -0.598  10.563  18.476  0.00  0.00    +0.000 A 
ATOM     20  C   UNL     1      -1.237   9.924  17.414  0.00  0.00    +0.000 A 
ATOM     21  C   UNL     1      -2.612  10.094  17.171  0.00  0.00    +0.000 A 
ATOM     22  C   UNL     1      -3.378  10.941  18.002  0.00  0.00    +0.000 A 
BRANCH  17  24
ATOM     23  C   UNL     1      -2.876  12.663  21.187  0.00  0.00    +0.000 C 
ATOM     24  O   UNL     1      -3.431  12.443  19.889  0.00  0.00    +0.000 OA
ENDBRANCH  17  24
BRANCH  21  25
ATOM     25  O   UNL     1      -3.007   9.384  16.062  0.00  0.00    +0.000 OA
ATOM     26  C   UNL     1      -2.991  10.001  14.786  0.00  0.00    +0.000 C 
ENDBRANCH  21  25
BRANCH  22  27
ATOM     27  O   UNL     1      -4.708  11.048  17.692  0.00  0.00    +0.000 OA
ATOM     28  C   UNL     1      -5.182  12.136  16.916  0.00  0.00    +0.000 C 
ENDBRANCH  22  27
ENDBRANCH  16  19
ENDBRANCH   1  16
TORSDOF 6
ENDMDL
MODEL 5
REMARK VINA RESULT:      -7.7      5.445      8.992
REMARK  Name = 
REMARK  9 active torsions:
REMARK  status: ('A' for Active; 'I' for Inactive)
REMARK    1  A    between atoms: C_1  and  O_2
REMARK    2  A    between atoms: O_2  and  C_3
REMARK    3  A    between atoms: C_5  and  C_6
REMARK    4  A    between atoms: C_6  and  C_7
REMARK    5  A    between atoms: C_9  and  C_10
REMARK    6  A    between atoms: C_22  and  O_23
REMARK    7  A    between atoms: O_23  and  C_24
REMARK    8  A    between atoms: C_25  and  O_26
REMARK    9  A    between atoms: O_26  and  C_27
REMARK                            x       y       z     vdW  Elec       q    Type
REMARK                         _______ _______ _______ _____ _____    ______ ____
ROOT
ATOM      1  C   UNL     1       1.561   9.237  19.230  0.00  0.00    +0.000 A 
ATOM      2  N   UNL     1       2.309   8.506  18.460  0.00  0.00    +0.000 NA
ATOM      3  C   UNL     1       2.629   7.238  18.892  0.00  0.00    +0.000 A 
ATOM      4  N   UNL     1       2.289   6.751  20.050  0.00  0.00    +0.000 NA
ATOM      5  N   UNL     1       1.544   7.516  20.890  0.00  0.00    +0.000 N 
ATOM      6  C   UNL     1       1.060   8.749  20.565  0.00  0.00    +0.000 A 
ATOM      7  O   UNL     1       0.278   9.399  21.235  0.00  0.00    +0.000 OA
ATOM      8  H   UNL     1       1.240   7.090  21.761  0.00  0.00    +0.000 HD
ENDROOT
BRANCH   3   9
ATOM      9  C   UNL     1       3.394   6.385  17.929  0.00  0.00    +0.000 A 
ATOM     10  C   UNL     1       3.234   4.991  17.910  0.00  0.00    +0.000 A 
ATOM     11  C   UNL     1       3.988   4.207  17.029  0.00  0.00    +0.000 A 
ATOM     12  C   UNL     1       4.903   4.812  16.168  0.00  0.00    +0.000 A 
ATOM     13 CL   UNL     1       5.835   3.845  15.094  0.00  0.00    +0.000 Cl
ATOM     14  C   UNL     1       5.069   6.195  16.177  0.00  0.00    +0.000 A 
ATOM     15  C   UNL     1       4.317   6.980  17.055  0.00  0.00    +0.000 A 
ENDBRANCH   3   9
BRANCH   1  16
ATOM     16  C   UNL     1       1.122  10.609  18.795  0.00  0.00    +0.000 C 
BRANCH  16  19
ATOM     17  C   UNL     1      -2.390  12.007  19.270  0.00  0.00    +0.000 A 
ATOM     18  C   UNL     1      -1.057  11.639  19.523  0.00  0.00    +0.000 A 
ATOM     19  C   UNL     1      -0.368  10.787  18.663  0.00  0.00    +0.000 A 
ATOM     20  C   UNL     1      -1.077  10.185  17.623  0.00  0.00    +0.000 A 
ATOM     21  C   UNL     1      -2.434  10.474  17.392  0.00  0.00    +0.000 A 
ATOM     22  C   UNL     1      -3.110  11.405  18.213  0.00  0.00    +0.000 A 
BRANCH  17  24
ATOM     23  C   UNL     1      -2.155  13.989  20.551  0.00  0.00    +0.000 C 
ATOM     24  O   UNL     1      -3.001  12.945  20.066  0.00  0.00    +0.000 OA
ENDBRANCH  17  24
BRANCH  21  25
ATOM     25  O   UNL     1      -2.907   9.779  16.305  0.00  0.00    +0.000 OA
ATOM     26  C   UNL     1      -2.869  10.371  15.017  0.00  0.00    +0.000 C 
ENDBRANCH  21  25
BRANCH  22  27
ATOM     27  O   UNL     1      -4.429  11.625  17.916  0.00  0.00    +0.000 OA
ATOM     28  C   UNL     1      -5.425  10.707  18.335  0.00  0.00    +0.000 C 
ENDBRANCH  22  27
ENDBRANCH  16  19
ENDBRANCH   1  16
TORSDOF 6
ENDMDL
MODEL 6
REMARK VINA RESULT:      -7.7      5.524      9.410
REMARK  Name = 
REMARK  9 active torsions:
REMARK  status: ('A' for Active; 'I' for Inactive)
REMARK    1  A    between atoms: C_1  and  O_2
REMARK    2  A    between atoms: O_2  and  C_3
REMARK    3  A    between atoms: C_5  and  C_6
REMARK    4  A    between atoms: C_6  and  C_7
REMARK    5  A    between atoms: C_9  and  C_10
REMARK    6  A    between atoms: C_22  and  O_23
REMARK    7  A    between atoms: O_23  and  C_24
REMARK    8  A    between atoms: C_25  and  O_26
REMARK    9  A    between atoms: O_26  and  C_27
REMARK                            x       y       z     vdW  Elec       q    Type
REMARK                         _______ _______ _______ _____ _____    ______ ____
ROOT
ATOM      1  C   UNL     1       1.223   9.552  19.462  0.00  0.00    +0.000 A 
ATOM      2  N   UNL     1       1.984   8.799  18.727  0.00  0.00    +0.000 NA
ATOM      3  C   UNL     1       2.262   7.529  19.183  0.00  0.00    +0.000 A 
ATOM      4  N   UNL     1       1.867   7.060  20.331  0.00  0.00    +0.000 NA
ATOM      5  N   UNL     1       1.106   7.848  21.135  0.00  0.00    +0.000 N 
ATOM      6  C   UNL     1       0.661   9.087  20.781  0.00  0.00    +0.000 A 
ATOM      7  O   UNL     1      -0.133   9.760  21.415  0.00  0.00    +0.000 OA
ATOM      8  H   UNL     1       0.762   7.436  21.997  0.00  0.00    +0.000 HD
ENDROOT
BRANCH   3   9
ATOM      9  C   UNL     1       3.045   6.651  18.257  0.00  0.00    +0.000 A 
ATOM     10  C   UNL     1       2.823   5.267  18.210  0.00  0.00    +0.000 A 
ATOM     11  C   UNL     1       3.594   4.458  17.367  0.00  0.00    +0.000 A 
ATOM     12  C   UNL     1       4.587   5.029  16.572  0.00  0.00    +0.000 A 
ATOM     13 CL   UNL     1       5.539   4.031  15.544  0.00  0.00    +0.000 Cl
ATOM     14  C   UNL     1       4.814   6.402  16.608  0.00  0.00    +0.000 A 
ATOM     15  C   UNL     1       4.046   7.212  17.449  0.00  0.00    +0.000 A 
ENDBRANCH   3   9
BRANCH   1  16
ATOM     16  C   UNL     1       0.828  10.929  18.998  0.00  0.00    +0.000 C 
BRANCH  16  19
ATOM     17  C   UNL     1      -2.569  10.288  17.397  0.00  0.00    +0.000 A 
ATOM     18  C   UNL     1      -1.178  10.342  17.594  0.00  0.00    +0.000 A 
ATOM     19  C   UNL     1      -0.626  11.085  18.636  0.00  0.00    +0.000 A 
ATOM     20  C   UNL     1      -1.474  11.896  19.390  0.00  0.00    +0.000 A 
ATOM     21  C   UNL     1      -2.862  11.923  19.164  0.00  0.00    +0.000 A 
ATOM     22  C   UNL     1      -3.432  11.104  18.163  0.00  0.00    +0.000 A 
BRANCH  17  24
ATOM     23  C   UNL     1      -2.983   9.910  15.093  0.00  0.00    +0.000 C 
ATOM     24  O   UNL     1      -3.089   9.450  16.441  0.00  0.00    +0.000 OA
ENDBRANCH  17  24
BRANCH  21  25
ATOM     25  O   UNL     1      -3.487  12.778  20.040  0.00  0.00    +0.000 OA
ATOM     26  C   UNL     1      -2.940  12.990  21.331  0.00  0.00    +0.000 C 
ENDBRANCH  21  25
BRANCH  22  27
ATOM     27  O   UNL     1      -4.791  11.193  18.012  0.00  0.00    +0.000 OA
ATOM     28  C   UNL     1      -5.353  12.074  17.054  0.00  0.00    +0.000 C 
ENDBRANCH  22  27
ENDBRANCH  16  19
ENDBRANCH   1  16
TORSDOF 6
ENDMDL
MODEL 7
REMARK VINA RESULT:      -7.7      6.083      9.754
REMARK  Name = 
REMARK  9 active torsions:
REMARK  status: ('A' for Active; 'I' for Inactive)
REMARK    1  A    between atoms: C_1  and  O_2
REMARK    2  A    between atoms: O_2  and  C_3
REMARK    3  A    between atoms: C_5  and  C_6
REMARK    4  A    between atoms: C_6  and  C_7
REMARK    5  A    between atoms: C_9  and  C_10
REMARK    6  A    between atoms: C_22  and  O_23
REMARK    7  A    between atoms: O_23  and  C_24
REMARK    8  A    between atoms: C_25  and  O_26
REMARK    9  A    between atoms: O_26  and  C_27
REMARK                            x       y       z     vdW  Elec       q    Type
REMARK                         _______ _______ _______ _____ _____    ______ ____
ROOT
ATOM      1  C   UNL     1       0.518  10.433  20.333  0.00  0.00    +0.000 A 
ATOM      2  N   UNL     1       1.052   9.401  19.755  0.00  0.00    +0.000 NA
ATOM      3  C   UNL     1       1.466   8.359  20.557  0.00  0.00    +0.000 A 
ATOM      4  N   UNL     1       1.420   8.373  21.857  0.00  0.00    +0.000 NA
ATOM      5  N   UNL     1       0.906   9.463  22.484  0.00  0.00    +0.000 N 
ATOM      6  C   UNL     1       0.360  10.528  21.830  0.00  0.00    +0.000 A 
ATOM      7  O   UNL     1      -0.232  11.453  22.357  0.00  0.00    +0.000 OA
ATOM      8  H   UNL     1       0.826   9.423  23.496  0.00  0.00    +0.000 HD
ENDROOT
BRANCH   3   9
ATOM      9  C   UNL     1       1.968   7.140  19.849  0.00  0.00    +0.000 A 
ATOM     10  C   UNL     1       1.894   5.873  20.447  0.00  0.00    +0.000 A 
ATOM     11  C   UNL     1       2.406   4.750  19.786  0.00  0.00    +0.000 A 
ATOM     12  C   UNL     1       2.992   4.891  18.528  0.00  0.00    +0.000 A 
ATOM     13 CL   UNL     1       3.629   3.512  17.723  0.00  0.00    +0.000 Cl
ATOM     14  C   UNL     1       3.069   6.143  17.924  0.00  0.00    +0.000 A 
ATOM     15  C   UNL     1       2.559   7.265  18.582  0.00  0.00    +0.000 A 
ENDBRANCH   3   9
BRANCH   1  16
ATOM     16  C   UNL     1      -0.011  11.582  19.517  0.00  0.00    +0.000 C 
BRANCH  16  19
ATOM     17  C   UNL     1      -3.745  12.331  19.404  0.00  0.00    +0.000 A 
ATOM     18  C   UNL     1      -2.423  12.214  19.868  0.00  0.00    +0.000 A 
ATOM     19  C   UNL     1      -1.472  11.485  19.157  0.00  0.00    +0.000 A 
ATOM     20  C   UNL     1      -1.896  10.747  18.052  0.00  0.00    +0.000 A 
ATOM     21  C   UNL     1      -3.231  10.782  17.611  0.00  0.00    +0.000 A 
ATOM     22  C   UNL     1      -4.177  11.590  18.281  0.00  0.00    +0.000 A 
BRANCH  17  24
ATOM     23  C   UNL     1      -5.138  12.657  21.296  0.00  0.00    +0.000 C 
ATOM     24  O   UNL     1      -4.627  13.157  20.059  0.00  0.00    +0.000 OA
ENDBRANCH  17  24
BRANCH  21  25
ATOM     25  O   UNL     1      -3.402   9.995  16.498  0.00  0.00    +0.000 OA
ATOM     26  C   UNL     1      -3.043  10.492  15.219  0.00  0.00    +0.000 C 
ENDBRANCH  21  25
BRANCH  22  27
ATOM     27  O   UNL     1      -5.453  11.564  17.783  0.00  0.00    +0.000 OA
ATOM     28  C   UNL     1      -6.441  10.736  18.374  0.00  0.00    +0.000 C 
ENDBRANCH  22  27
ENDBRANCH  16  19
ENDBRANCH   1  16
TORSDOF 6
ENDMDL
MODEL 8
REMARK VINA RESULT:      -7.6      5.892      9.859
REMARK  Name = 
REMARK  9 active torsions:
REMARK  status: ('A' for Active; 'I' for Inactive)
REMARK    1  A    between atoms: C_1  and  O_2
REMARK    2  A    between atoms: O_2  and  C_3
REMARK    3  A    between atoms: C_5  and  C_6
REMARK    4  A    between atoms: C_6  and  C_7
REMARK    5  A    between atoms: C_9  and  C_10
REMARK    6  A    between atoms: C_22  and  O_23
REMARK    7  A    between atoms: O_23  and  C_24
REMARK    8  A    between atoms: C_25  and  O_26
REMARK    9  A    between atoms: O_26  and  C_27
REMARK                            x       y       z     vdW  Elec       q    Type
REMARK                         _______ _______ _______ _____ _____    ______ ____
ROOT
ATOM      1  C   UNL     1       0.727  10.418  20.298  0.00  0.00    +0.000 A 
ATOM      2  N   UNL     1       1.237   9.363  19.739  0.00  0.00    +0.000 NA
ATOM      3  C   UNL     1       1.516   8.281  20.546  0.00  0.00    +0.000 A 
ATOM      4  N   UNL     1       1.366   8.274  21.838  0.00  0.00    +0.000 NA
ATOM      5  N   UNL     1       0.876   9.384  22.449  0.00  0.00    +0.000 N 
ATOM      6  C   UNL     1       0.455  10.495  21.779  0.00  0.00    +0.000 A 
ATOM      7  O   UNL     1      -0.116  11.448  22.279  0.00  0.00    +0.000 OA
ATOM      8  H   UNL     1       0.711   9.330  23.450  0.00  0.00    +0.000 HD
ENDROOT
BRANCH   3   9
ATOM      9  C   UNL     1       1.993   7.044  19.851  0.00  0.00    +0.000 A 
ATOM     10  C   UNL     1       2.594   7.109  18.586  0.00  0.00    +0.000 A 
ATOM     11  C   UNL     1       2.997   5.937  17.936  0.00  0.00    +0.000 A 
ATOM     12  C   UNL     1       2.800   4.699  18.547  0.00  0.00    +0.000 A 
ATOM     13 CL   UNL     1       3.287   3.260  17.742  0.00  0.00    +0.000 Cl
ATOM     14  C   UNL     1       2.206   4.622  19.805  0.00  0.00    +0.000 A 
ATOM     15  C   UNL     1       1.803   5.791  20.456  0.00  0.00    +0.000 A 
ENDBRANCH   3   9
BRANCH   1  16
ATOM     16  C   UNL     1       0.341  11.614  19.469  0.00  0.00    +0.000 C 
BRANCH  16  19
ATOM     17  C   UNL     1      -2.818  10.616  17.588  0.00  0.00    +0.000 A 
ATOM     18  C   UNL     1      -1.463  10.817  17.904  0.00  0.00    +0.000 A 
ATOM     19  C   UNL     1      -1.084  11.616  18.981  0.00  0.00    +0.000 A 
ATOM     20  C   UNL     1      -2.075  12.335  19.650  0.00  0.00    +0.000 A 
ATOM     21  C   UNL     1      -3.433  12.215  19.304  0.00  0.00    +0.000 A 
ATOM     22  C   UNL     1      -3.825  11.338  18.268  0.00  0.00    +0.000 A 
BRANCH  17  24
ATOM     23  C   UNL     1      -2.932  10.170  15.262  0.00  0.00    +0.000 C 
ATOM     24  O   UNL     1      -3.163   9.726  16.600  0.00  0.00    +0.000 OA
ENDBRANCH  17  24
BRANCH  21  25
ATOM     25  O   UNL     1      -4.218  13.001  20.114  0.00  0.00    +0.000 OA
ATOM     26  C   UNL     1      -4.310  12.716  21.500  0.00  0.00    +0.000 C 
ENDBRANCH  21  25
BRANCH  22  27
ATOM     27  O   UNL     1      -5.167  11.284  17.999  0.00  0.00    +0.000 OA
ATOM     28  C   UNL     1      -5.766  12.224  17.122  0.00  0.00    +0.000 C 
ENDBRANCH  22  27
ENDBRANCH  16  19
ENDBRANCH   1  16
TORSDOF 6
ENDMDL
MODEL 9
REMARK VINA RESULT:      -7.6      3.511      7.201
REMARK  Name = 
REMARK  9 active torsions:
REMARK  status: ('A' for Active; 'I' for Inactive)
REMARK    1  A    between atoms: C_1  and  O_2
REMARK    2  A    between atoms: O_2  and  C_3
REMARK    3  A    between atoms: C_5  and  C_6
REMARK    4  A    between atoms: C_6  and  C_7
REMARK    5  A    between atoms: C_9  and  C_10
REMARK    6  A    between atoms: C_22  and  O_23
REMARK    7  A    between atoms: O_23  and  C_24
REMARK    8  A    between atoms: C_25  and  O_26
REMARK    9  A    between atoms: O_26  and  C_27
REMARK                            x       y       z     vdW  Elec       q    Type
REMARK                         _______ _______ _______ _____ _____    ______ ____
ROOT
ATOM      1  C   UNL     1       2.640   4.107  20.437  0.00  0.00    +0.000 A 
ATOM      2  N   UNL     1       3.379   4.453  19.428  0.00  0.00    +0.000 NA
ATOM      3  C   UNL     1       4.434   3.632  19.094  0.00  0.00    +0.000 A 
ATOM      4  N   UNL     1       4.779   2.572  19.766  0.00  0.00    +0.000 NA
ATOM      5  N   UNL     1       4.046   2.217  20.852  0.00  0.00    +0.000 N 
ATOM      6  C   UNL     1       2.913   2.865  21.248  0.00  0.00    +0.000 A 
ATOM      7  O   UNL     1       2.158   2.494  22.128  0.00  0.00    +0.000 OA
ATOM      8  H   UNL     1       4.299   1.353  21.322  0.00  0.00    +0.000 HD
ENDROOT
BRANCH   3   9
ATOM      9  C   UNL     1       5.192   4.000  17.856  0.00  0.00    +0.000 A 
ATOM     10  C   UNL     1       6.503   4.493  17.928  0.00  0.00    +0.000 A 
ATOM     11  C   UNL     1       7.180   4.869  16.762  0.00  0.00    +0.000 A 
ATOM     12  C   UNL     1       6.549   4.754  15.524  0.00  0.00    +0.000 A 
ATOM     13 CL   UNL     1       7.380   5.226  14.094  0.00  0.00    +0.000 Cl
ATOM     14  C   UNL     1       5.249   4.263  15.439  0.00  0.00    +0.000 A 
ATOM     15  C   UNL     1       4.571   3.887  16.602  0.00  0.00    +0.000 A 
ENDBRANCH   3   9
BRANCH   1  16
ATOM     16  C   UNL     1       1.435   4.923  20.822  0.00  0.00    +0.000 C 
BRANCH  16  19
ATOM     17  C   UNL     1       2.164   8.136  18.909  0.00  0.00    +0.000 A 
ATOM     18  C   UNL     1       2.261   6.815  19.381  0.00  0.00    +0.000 A 
ATOM     19  C   UNL     1       1.528   6.389  20.486  0.00  0.00    +0.000 A 
ATOM     20  C   UNL     1       0.808   7.341  21.208  0.00  0.00    +0.000 A 
ATOM     21  C   UNL     1       0.757   8.688  20.804  0.00  0.00    +0.000 A 
ATOM     22  C   UNL     1       1.431   9.102  19.634  0.00  0.00    +0.000 A 
BRANCH  17  24
ATOM     23  C   UNL     1       3.779   7.566  17.268  0.00  0.00    +0.000 C 
ATOM     24  O   UNL     1       2.802   8.493  17.746  0.00  0.00    +0.000 OA
ENDBRANCH  17  24
BRANCH  21  25
ATOM     25  O   UNL     1      -0.027   9.427  21.658  0.00  0.00    +0.000 OA
ATOM     26  C   UNL     1       0.269   9.454  23.044  0.00  0.00    +0.000 C 
ENDBRANCH  21  25
BRANCH  22  27
ATOM     27  O   UNL     1       1.326  10.431  19.316  0.00  0.00    +0.000 OA
ATOM     28  C   UNL     1       0.197  10.916  18.608  0.00  0.00    +0.000 C 
ENDBRANCH  22  27
ENDBRANCH  16  19
ENDBRANCH   1  16
TORSDOF 6
ENDMDL
