MODEL 1
REMARK VINA RESULT:      -8.7      0.000      0.000
REMARK  Name = 
REMARK  9 active torsions:
REMARK  status: ('A' for Active; 'I' for Inactive)
REMARK    1  A    between atoms: C_1  and  C_2
REMARK    2  A    between atoms: C_2  and  C_3
REMARK    3  A    between atoms: C_3  and  C_4
REMARK    4  A    between atoms: C_4  and  N_5
REMARK    5  A    between atoms: C_14  and  C_15
REMARK    6  A    between atoms: C_18  and  C_19
REMARK    7  A    between atoms: C_20  and  N_21
REMARK    8  A    between atoms: N_25  and  C_26
REMARK    9  A    between atoms: C_26  and  C_27
REMARK                            x       y       z     vdW  Elec       q    Type
REMARK                         _______ _______ _______ _____ _____    ______ ____
ROOT
ATOM      1  N   UNL     1       6.271   5.918  17.575  0.00  0.00    +0.000 N 
ATOM      2  C   UNL     1       6.847   4.655  17.669  0.00  0.00    +0.000 A 
ATOM      3  O   UNL     1       7.967   4.366  17.248  0.00  0.00    +0.000 OA
ATOM      4  N   UNL     1       6.115   3.678  18.293  0.00  0.00    +0.000 N 
ATOM      5  C   UNL     1       4.943   3.843  18.984  0.00  0.00    +0.000 A 
ATOM      6  O   UNL     1       4.531   2.927  19.686  0.00  0.00    +0.000 OA
ATOM      7  C   UNL     1       4.350   5.133  18.803  0.00  0.00    +0.000 A 
ATOM      8  C   UNL     1       5.004   6.116  18.108  0.00  0.00    +0.000 A 
ATOM      9  N   UNL     1       4.284   7.274  18.068  0.00  0.00    +0.000 NA
ATOM     10  C   UNL     1       3.157   7.043  18.744  0.00  0.00    +0.000 A 
ATOM     11  N   UNL     1       3.174   5.708  19.221  0.00  0.00    +0.000 N 
ATOM     12  H   UNL     1       6.574   2.786  18.405  0.00  0.00    +0.000 HD
ENDROOT
BRANCH  10  13
ATOM     13  C   UNL     1       2.098   8.087  18.968  0.00  0.00    +0.000 A 
ATOM     14  C   UNL     1       1.554   8.912  17.968  0.00  0.00    +0.000 A 
ATOM     15  C   UNL     1       0.524   9.833  18.188  0.00  0.00    +0.000 A 
ATOM     16  C   UNL     1      -0.020  10.004  19.453  0.00  0.00    +0.000 A 
ATOM     17  C   UNL     1      -1.158  10.973  19.612  0.00  0.00    +0.000 C 
ATOM     18  C   UNL     1       0.531   9.227  20.483  0.00  0.00    +0.000 A 
ATOM     19  C   UNL     1       1.563   8.281  20.257  0.00  0.00    +0.000 A 
BRANCH  18  20
ATOM     20  N   UNL     1       0.027   9.370  21.842  0.00  0.00    +0.000 N 
ATOM     21  O   UNL     1      -0.774   8.515  22.246  0.00  0.00    +0.000 OA
ATOM     22  O   UNL     1       0.439  10.335  22.498  0.00  0.00    +0.000 OA
ENDBRANCH  18  20
ENDBRANCH  10  13
BRANCH  11  23
ATOM     23  C   UNL     1       2.104   5.128  20.003  0.00  0.00    +0.000 C 
ATOM     24  C   UNL     1       1.251   3.961  19.561  0.00  0.00    +0.000 C 
ENDBRANCH  11  23
BRANCH   1  25
ATOM     25  C   UNL     1       7.046   7.003  16.982  0.00  0.00    +0.000 C 
BRANCH  25  26
ATOM     26  C   UNL     1       7.939   7.698  18.011  0.00  0.00    +0.000 C 
BRANCH  26  28
ATOM     27  C   UNL     1       8.980   9.852  18.754  0.00  0.00    +0.000 C 
ATOM     28  C   UNL     1       8.002   9.206  17.785  0.00  0.00    +0.000 C 
ENDBRANCH  26  28
ENDBRANCH  25  26
ENDBRANCH   1  25
TORSDOF 6
ENDMDL
MODEL 2
REMARK VINA RESULT:      -8.5      0.950      1.153
REMARK  Name = 
REMARK  9 active torsions:
REMARK  status: ('A' for Active; 'I' for Inactive)
REMARK    1  A    between atoms: C_1  and  C_2
REMARK    2  A    between atoms: C_2  and  C_3
REMARK    3  A    between atoms: C_3  and  C_4
REMARK    4  A    between atoms: C_4  and  N_5
REMARK    5  A    between atoms: C_14  and  C_15
REMARK    6  A    between atoms: C_18  and  C_19
REMARK    7  A    between atoms: C_20  and  N_21
REMARK    8  A    between atoms: N_25  and  C_26
REMARK    9  A    between atoms: C_26  and  C_27
REMARK                            x       y       z     vdW  Elec       q    Type
REMARK                         _______ _______ _______ _____ _____    ______ ____
ROOT
ATOM      1  N   UNL     1       6.288   5.905  17.083  0.00  0.00    +0.000 N 
ATOM      2  C   UNL     1       6.707   4.630  16.717  0.00  0.00    +0.000 A 
ATOM      3  O   UNL     1       7.855   4.343  16.376  0.00  0.00    +0.000 OA
ATOM      4  N   UNL     1       5.773   3.627  16.762  0.00  0.00    +0.000 N 
ATOM      5  C   UNL     1       4.509   3.703  17.286  0.00  0.00    +0.000 A 
ATOM      6  O   UNL     1       3.877   2.670  17.472  0.00  0.00    +0.000 OA
ATOM      7  C   UNL     1       4.093   5.040  17.582  0.00  0.00    +0.000 A 
ATOM      8  C   UNL     1       4.966   6.090  17.465  0.00  0.00    +0.000 A 
ATOM      9  N   UNL     1       4.385   7.274  17.814  0.00  0.00    +0.000 NA
ATOM     10  C   UNL     1       3.129   6.992  18.163  0.00  0.00    +0.000 A 
ATOM     11  N   UNL     1       2.919   5.596  18.032  0.00  0.00    +0.000 N 
ATOM     12  H   UNL     1       6.111   2.699  16.553  0.00  0.00    +0.000 HD
ENDROOT
BRANCH  10  13
ATOM     13  C   UNL     1       2.153   8.026  18.654  0.00  0.00    +0.000 A 
ATOM     14  C   UNL     1       1.554   9.013  17.851  0.00  0.00    +0.000 A 
ATOM     15  C   UNL     1       0.601   9.926  18.316  0.00  0.00    +0.000 A 
ATOM     16  C   UNL     1       0.199   9.921  19.645  0.00  0.00    +0.000 A 
ATOM     17  C   UNL     1      -0.865  10.895  20.068  0.00  0.00    +0.000 C 
ATOM     18  C   UNL     1       0.812   8.977  20.482  0.00  0.00    +0.000 A 
ATOM     19  C   UNL     1       1.764   8.040  20.007  0.00  0.00    +0.000 A 
BRANCH  18  20
ATOM     20  N   UNL     1       0.457   8.930  21.894  0.00  0.00    +0.000 N 
ATOM     21  O   UNL     1       1.200   9.525  22.688  0.00  0.00    +0.000 OA
ATOM     22  O   UNL     1      -0.565   8.303  22.198  0.00  0.00    +0.000 OA
ENDBRANCH  18  20
ENDBRANCH  10  13
BRANCH  11  23
ATOM     23  C   UNL     1       1.663   4.946  18.338  0.00  0.00    +0.000 C 
ATOM     24  C   UNL     1       1.383   4.171  19.606  0.00  0.00    +0.000 C 
ENDBRANCH  11  23
BRANCH   1  25
ATOM     25  C   UNL     1       7.268   6.985  17.116  0.00  0.00    +0.000 C 
BRANCH  25  26
ATOM     26  C   UNL     1       8.014   7.041  18.451  0.00  0.00    +0.000 C 
BRANCH  26  28
ATOM     27  C   UNL     1       8.254   9.395  17.629  0.00  0.00    +0.000 C 
ATOM     28  C   UNL     1       8.413   8.466  18.823  0.00  0.00    +0.000 C 
ENDBRANCH  26  28
ENDBRANCH  25  26
ENDBRANCH   1  25
TORSDOF 6
ENDMDL
MODEL 3
REMARK VINA RESULT:      -8.1      1.795      2.139
REMARK  Name = 
REMARK  9 active torsions:
REMARK  status: ('A' for Active; 'I' for Inactive)
REMARK    1  A    between atoms: C_1  and  C_2
REMARK    2  A    between atoms: C_2  and  C_3
REMARK    3  A    between atoms: C_3  and  C_4
REMARK    4  A    between atoms: C_4  and  N_5
REMARK    5  A    between atoms: C_14  and  C_15
REMARK    6  A    between atoms: C_18  and  C_19
REMARK    7  A    between atoms: C_20  and  N_21
REMARK    8  A    between atoms: N_25  and  C_26
REMARK    9  A    between atoms: C_26  and  C_27
REMARK                            x       y       z     vdW  Elec       q    Type
REMARK                         _______ _______ _______ _____ _____    ______ ____
ROOT
ATOM      1  N   UNL     1       5.364   5.533  16.925  0.00  0.00    +0.000 N 
ATOM      2  C   UNL     1       5.713   4.234  16.569  0.00  0.00    +0.000 A 
ATOM      3  O   UNL     1       6.683   3.939  15.873  0.00  0.00    +0.000 OA
ATOM      4  N   UNL     1       4.924   3.220  17.048  0.00  0.00    +0.000 N 
ATOM      5  C   UNL     1       3.923   3.326  17.978  0.00  0.00    +0.000 A 
ATOM      6  O   UNL     1       3.468   2.307  18.483  0.00  0.00    +0.000 OA
ATOM      7  C   UNL     1       3.548   4.677  18.263  0.00  0.00    +0.000 A 
ATOM      8  C   UNL     1       4.250   5.728  17.733  0.00  0.00    +0.000 A 
ATOM      9  N   UNL     1       3.751   6.930  18.142  0.00  0.00    +0.000 NA
ATOM     10  C   UNL     1       2.720   6.659  18.944  0.00  0.00    +0.000 A 
ATOM     11  N   UNL     1       2.573   5.252  19.042  0.00  0.00    +0.000 N 
ATOM     12  H   UNL     1       5.229   2.283  16.830  0.00  0.00    +0.000 HD
ENDROOT
BRANCH  10  13
ATOM     13  C   UNL     1       1.912   7.720  19.640  0.00  0.00    +0.000 A 
ATOM     14  C   UNL     1       1.543   7.691  20.997  0.00  0.00    +0.000 A 
ATOM     15  C   UNL     1       0.845   8.720  21.639  0.00  0.00    +0.000 A 
ATOM     16  C   UNL     1       0.445   9.852  20.942  0.00  0.00    +0.000 A 
ATOM     17  C   UNL     1      -0.257  10.942  21.702  0.00  0.00    +0.000 C 
ATOM     18  C   UNL     1       0.759   9.891  19.575  0.00  0.00    +0.000 A 
ATOM     19  C   UNL     1       1.482   8.857  18.929  0.00  0.00    +0.000 A 
BRANCH  18  20
ATOM     20  N   UNL     1       0.350  11.037  18.775  0.00  0.00    +0.000 N 
ATOM     21  O   UNL     1       1.164  11.963  18.648  0.00  0.00    +0.000 OA
ATOM     22  O   UNL     1      -0.781  11.001  18.275  0.00  0.00    +0.000 OA
ENDBRANCH  18  20
ENDBRANCH  10  13
BRANCH  11  23
ATOM     23  C   UNL     1       1.552   4.612  19.843  0.00  0.00    +0.000 C 
ATOM     24  C   UNL     1       1.811   3.872  21.135  0.00  0.00    +0.000 C 
ENDBRANCH  11  23
BRANCH   1  25
ATOM     25  C   UNL     1       6.217   6.635  16.494  0.00  0.00    +0.000 C 
BRANCH  25  26
ATOM     26  C   UNL     1       7.289   6.969  17.534  0.00  0.00    +0.000 C 
BRANCH  26  28
ATOM     27  C   UNL     1       8.632   8.777  18.632  0.00  0.00    +0.000 C 
ATOM     28  C   UNL     1       7.693   8.440  17.484  0.00  0.00    +0.000 C 
ENDBRANCH  26  28
ENDBRANCH  25  26
ENDBRANCH   1  25
TORSDOF 6
ENDMDL
MODEL 4
REMARK VINA RESULT:      -8.0      1.208      1.403
REMARK  Name = 
REMARK  9 active torsions:
REMARK  status: ('A' for Active; 'I' for Inactive)
REMARK    1  A    between atoms: C_1  and  C_2
REMARK    2  A    between atoms: C_2  and  C_3
REMARK    3  A    between atoms: C_3  and  C_4
REMARK    4  A    between atoms: C_4  and  N_5
REMARK    5  A    between atoms: C_14  and  C_15
REMARK    6  A    between atoms: C_18  and  C_19
REMARK    7  A    between atoms: C_20  and  N_21
REMARK    8  A    between atoms: N_25  and  C_26
REMARK    9  A    between atoms: C_26  and  C_27
REMARK                            x       y       z     vdW  Elec       q    Type
REMARK                         _______ _______ _______ _____ _____    ______ ____
ROOT
ATOM      1  N   UNL     1       6.088   5.713  16.676  0.00  0.00    +0.000 N 
ATOM      2  C   UNL     1       6.473   4.411  16.374  0.00  0.00    +0.000 A 
ATOM      3  O   UNL     1       7.575   4.095  15.927  0.00  0.00    +0.000 OA
ATOM      4  N   UNL     1       5.559   3.416  16.615  0.00  0.00    +0.000 N 
ATOM      5  C   UNL     1       4.365   3.539  17.276  0.00  0.00    +0.000 A 
ATOM      6  O   UNL     1       3.770   2.526  17.623  0.00  0.00    +0.000 OA
ATOM      7  C   UNL     1       3.975   4.896  17.503  0.00  0.00    +0.000 A 
ATOM      8  C   UNL     1       4.818   5.932  17.194  0.00  0.00    +0.000 A 
ATOM      9  N   UNL     1       4.271   7.142  17.507  0.00  0.00    +0.000 NA
ATOM     10  C   UNL     1       3.068   6.892  18.025  0.00  0.00    +0.000 A 
ATOM     11  N   UNL     1       2.857   5.490  18.040  0.00  0.00    +0.000 N 
ATOM     12  H   UNL     1       5.879   2.474  16.448  0.00  0.00    +0.000 HD
ENDROOT
BRANCH  10  13
ATOM     13  C   UNL     1       2.147   7.966  18.537  0.00  0.00    +0.000 A 
ATOM     14  C   UNL     1       1.527   8.944  17.738  0.00  0.00    +0.000 A 
ATOM     15  C   UNL     1       0.625   9.894  18.227  0.00  0.00    +0.000 A 
ATOM     16  C   UNL     1       0.298   9.940  19.575  0.00  0.00    +0.000 A 
ATOM     17  C   UNL     1      -0.716  10.953  20.027  0.00  0.00    +0.000 C 
ATOM     18  C   UNL     1       0.935   9.005  20.406  0.00  0.00    +0.000 A 
ATOM     19  C   UNL     1       1.836   8.030  19.909  0.00  0.00    +0.000 A 
BRANCH  18  20
ATOM     20  N   UNL     1       0.659   9.009  21.837  0.00  0.00    +0.000 N 
ATOM     21  O   UNL     1      -0.400   8.487  22.214  0.00  0.00    +0.000 OA
ATOM     22  O   UNL     1       1.506   9.530  22.573  0.00  0.00    +0.000 OA
ENDBRANCH  18  20
ENDBRANCH  10  13
BRANCH  11  23
ATOM     23  C   UNL     1       1.652   4.871  18.546  0.00  0.00    +0.000 C 
ATOM     24  C   UNL     1       1.492   4.320  19.945  0.00  0.00    +0.000 C 
ENDBRANCH  11  23
BRANCH   1  25
ATOM     25  C   UNL     1       7.055   6.791  16.501  0.00  0.00    +0.000 C 
BRANCH  25  26
ATOM     26  C   UNL     1       7.270   7.583  17.792  0.00  0.00    +0.000 C 
BRANCH  26  28
ATOM     27  C   UNL     1       7.723   5.817  19.510  0.00  0.00    +0.000 C 
ATOM     28  C   UNL     1       8.328   6.942  18.686  0.00  0.00    +0.000 C 
ENDBRANCH  26  28
ENDBRANCH  25  26
ENDBRANCH   1  25
TORSDOF 6
ENDMDL
MODEL 5
REMARK VINA RESULT:      -8.0      1.372      1.613
REMARK  Name = 
REMARK  9 active torsions:
REMARK  status: ('A' for Active; 'I' for Inactive)
REMARK    1  A    between atoms: C_1  and  C_2
REMARK    2  A    between atoms: C_2  and  C_3
REMARK    3  A    between atoms: C_3  and  C_4
REMARK    4  A    between atoms: C_4  and  N_5
REMARK    5  A    between atoms: C_14  and  C_15
REMARK    6  A    between atoms: C_18  and  C_19
REMARK    7  A    between atoms: C_20  and  N_21
REMARK    8  A    between atoms: N_25  and  C_26
REMARK    9  A    between atoms: C_26  and  C_27
REMARK                            x       y       z     vdW  Elec       q    Type
REMARK                         _______ _______ _______ _____ _____    ______ ____
ROOT
ATOM      1  N   UNL     1       4.947   5.182  16.627  0.00  0.00    +0.000 N 
ATOM      2  C   UNL     1       5.296   3.835  16.586  0.00  0.00    +0.000 A 
ATOM      3  O   UNL     1       6.134   3.354  15.824  0.00  0.00    +0.000 OA
ATOM      4  N   UNL     1       4.668   2.998  17.473  0.00  0.00    +0.000 N 
ATOM      5  C   UNL     1       3.855   3.364  18.513  0.00  0.00    +0.000 A 
ATOM      6  O   UNL     1       3.561   2.530  19.361  0.00  0.00    +0.000 OA
ATOM      7  C   UNL     1       3.465   4.740  18.478  0.00  0.00    +0.000 A 
ATOM      8  C   UNL     1       3.996   5.598  17.550  0.00  0.00    +0.000 A 
ATOM      9  N   UNL     1       3.515   6.866  17.697  0.00  0.00    +0.000 NA
ATOM     10  C   UNL     1       2.669   6.833  18.728  0.00  0.00    +0.000 A 
ATOM     11  N   UNL     1       2.622   5.512  19.241  0.00  0.00    +0.000 N 
ATOM     12  H   UNL     1       4.979   2.039  17.469  0.00  0.00    +0.000 HD
ENDROOT
BRANCH  10  13
ATOM     13  C   UNL     1       1.948   8.048  19.245  0.00  0.00    +0.000 A 
ATOM     14  C   UNL     1       1.664   9.199  18.490  0.00  0.00    +0.000 A 
ATOM     15  C   UNL     1       0.935  10.291  18.973  0.00  0.00    +0.000 A 
ATOM     16  C   UNL     1       0.456  10.307  20.276  0.00  0.00    +0.000 A 
ATOM     17  C   UNL     1      -0.362  11.488  20.717  0.00  0.00    +0.000 C 
ATOM     18  C   UNL     1       0.761   9.191  21.070  0.00  0.00    +0.000 A 
ATOM     19  C   UNL     1       1.484   8.077  20.575  0.00  0.00    +0.000 A 
BRANCH  18  20
ATOM     20  N   UNL     1       0.311   9.149  22.455  0.00  0.00    +0.000 N 
ATOM     21  O   UNL     1       1.042   9.675  23.307  0.00  0.00    +0.000 OA
ATOM     22  O   UNL     1      -0.772   8.596  22.680  0.00  0.00    +0.000 OA
ENDBRANCH  18  20
ENDBRANCH  10  13
BRANCH  11  23
ATOM     23  C   UNL     1       1.806   5.126  20.371  0.00  0.00    +0.000 C 
ATOM     24  C   UNL     1       0.774   4.021  20.348  0.00  0.00    +0.000 C 
ENDBRANCH  11  23
BRANCH   1  25
ATOM     25  C   UNL     1       5.642   6.116  15.748  0.00  0.00    +0.000 C 
BRANCH  25  26
ATOM     26  C   UNL     1       7.099   6.321  16.167  0.00  0.00    +0.000 C 
BRANCH  26  28
ATOM     27  C   UNL     1       7.745   6.331  18.588  0.00  0.00    +0.000 C 
ATOM     28  C   UNL     1       7.215   7.166  17.433  0.00  0.00    +0.000 C 
ENDBRANCH  26  28
ENDBRANCH  25  26
ENDBRANCH   1  25
TORSDOF 6
ENDMDL
MODEL 6
REMARK VINA RESULT:      -7.9      1.778      2.032
REMARK  Name = 
REMARK  9 active torsions:
REMARK  status: ('A' for Active; 'I' for Inactive)
REMARK    1  A    between atoms: C_1  and  C_2
REMARK    2  A    between atoms: C_2  and  C_3
REMARK    3  A    between atoms: C_3  and  C_4
REMARK    4  A    between atoms: C_4  and  N_5
REMARK    5  A    between atoms: C_14  and  C_15
REMARK    6  A    between atoms: C_18  and  C_19
REMARK    7  A    between atoms: C_20  and  N_21
REMARK    8  A    between atoms: N_25  and  C_26
REMARK    9  A    between atoms: C_26  and  C_27
REMARK                            x       y       z     vdW  Elec       q    Type
REMARK                         _______ _______ _______ _____ _____    ______ ____
ROOT
ATOM      1  N   UNL     1       6.471   5.612  17.785  0.00  0.00    +0.000 N 
ATOM      2  C   UNL     1       6.886   4.467  17.112  0.00  0.00    +0.000 A 
ATOM      3  O   UNL     1       8.056   4.207  16.833  0.00  0.00    +0.000 OA
ATOM      4  N   UNL     1       5.917   3.565  16.755  0.00  0.00    +0.000 N 
ATOM      5  C   UNL     1       4.600   3.580  17.132  0.00  0.00    +0.000 A 
ATOM      6  O   UNL     1       3.911   2.587  16.935  0.00  0.00    +0.000 OA
ATOM      7  C   UNL     1       4.199   4.803  17.759  0.00  0.00    +0.000 A 
ATOM      8  C   UNL     1       5.118   5.776  18.053  0.00  0.00    +0.000 A 
ATOM      9  N   UNL     1       4.542   6.850  18.667  0.00  0.00    +0.000 NA
ATOM     10  C   UNL     1       3.242   6.572  18.774  0.00  0.00    +0.000 A 
ATOM     11  N   UNL     1       2.999   5.291  18.217  0.00  0.00    +0.000 N 
ATOM     12  H   UNL     1       6.244   2.714  16.323  0.00  0.00    +0.000 HD
ENDROOT
BRANCH  10  13
ATOM     13  C   UNL     1       2.250   7.492  19.433  0.00  0.00    +0.000 A 
ATOM     14  C   UNL     1       1.744   7.331  20.735  0.00  0.00    +0.000 A 
ATOM     15  C   UNL     1       0.870   8.234  21.351  0.00  0.00    +0.000 A 
ATOM     16  C   UNL     1       0.425   9.364  20.679  0.00  0.00    +0.000 A 
ATOM     17  C   UNL     1      -0.472  10.320  21.416  0.00  0.00    +0.000 C 
ATOM     18  C   UNL     1       0.878   9.531  19.362  0.00  0.00    +0.000 A 
ATOM     19  C   UNL     1       1.776   8.625  18.744  0.00  0.00    +0.000 A 
BRANCH  18  20
ATOM     20  N   UNL     1       0.432  10.681  18.587  0.00  0.00    +0.000 N 
ATOM     21  O   UNL     1      -0.641  10.575  17.976  0.00  0.00    +0.000 OA
ATOM     22  O   UNL     1       1.155  11.684  18.601  0.00  0.00    +0.000 OA
ENDBRANCH  18  20
ENDBRANCH  10  13
BRANCH  11  23
ATOM     23  C   UNL     1       1.690   4.676  18.176  0.00  0.00    +0.000 C 
ATOM     24  C   UNL     1       1.217   3.599  19.126  0.00  0.00    +0.000 C 
ENDBRANCH  11  23
BRANCH   1  25
ATOM     25  C   UNL     1       7.478   6.562  18.244  0.00  0.00    +0.000 C 
BRANCH  25  26
ATOM     26  C   UNL     1       7.769   7.639  17.197  0.00  0.00    +0.000 C 
BRANCH  26  28
ATOM     27  C   UNL     1       8.821   9.411  18.622  0.00  0.00    +0.000 C 
ATOM     28  C   UNL     1       7.617   9.046  17.769  0.00  0.00    +0.000 C 
ENDBRANCH  26  28
ENDBRANCH  25  26
ENDBRANCH   1  25
TORSDOF 6
ENDMDL
MODEL 7
REMARK VINA RESULT:      -7.9      2.021      2.315
REMARK  Name = 
REMARK  9 active torsions:
REMARK  status: ('A' for Active; 'I' for Inactive)
REMARK    1  A    between atoms: C_1  and  C_2
REMARK    2  A    between atoms: C_2  and  C_3
REMARK    3  A    between atoms: C_3  and  C_4
REMARK    4  A    between atoms: C_4  and  N_5
REMARK    5  A    between atoms: C_14  and  C_15
REMARK    6  A    between atoms: C_18  and  C_19
REMARK    7  A    between atoms: C_20  and  N_21
REMARK    8  A    between atoms: N_25  and  C_26
REMARK    9  A    between atoms: C_26  and  C_27
REMARK                            x       y       z     vdW  Elec       q    Type
REMARK                         _______ _______ _______ _____ _____    ______ ____
ROOT
ATOM      1  N   UNL     1       4.872   5.367  16.930  0.00  0.00    +0.000 N 
ATOM      2  C   UNL     1       5.252   4.047  16.710  0.00  0.00    +0.000 A 
ATOM      3  O   UNL     1       6.109   3.693  15.901  0.00  0.00    +0.000 OA
ATOM      4  N   UNL     1       4.635   3.084  17.468  0.00  0.00    +0.000 N 
ATOM      5  C   UNL     1       3.803   3.287  18.538  0.00  0.00    +0.000 A 
ATOM      6  O   UNL     1       3.521   2.339  19.261  0.00  0.00    +0.000 OA
ATOM      7  C   UNL     1       3.382   4.646  18.684  0.00  0.00    +0.000 A 
ATOM      8  C   UNL     1       3.901   5.633  17.888  0.00  0.00    +0.000 A 
ATOM      9  N   UNL     1       3.390   6.859  18.199  0.00  0.00    +0.000 NA
ATOM     10  C   UNL     1       2.535   6.668  19.206  0.00  0.00    +0.000 A 
ATOM     11  N   UNL     1       2.514   5.289  19.534  0.00  0.00    +0.000 N 
ATOM     12  H   UNL     1       4.969   2.141  17.338  0.00  0.00    +0.000 HD
ENDROOT
BRANCH  10  13
ATOM     13  C   UNL     1       1.780   7.785  19.873  0.00  0.00    +0.000 A 
ATOM     14  C   UNL     1       1.406   7.807  21.228  0.00  0.00    +0.000 A 
ATOM     15  C   UNL     1       0.759   8.885  21.843  0.00  0.00    +0.000 A 
ATOM     16  C   UNL     1       0.420  10.020  21.118  0.00  0.00    +0.000 A 
ATOM     17  C   UNL     1      -0.228  11.162  21.849  0.00  0.00    +0.000 C 
ATOM     18  C   UNL     1       0.741  10.010  19.752  0.00  0.00    +0.000 A 
ATOM     19  C   UNL     1       1.412   8.925  19.133  0.00  0.00    +0.000 A 
BRANCH  18  20
ATOM     20  N   UNL     1       0.394  11.157  18.923  0.00  0.00    +0.000 N 
ATOM     21  O   UNL     1      -0.731  11.164  18.404  0.00  0.00    +0.000 OA
ATOM     22  O   UNL     1       1.247  12.044  18.803  0.00  0.00    +0.000 OA
ENDBRANCH  18  20
ENDBRANCH  10  13
BRANCH  11  23
ATOM     23  C   UNL     1       1.696   4.735  20.591  0.00  0.00    +0.000 C 
ATOM     24  C   UNL     1       0.704   3.608  20.408  0.00  0.00    +0.000 C 
ENDBRANCH  11  23
BRANCH   1  25
ATOM     25  C   UNL     1       5.553   6.427  16.194  0.00  0.00    +0.000 C 
BRANCH  25  26
ATOM     26  C   UNL     1       6.405   7.305  17.113  0.00  0.00    +0.000 C 
BRANCH  26  28
ATOM     27  C   UNL     1       7.694   6.085  18.881  0.00  0.00    +0.000 C 
ATOM     28  C   UNL     1       7.733   6.640  17.466  0.00  0.00    +0.000 C 
ENDBRANCH  26  28
ENDBRANCH  25  26
ENDBRANCH   1  25
TORSDOF 6
ENDMDL
MODEL 8
REMARK VINA RESULT:      -7.5      1.879      4.318
REMARK  Name = 
REMARK  9 active torsions:
REMARK  status: ('A' for Active; 'I' for Inactive)
REMARK    1  A    between atoms: C_1  and  C_2
REMARK    2  A    between atoms: C_2  and  C_3
REMARK    3  A    between atoms: C_3  and  C_4
REMARK    4  A    between atoms: C_4  and  N_5
REMARK    5  A    between atoms: C_14  and  C_15
REMARK    6  A    between atoms: C_18  and  C_19
REMARK    7  A    between atoms: C_20  and  N_21
REMARK    8  A    between atoms: N_25  and  C_26
REMARK    9  A    between atoms: C_26  and  C_27
REMARK                            x       y       z     vdW  Elec       q    Type
REMARK                         _______ _______ _______ _____ _____    ______ ____
ROOT
ATOM      1  N   UNL     1       3.564   3.494  20.393  0.00  0.00    +0.000 N 
ATOM      2  C   UNL     1       4.617   2.654  20.046  0.00  0.00    +0.000 A 
ATOM      3  O   UNL     1       4.784   1.521  20.495  0.00  0.00    +0.000 OA
ATOM      4  N   UNL     1       5.516   3.126  19.123  0.00  0.00    +0.000 N 
ATOM      5  C   UNL     1       5.404   4.269  18.376  0.00  0.00    +0.000 A 
ATOM      6  O   UNL     1       6.160   4.438  17.427  0.00  0.00    +0.000 OA
ATOM      7  C   UNL     1       4.351   5.136  18.812  0.00  0.00    +0.000 A 
ATOM      8  C   UNL     1       3.482   4.746  19.797  0.00  0.00    +0.000 A 
ATOM      9  N   UNL     1       2.541   5.701  20.050  0.00  0.00    +0.000 NA
ATOM     10  C   UNL     1       2.798   6.715  19.223  0.00  0.00    +0.000 A 
ATOM     11  N   UNL     1       3.926   6.386  18.431  0.00  0.00    +0.000 N 
ATOM     12  H   UNL     1       6.237   2.480  18.839  0.00  0.00    +0.000 HD
ENDROOT
BRANCH  10  13
ATOM     13  C   UNL     1       1.960   7.963  19.159  0.00  0.00    +0.000 A 
ATOM     14  C   UNL     1       1.577   8.616  17.974  0.00  0.00    +0.000 A 
ATOM     15  C   UNL     1       0.744   9.739  17.934  0.00  0.00    +0.000 A 
ATOM     16  C   UNL     1       0.253  10.303  19.104  0.00  0.00    +0.000 A 
ATOM     17  C   UNL     1      -0.677  11.478  18.990  0.00  0.00    +0.000 C 
ATOM     18  C   UNL     1       0.654   9.701  20.307  0.00  0.00    +0.000 A 
ATOM     19  C   UNL     1       1.483   8.552  20.346  0.00  0.00    +0.000 A 
BRANCH  18  20
ATOM     20  N   UNL     1       0.197  10.254  21.575  0.00  0.00    +0.000 N 
ATOM     21  O   UNL     1       0.684  11.336  21.933  0.00  0.00    +0.000 OA
ATOM     22  O   UNL     1      -0.648   9.603  22.202  0.00  0.00    +0.000 OA
ENDBRANCH  18  20
ENDBRANCH  10  13
BRANCH  11  23
ATOM     23  C   UNL     1       4.473   7.265  17.420  0.00  0.00    +0.000 C 
ATOM     24  C   UNL     1       4.740   6.865  15.986  0.00  0.00    +0.000 C 
ENDBRANCH  11  23
BRANCH   1  25
ATOM     25  C   UNL     1       2.548   3.003  21.318  0.00  0.00    +0.000 C 
BRANCH  25  26
ATOM     26  C   UNL     1       1.152   3.011  20.692  0.00  0.00    +0.000 C 
BRANCH  26  28
ATOM     27  C   UNL     1       0.932   2.988  18.197  0.00  0.00    +0.000 C 
ATOM     28  C   UNL     1       1.081   2.133  19.445  0.00  0.00    +0.000 C 
ENDBRANCH  26  28
ENDBRANCH  25  26
ENDBRANCH   1  25
TORSDOF 6
ENDMDL
MODEL 9
REMARK VINA RESULT:      -7.3      1.197      2.047
REMARK  Name = 
REMARK  9 active torsions:
REMARK  status: ('A' for Active; 'I' for Inactive)
REMARK    1  A    between atoms: C_1  and  C_2
REMARK    2  A    between atoms: C_2  and  C_3
REMARK    3  A    between atoms: C_3  and  C_4
REMARK    4  A    between atoms: C_4  and  N_5
REMARK    5  A    between atoms: C_14  and  C_15
REMARK    6  A    between atoms: C_18  and  C_19
REMARK    7  A    between atoms: C_20  and  N_21
REMARK    8  A    between atoms: N_25  and  C_26
REMARK    9  A    between atoms: C_26  and  C_27
REMARK                            x       y       z     vdW  Elec       q    Type
REMARK                         _______ _______ _______ _____ _____    ______ ____
ROOT
ATOM      1  N   UNL     1       5.903   5.580  17.837  0.00  0.00    +0.000 N 
ATOM      2  C   UNL     1       6.431   4.315  18.074  0.00  0.00    +0.000 A 
ATOM      3  O   UNL     1       7.522   3.926  17.660  0.00  0.00    +0.000 OA
ATOM      4  N   UNL     1       5.684   3.459  18.842  0.00  0.00    +0.000 N 
ATOM      5  C   UNL     1       4.546   3.762  19.543  0.00  0.00    +0.000 A 
ATOM      6  O   UNL     1       4.124   2.963  20.369  0.00  0.00    +0.000 OA
ATOM      7  C   UNL     1       3.999   5.043  19.216  0.00  0.00    +0.000 A 
ATOM      8  C   UNL     1       4.665   5.900  18.379  0.00  0.00    +0.000 A 
ATOM      9  N   UNL     1       3.990   7.074  18.213  0.00  0.00    +0.000 NA
ATOM     10  C   UNL     1       2.881   6.981  18.948  0.00  0.00    +0.000 A 
ATOM     11  N   UNL     1       2.862   5.719  19.593  0.00  0.00    +0.000 N 
ATOM     12  H   UNL     1       6.111   2.570  19.054  0.00  0.00    +0.000 HD
ENDROOT
BRANCH  10  13
ATOM     13  C   UNL     1       1.872   8.091  19.069  0.00  0.00    +0.000 A 
ATOM     14  C   UNL     1       1.303   8.785  17.987  0.00  0.00    +0.000 A 
ATOM     15  C   UNL     1       0.320   9.771  18.120  0.00  0.00    +0.000 A 
ATOM     16  C   UNL     1      -0.147  10.146  19.372  0.00  0.00    +0.000 A 
ATOM     17  C   UNL     1      -1.240  11.175  19.443  0.00  0.00    +0.000 C 
ATOM     18  C   UNL     1       0.433   9.503  20.476  0.00  0.00    +0.000 A 
ATOM     19  C   UNL     1       1.417   8.492  20.340  0.00  0.00    +0.000 A 
BRANCH  18  20
ATOM     20  N   UNL     1       0.010   9.864  21.823  0.00  0.00    +0.000 N 
ATOM     21  O   UNL     1       0.380  10.962  22.262  0.00  0.00    +0.000 OA
ATOM     22  O   UNL     1      -0.694   9.048  22.430  0.00  0.00    +0.000 OA
ENDBRANCH  18  20
ENDBRANCH  10  13
BRANCH  11  23
ATOM     23  C   UNL     1       1.800   5.291  20.476  0.00  0.00    +0.000 C 
ATOM     24  C   UNL     1       0.921   4.083  20.242  0.00  0.00    +0.000 C 
ENDBRANCH  11  23
BRANCH   1  25
ATOM     25  C   UNL     1       6.698   6.545  17.084  0.00  0.00    +0.000 C 
BRANCH  25  26
ATOM     26  C   UNL     1       6.883   6.121  15.626  0.00  0.00    +0.000 C 
BRANCH  26  28
ATOM     27  C   UNL     1       5.889   4.228  14.321  0.00  0.00    +0.000 C 
ATOM     28  C   UNL     1       5.602   5.540  15.034  0.00  0.00    +0.000 C 
ENDBRANCH  26  28
ENDBRANCH  25  26
ENDBRANCH   1  25
TORSDOF 6
ENDMDL
