MODEL 1
REMARK VINA RESULT:      -8.2      0.000      0.000
REMARK  Name = 
REMARK  3 active torsions:
REMARK  status: ('A' for Active; 'I' for Inactive)
REMARK    1  A    between atoms: C_7  and  C_8
REMARK    2  A    between atoms: C_8  and  N_9
REMARK    3  A    between atoms: C_12  and  C_13
REMARK                            x       y       z     vdW  Elec       q    Type
REMARK                         _______ _______ _______ _____ _____    ______ ____
ROOT
ATOM      1  N   UNL     1       6.075   5.005  18.012  0.00  0.00    +0.000 N 
ATOM      2  N   UNL     1       7.347   4.592  18.153  0.00  0.00    +0.000 NA
ATOM      3  N   UNL     1       7.793   4.431  16.916  0.00  0.00    +0.000 NA
ATOM      4  C   UNL     1       6.751   4.738  16.071  0.00  0.00    +0.000 A 
ATOM      5  N   UNL     1       5.644   5.116  16.736  0.00  0.00    +0.000 NA
ENDROOT
BRANCH   4   6
ATOM      6  C   UNL     1       6.831   4.594  14.621  0.00  0.00    +0.000 A 
ATOM      7  C   UNL     1       7.722   5.376  13.871  0.00  0.00    +0.000 A 
ATOM      8  C   UNL     1       7.825   5.206  12.487  0.00  0.00    +0.000 A 
ATOM      9  C   UNL     1       7.038   4.256  11.839  0.00  0.00    +0.000 A 
ATOM     10  C   UNL     1       6.147   3.476  12.571  0.00  0.00    +0.000 A 
ATOM     11  C   UNL     1       6.044   3.644  13.954  0.00  0.00    +0.000 A 
ENDBRANCH   4   6
BRANCH   1  12
ATOM     12  C   UNL     1       5.136   4.968  19.118  0.00  0.00    +0.000 C 
BRANCH  12  19
ATOM     13 CL   UNL     1       2.545   6.493  18.206  0.00  0.00    +0.000 Cl
ATOM     14  C   UNL     1       2.681   4.786  18.427  0.00  0.00    +0.000 A 
ATOM     15  C   UNL     1       1.528   4.018  18.226  0.00  0.00    +0.000 A 
ATOM     16  C   UNL     1       1.566   2.636  18.392  0.00  0.00    +0.000 A 
ATOM     17  C   UNL     1       2.761   2.015  18.745  0.00  0.00    +0.000 A 
ATOM     18  C   UNL     1       3.913   2.778  18.949  0.00  0.00    +0.000 A 
ATOM     19  C   UNL     1       3.887   4.179  18.812  0.00  0.00    +0.000 A 
ENDBRANCH  12  19
ENDBRANCH   1  12
TORSDOF 3
ENDMDL
MODEL 2
REMARK VINA RESULT:      -8.1      0.059      1.109
REMARK  Name = 
REMARK  3 active torsions:
REMARK  status: ('A' for Active; 'I' for Inactive)
REMARK    1  A    between atoms: C_7  and  C_8
REMARK    2  A    between atoms: C_8  and  N_9
REMARK    3  A    between atoms: C_12  and  C_13
REMARK                            x       y       z     vdW  Elec       q    Type
REMARK                         _______ _______ _______ _____ _____    ______ ____
ROOT
ATOM      1  N   UNL     1       6.124   4.961  18.010  0.00  0.00    +0.000 N 
ATOM      2  N   UNL     1       7.387   4.522  18.158  0.00  0.00    +0.000 NA
ATOM      3  N   UNL     1       7.836   4.349  16.924  0.00  0.00    +0.000 NA
ATOM      4  C   UNL     1       6.806   4.675  16.073  0.00  0.00    +0.000 A 
ATOM      5  N   UNL     1       5.703   5.078  16.731  0.00  0.00    +0.000 NA
ENDROOT
BRANCH   4   6
ATOM      6  C   UNL     1       6.890   4.527  14.624  0.00  0.00    +0.000 A 
ATOM      7  C   UNL     1       6.077   3.604  13.949  0.00  0.00    +0.000 A 
ATOM      8  C   UNL     1       6.132   3.493  12.556  0.00  0.00    +0.000 A 
ATOM      9  C   UNL     1       7.000   4.301  11.825  0.00  0.00    +0.000 A 
ATOM     10  C   UNL     1       7.816   5.218  12.482  0.00  0.00    +0.000 A 
ATOM     11  C   UNL     1       7.761   5.330  13.873  0.00  0.00    +0.000 A 
ENDBRANCH   4   6
BRANCH   1  12
ATOM     12  C   UNL     1       5.179   4.946  19.111  0.00  0.00    +0.000 C 
BRANCH  12  19
ATOM     13 CL   UNL     1       2.616   6.505  18.180  0.00  0.00    +0.000 Cl
ATOM     14  C   UNL     1       2.725   4.797  18.410  0.00  0.00    +0.000 A 
ATOM     15  C   UNL     1       1.561   4.045  18.208  0.00  0.00    +0.000 A 
ATOM     16  C   UNL     1       1.578   2.664  18.382  0.00  0.00    +0.000 A 
ATOM     17  C   UNL     1       2.762   2.027  18.743  0.00  0.00    +0.000 A 
ATOM     18  C   UNL     1       3.925   2.773  18.948  0.00  0.00    +0.000 A 
ATOM     19  C   UNL     1       3.920   4.174  18.804  0.00  0.00    +0.000 A 
ENDBRANCH  12  19
ENDBRANCH   1  12
TORSDOF 3
ENDMDL
MODEL 3
REMARK VINA RESULT:      -7.9      1.238      1.642
REMARK  Name = 
REMARK  3 active torsions:
REMARK  status: ('A' for Active; 'I' for Inactive)
REMARK    1  A    between atoms: C_7  and  C_8
REMARK    2  A    between atoms: C_8  and  N_9
REMARK    3  A    between atoms: C_12  and  C_13
REMARK                            x       y       z     vdW  Elec       q    Type
REMARK                         _______ _______ _______ _____ _____    ______ ____
ROOT
ATOM      1  N   UNL     1       6.100   5.115  18.066  0.00  0.00    +0.000 N 
ATOM      2  N   UNL     1       7.340   4.614  18.208  0.00  0.00    +0.000 NA
ATOM      3  N   UNL     1       7.766   4.405  16.971  0.00  0.00    +0.000 NA
ATOM      4  C   UNL     1       6.745   4.774  16.126  0.00  0.00    +0.000 A 
ATOM      5  N   UNL     1       5.671   5.239  16.791  0.00  0.00    +0.000 NA
ENDROOT
BRANCH   4   6
ATOM      6  C   UNL     1       6.807   4.605  14.679  0.00  0.00    +0.000 A 
ATOM      7  C   UNL     1       7.718   5.343  13.908  0.00  0.00    +0.000 A 
ATOM      8  C   UNL     1       7.802   5.148  12.526  0.00  0.00    +0.000 A 
ATOM      9  C   UNL     1       6.976   4.216  11.900  0.00  0.00    +0.000 A 
ATOM     10  C   UNL     1       6.064   3.480  12.652  0.00  0.00    +0.000 A 
ATOM     11  C   UNL     1       5.980   3.673  14.033  0.00  0.00    +0.000 A 
ENDBRANCH   4   6
BRANCH   1  12
ATOM     12  C   UNL     1       5.167   5.160  19.178  0.00  0.00    +0.000 C 
BRANCH  12  19
ATOM     13 CL   UNL     1       4.699   2.195  20.102  0.00  0.00    +0.000 Cl
ATOM     14  C   UNL     1       3.569   3.164  19.227  0.00  0.00    +0.000 A 
ATOM     15  C   UNL     1       2.359   2.566  18.857  0.00  0.00    +0.000 A 
ATOM     16  C   UNL     1       1.406   3.290  18.144  0.00  0.00    +0.000 A 
ATOM     17  C   UNL     1       1.654   4.619  17.812  0.00  0.00    +0.000 A 
ATOM     18  C   UNL     1       2.861   5.219  18.177  0.00  0.00    +0.000 A 
ATOM     19  C   UNL     1       3.848   4.495  18.873  0.00  0.00    +0.000 A 
ENDBRANCH  12  19
ENDBRANCH   1  12
TORSDOF 3
ENDMDL
MODEL 4
REMARK VINA RESULT:      -7.8      1.736      2.390
REMARK  Name = 
REMARK  3 active torsions:
REMARK  status: ('A' for Active; 'I' for Inactive)
REMARK    1  A    between atoms: C_7  and  C_8
REMARK    2  A    between atoms: C_8  and  N_9
REMARK    3  A    between atoms: C_12  and  C_13
REMARK                            x       y       z     vdW  Elec       q    Type
REMARK                         _______ _______ _______ _____ _____    ______ ____
ROOT
ATOM      1  N   UNL     1       4.966   4.685  17.696  0.00  0.00    +0.000 N 
ATOM      2  N   UNL     1       5.012   6.009  17.464  0.00  0.00    +0.000 NA
ATOM      3  N   UNL     1       5.416   6.122  16.207  0.00  0.00    +0.000 NA
ATOM      4  C   UNL     1       5.619   4.846  15.735  0.00  0.00    +0.000 A 
ATOM      5  N   UNL     1       5.333   3.906  16.655  0.00  0.00    +0.000 NA
ENDROOT
BRANCH   4   6
ATOM      6  C   UNL     1       6.154   4.562  14.408  0.00  0.00    +0.000 A 
ATOM      7  C   UNL     1       5.519   3.642  13.560  0.00  0.00    +0.000 A 
ATOM      8  C   UNL     1       6.011   3.403  12.273  0.00  0.00    +0.000 A 
ATOM      9  C   UNL     1       7.144   4.078  11.822  0.00  0.00    +0.000 A 
ATOM     10  C   UNL     1       7.787   4.991  12.655  0.00  0.00    +0.000 A 
ATOM     11  C   UNL     1       7.295   5.231  13.940  0.00  0.00    +0.000 A 
ENDBRANCH   4   6
BRANCH   1  12
ATOM     12  C   UNL     1       4.898   4.152  19.044  0.00  0.00    +0.000 C 
BRANCH  12  19
ATOM     13 CL   UNL     1       3.587   1.362  18.439  0.00  0.00    +0.000 Cl
ATOM     14  C   UNL     1       2.819   2.677  19.253  0.00  0.00    +0.000 A 
ATOM     15  C   UNL     1       1.485   2.504  19.637  0.00  0.00    +0.000 A 
ATOM     16  C   UNL     1       0.804   3.528  20.292  0.00  0.00    +0.000 A 
ATOM     17  C   UNL     1       1.460   4.721  20.579  0.00  0.00    +0.000 A 
ATOM     18  C   UNL     1       2.792   4.898  20.195  0.00  0.00    +0.000 A 
ATOM     19  C   UNL     1       3.487   3.886  19.507  0.00  0.00    +0.000 A 
ENDBRANCH  12  19
ENDBRANCH   1  12
TORSDOF 3
ENDMDL
MODEL 5
REMARK VINA RESULT:      -7.8      1.228      1.978
REMARK  Name = 
REMARK  3 active torsions:
REMARK  status: ('A' for Active; 'I' for Inactive)
REMARK    1  A    between atoms: C_7  and  C_8
REMARK    2  A    between atoms: C_8  and  N_9
REMARK    3  A    between atoms: C_12  and  C_13
REMARK                            x       y       z     vdW  Elec       q    Type
REMARK                         _______ _______ _______ _____ _____    ______ ____
ROOT
ATOM      1  N   UNL     1       5.903   5.176  18.131  0.00  0.00    +0.000 N 
ATOM      2  N   UNL     1       7.142   4.699  18.347  0.00  0.00    +0.000 NA
ATOM      3  N   UNL     1       7.631   4.462  17.139  0.00  0.00    +0.000 NA
ATOM      4  C   UNL     1       6.647   4.789  16.235  0.00  0.00    +0.000 A 
ATOM      5  N   UNL     1       5.535   5.256  16.834  0.00  0.00    +0.000 NA
ENDROOT
BRANCH   4   6
ATOM      6  C   UNL     1       6.782   4.580  14.798  0.00  0.00    +0.000 A 
ATOM      7  C   UNL     1       5.945   3.678  14.123  0.00  0.00    +0.000 A 
ATOM      8  C   UNL     1       6.050   3.511  12.739  0.00  0.00    +0.000 A 
ATOM      9  C   UNL     1       6.992   4.240  12.016  0.00  0.00    +0.000 A 
ATOM     10  C   UNL     1       7.833   5.135  12.674  0.00  0.00    +0.000 A 
ATOM     11  C   UNL     1       7.728   5.303  14.056  0.00  0.00    +0.000 A 
ENDBRANCH   4   6
BRANCH   1  12
ATOM     12  C   UNL     1       4.916   5.238  19.194  0.00  0.00    +0.000 C 
BRANCH  12  19
ATOM     13 CL   UNL     1       4.673   2.235  20.084  0.00  0.00    +0.000 Cl
ATOM     14  C   UNL     1       3.476   3.125  19.214  0.00  0.00    +0.000 A 
ATOM     15  C   UNL     1       2.316   2.440  18.833  0.00  0.00    +0.000 A 
ATOM     16  C   UNL     1       1.313   3.097  18.125  0.00  0.00    +0.000 A 
ATOM     17  C   UNL     1       1.459   4.445  17.809  0.00  0.00    +0.000 A 
ATOM     18  C   UNL     1       2.616   5.131  18.185  0.00  0.00    +0.000 A 
ATOM     19  C   UNL     1       3.653   4.477  18.877  0.00  0.00    +0.000 A 
ENDBRANCH  12  19
ENDBRANCH   1  12
TORSDOF 3
ENDMDL
MODEL 6
REMARK VINA RESULT:      -7.8      1.678      2.062
REMARK  Name = 
REMARK  3 active torsions:
REMARK  status: ('A' for Active; 'I' for Inactive)
REMARK    1  A    between atoms: C_7  and  C_8
REMARK    2  A    between atoms: C_8  and  N_9
REMARK    3  A    between atoms: C_12  and  C_13
REMARK                            x       y       z     vdW  Elec       q    Type
REMARK                         _______ _______ _______ _____ _____    ______ ____
ROOT
ATOM      1  N   UNL     1       5.082   4.790  17.715  0.00  0.00    +0.000 N 
ATOM      2  N   UNL     1       5.308   6.103  17.530  0.00  0.00    +0.000 NA
ATOM      3  N   UNL     1       5.696   6.207  16.268  0.00  0.00    +0.000 NA
ATOM      4  C   UNL     1       5.708   4.935  15.744  0.00  0.00    +0.000 A 
ATOM      5  N   UNL     1       5.314   4.009  16.638  0.00  0.00    +0.000 NA
ENDROOT
BRANCH   4   6
ATOM      6  C   UNL     1       6.169   4.632  14.394  0.00  0.00    +0.000 A 
ATOM      7  C   UNL     1       7.332   5.227  13.882  0.00  0.00    +0.000 A 
ATOM      8  C   UNL     1       7.793   4.902  12.603  0.00  0.00    +0.000 A 
ATOM      9  C   UNL     1       7.096   3.983  11.821  0.00  0.00    +0.000 A 
ATOM     10  C   UNL     1       5.938   3.388  12.315  0.00  0.00    +0.000 A 
ATOM     11  C   UNL     1       5.478   3.710  13.593  0.00  0.00    +0.000 A 
ENDBRANCH   4   6
BRANCH   1  12
ATOM     12  C   UNL     1       4.970   4.218  19.045  0.00  0.00    +0.000 C 
BRANCH  12  19
ATOM     13 CL   UNL     1       3.560   1.495  18.361  0.00  0.00    +0.000 Cl
ATOM     14  C   UNL     1       2.830   2.824  19.188  0.00  0.00    +0.000 A 
ATOM     15  C   UNL     1       1.484   2.698  19.546  0.00  0.00    +0.000 A 
ATOM     16  C   UNL     1       0.833   3.735  20.210  0.00  0.00    +0.000 A 
ATOM     17  C   UNL     1       1.531   4.895  20.533  0.00  0.00    +0.000 A 
ATOM     18  C   UNL     1       2.874   5.026  20.175  0.00  0.00    +0.000 A 
ATOM     19  C   UNL     1       3.541   4.000  19.479  0.00  0.00    +0.000 A 
ENDBRANCH  12  19
ENDBRANCH   1  12
TORSDOF 3
ENDMDL
MODEL 7
REMARK VINA RESULT:      -7.6      1.374      1.928
REMARK  Name = 
REMARK  3 active torsions:
REMARK  status: ('A' for Active; 'I' for Inactive)
REMARK    1  A    between atoms: C_7  and  C_8
REMARK    2  A    between atoms: C_8  and  N_9
REMARK    3  A    between atoms: C_12  and  C_13
REMARK                            x       y       z     vdW  Elec       q    Type
REMARK                         _______ _______ _______ _____ _____    ______ ____
ROOT
ATOM      1  N   UNL     1       4.839   5.367  17.612  0.00  0.00    +0.000 N 
ATOM      2  N   UNL     1       4.853   6.634  17.161  0.00  0.00    +0.000 NA
ATOM      3  N   UNL     1       5.247   6.543  15.900  0.00  0.00    +0.000 NA
ATOM      4  C   UNL     1       5.477   5.210  15.646  0.00  0.00    +0.000 A 
ATOM      5  N   UNL     1       5.219   4.432  16.714  0.00  0.00    +0.000 NA
ENDROOT
BRANCH   4   6
ATOM      6  C   UNL     1       6.012   4.720  14.381  0.00  0.00    +0.000 A 
ATOM      7  C   UNL     1       5.303   3.779  13.619  0.00  0.00    +0.000 A 
ATOM      8  C   UNL     1       5.799   3.342  12.387  0.00  0.00    +0.000 A 
ATOM      9  C   UNL     1       7.009   3.839  11.905  0.00  0.00    +0.000 A 
ATOM     10  C   UNL     1       7.726   4.769  12.653  0.00  0.00    +0.000 A 
ATOM     11  C   UNL     1       7.230   5.207  13.883  0.00  0.00    +0.000 A 
ENDBRANCH   4   6
BRANCH   1  12
ATOM     12  C   UNL     1       4.791   5.065  19.031  0.00  0.00    +0.000 C 
BRANCH  12  19
ATOM     13 CL   UNL     1       2.384   6.949  19.757  0.00  0.00    +0.000 Cl
ATOM     14  C   UNL     1       2.368   5.223  19.833  0.00  0.00    +0.000 A 
ATOM     15  C   UNL     1       1.199   4.611  20.300  0.00  0.00    +0.000 A 
ATOM     16  C   UNL     1       1.121   3.224  20.392  0.00  0.00    +0.000 A 
ATOM     17  C   UNL     1       2.206   2.443  20.002  0.00  0.00    +0.000 A 
ATOM     18  C   UNL     1       3.375   3.050  19.538  0.00  0.00    +0.000 A 
ATOM     19  C   UNL     1       3.482   4.452  19.465  0.00  0.00    +0.000 A 
ENDBRANCH  12  19
ENDBRANCH   1  12
TORSDOF 3
ENDMDL
MODEL 8
REMARK VINA RESULT:      -7.5      1.128      1.645
REMARK  Name = 
REMARK  3 active torsions:
REMARK  status: ('A' for Active; 'I' for Inactive)
REMARK    1  A    between atoms: C_7  and  C_8
REMARK    2  A    between atoms: C_8  and  N_9
REMARK    3  A    between atoms: C_12  and  C_13
REMARK                            x       y       z     vdW  Elec       q    Type
REMARK                         _______ _______ _______ _____ _____    ______ ____
ROOT
ATOM      1  N   UNL     1       4.958   5.486  17.600  0.00  0.00    +0.000 N 
ATOM      2  N   UNL     1       5.992   4.769  18.073  0.00  0.00    +0.000 NA
ATOM      3  N   UNL     1       6.668   4.395  16.997  0.00  0.00    +0.000 NA
ATOM      4  C   UNL     1       5.993   4.891  15.906  0.00  0.00    +0.000 A 
ATOM      5  N   UNL     1       4.903   5.599  16.255  0.00  0.00    +0.000 NA
ENDROOT
BRANCH   4   6
ATOM      6  C   UNL     1       6.387   4.612  14.530  0.00  0.00    +0.000 A 
ATOM      7  C   UNL     1       5.678   3.680  13.756  0.00  0.00    +0.000 A 
ATOM      8  C   UNL     1       6.033   3.445  12.424  0.00  0.00    +0.000 A 
ATOM      9  C   UNL     1       7.099   4.136  11.853  0.00  0.00    +0.000 A 
ATOM     10  C   UNL     1       7.815   5.060  12.610  0.00  0.00    +0.000 A 
ATOM     11  C   UNL     1       7.460   5.297  13.940  0.00  0.00    +0.000 A 
ENDBRANCH   4   6
BRANCH   1  12
ATOM     12  C   UNL     1       3.801   5.788  18.425  0.00  0.00    +0.000 C 
BRANCH  12  19
ATOM     13 CL   UNL     1       1.638   5.848  20.702  0.00  0.00    +0.000 Cl
ATOM     14  C   UNL     1       1.881   4.557  19.581  0.00  0.00    +0.000 A 
ATOM     15  C   UNL     1       1.077   3.420  19.726  0.00  0.00    +0.000 A 
ATOM     16  C   UNL     1       1.226   2.340  18.859  0.00  0.00    +0.000 A 
ATOM     17  C   UNL     1       2.167   2.399  17.836  0.00  0.00    +0.000 A 
ATOM     18  C   UNL     1       2.973   3.531  17.690  0.00  0.00    +0.000 A 
ATOM     19  C   UNL     1       2.857   4.621  18.573  0.00  0.00    +0.000 A 
ENDBRANCH  12  19
ENDBRANCH   1  12
TORSDOF 3
ENDMDL
MODEL 9
REMARK VINA RESULT:      -7.5      1.690      2.470
REMARK  Name = 
REMARK  3 active torsions:
REMARK  status: ('A' for Active; 'I' for Inactive)
REMARK    1  A    between atoms: C_7  and  C_8
REMARK    2  A    between atoms: C_8  and  N_9
REMARK    3  A    between atoms: C_12  and  C_13
REMARK                            x       y       z     vdW  Elec       q    Type
REMARK                         _______ _______ _______ _____ _____    ______ ____
ROOT
ATOM      1  N   UNL     1       5.578   4.184  17.932  0.00  0.00    +0.000 N 
ATOM      2  N   UNL     1       6.858   4.506  18.186  0.00  0.00    +0.000 NA
ATOM      3  N   UNL     1       7.415   4.658  16.993  0.00  0.00    +0.000 NA
ATOM      4  C   UNL     1       6.440   4.397  16.059  0.00  0.00    +0.000 A 
ATOM      5  N   UNL     1       5.254   4.101  16.623  0.00  0.00    +0.000 NA
ENDROOT
BRANCH   4   6
ATOM      6  C   UNL     1       6.696   4.377  14.623  0.00  0.00    +0.000 A 
ATOM      7  C   UNL     1       5.981   3.513  13.779  0.00  0.00    +0.000 A 
ATOM      8  C   UNL     1       6.200   3.526  12.398  0.00  0.00    +0.000 A 
ATOM      9  C   UNL     1       7.137   4.399  11.847  0.00  0.00    +0.000 A 
ATOM     10  C   UNL     1       7.856   5.259  12.673  0.00  0.00    +0.000 A 
ATOM     11  C   UNL     1       7.637   5.248  14.053  0.00  0.00    +0.000 A 
ENDBRANCH   4   6
BRANCH   1  12
ATOM     12  C   UNL     1       4.721   3.609  18.953  0.00  0.00    +0.000 C 
BRANCH  12  19
ATOM     13 CL   UNL     1       2.776   2.684  21.239  0.00  0.00    +0.000 Cl
ATOM     14  C   UNL     1       2.764   4.233  20.476  0.00  0.00    +0.000 A 
ATOM     15  C   UNL     1       1.777   5.139  20.877  0.00  0.00    +0.000 A 
ATOM     16  C   UNL     1       1.707   6.404  20.298  0.00  0.00    +0.000 A 
ATOM     17  C   UNL     1       2.634   6.772  19.328  0.00  0.00    +0.000 A 
ATOM     18  C   UNL     1       3.620   5.869  18.923  0.00  0.00    +0.000 A 
ATOM     19  C   UNL     1       3.689   4.576  19.477  0.00  0.00    +0.000 A 
ENDBRANCH  12  19
ENDBRANCH   1  12
TORSDOF 3
ENDMDL
