MODEL 1
REMARK VINA RESULT:      -7.7      0.000      0.000
REMARK  Name = 
REMARK  10 active torsions:
REMARK  status: ('A' for Active; 'I' for Inactive)
REMARK    1  A    between atoms: C_1  and  O_2
REMARK    2  A    between atoms: O_2  and  C_3
REMARK    3  A    between atoms: C_6  and  C_7
REMARK    4  A    between atoms: C_9  and  C_10
REMARK    5  A    between atoms: C_10  and  N_11
REMARK    6  A    between atoms: C_13  and  C_14
REMARK    7  A    between atoms: C_17  and  O_18
REMARK    8  A    between atoms: O_18  and  C_19
REMARK    9  A    between atoms: C_30  and  O_31
REMARK   10  A    between atoms: O_31  and  C_32
REMARK                            x       y       z     vdW  Elec       q    Type
REMARK                         _______ _______ _______ _____ _____    ______ ____
ROOT
ATOM      1  C   UNL     1       1.065  12.399  19.198  0.00  0.00    +0.000 C 
ENDROOT
BRANCH   1   4
ATOM      2  C   UNL     1      -1.632  12.405  21.700  0.00  0.00    +0.000 A 
ATOM      3  C   UNL     1      -1.302  12.439  20.323  0.00  0.00    +0.000 A 
ATOM      4  C   UNL     1       0.067  12.359  20.287  0.00  0.00    +0.000 A 
ATOM      5  O   UNL     1       0.540  12.256  21.554  0.00  0.00    +0.000 OA
ATOM      6  N   UNL     1      -0.518  12.271  22.441  0.00  0.00    +0.000 NA
BRANCH   2  10
ATOM      7  C   UNL     1      -5.513  12.884  23.428  0.00  0.00    +0.000 A 
ATOM      8  C   UNL     1      -4.381  12.718  24.243  0.00  0.00    +0.000 A 
ATOM      9  C   UNL     1      -3.111  12.563  23.685  0.00  0.00    +0.000 A 
ATOM     10  C   UNL     1      -2.955  12.522  22.299  0.00  0.00    +0.000 A 
ATOM     11  C   UNL     1      -4.096  12.600  21.491  0.00  0.00    +0.000 A 
ATOM     12  C   UNL     1      -5.376  12.777  22.037  0.00  0.00    +0.000 A 
BRANCH   7  14
ATOM     13  C   UNL     1      -7.155  14.480  24.021  0.00  0.00    +0.000 C 
ATOM     14  O   UNL     1      -6.745  13.114  23.977  0.00  0.00    +0.000 OA
ENDBRANCH   7  14
BRANCH  12  15
ATOM     15  O   UNL     1      -6.338  12.840  21.064  0.00  0.00    +0.000 OA
ATOM     16  C   UNL     1      -7.030  11.658  20.700  0.00  0.00    +0.000 C 
ENDBRANCH  12  15
ENDBRANCH   2  10
ENDBRANCH   1   4
BRANCH   1  17
ATOM     17  N   UNL     1       1.387  11.044  18.793  0.00  0.00    +0.000 N 
ATOM     18  C   UNL     1       1.201   9.894  19.504  0.00  0.00    +0.000 A 
ATOM     19  C   UNL     1       1.843   8.936  18.750  0.00  0.00    +0.000 A 
ATOM     20  N   UNL     1       2.337   9.520  17.609  0.00  0.00    +0.000 NA
ATOM     21  N   UNL     1       2.035  10.812  17.638  0.00  0.00    +0.000 NA
BRANCH  19  22
ATOM     22  C   UNL     1       2.011   7.530  19.080  0.00  0.00    +0.000 A 
ATOM     23  C   UNL     1       2.482   6.602  18.148  0.00  0.00    +0.000 A 
ATOM     24  C   UNL     1       2.653   5.263  18.501  0.00  0.00    +0.000 A 
ATOM     25  C   UNL     1       2.369   4.825  19.799  0.00  0.00    +0.000 A 
ATOM     26  C   UNL     1       1.844   5.731  20.717  0.00  0.00    +0.000 A 
ATOM     27  C   UNL     1       1.685   7.077  20.367  0.00  0.00    +0.000 A 
BRANCH  25  28
ATOM     28  O   UNL     1       2.581   3.502  20.011  0.00  0.00    +0.000 OA
BRANCH  28  29
ATOM     29  C   UNL     1       1.462   2.626  20.112  0.00  0.00    +0.000 C 
ATOM     30  F   UNL     1       1.646   1.417  19.540  0.00  0.00    +0.000 F 
ATOM     31  F   UNL     1       1.158   2.448  21.414  0.00  0.00    +0.000 F 
ATOM     32  F   UNL     1       0.406   3.211  19.505  0.00  0.00    +0.000 F 
ENDBRANCH  28  29
ENDBRANCH  25  28
ENDBRANCH  19  22
ENDBRANCH   1  17
TORSDOF 8
ENDMDL
MODEL 2
REMARK VINA RESULT:      -7.5      4.322     10.334
REMARK  Name = 
REMARK  10 active torsions:
REMARK  status: ('A' for Active; 'I' for Inactive)
REMARK    1  A    between atoms: C_1  and  O_2
REMARK    2  A    between atoms: O_2  and  C_3
REMARK    3  A    between atoms: C_6  and  C_7
REMARK    4  A    between atoms: C_9  and  C_10
REMARK    5  A    between atoms: C_10  and  N_11
REMARK    6  A    between atoms: C_13  and  C_14
REMARK    7  A    between atoms: C_17  and  O_18
REMARK    8  A    between atoms: O_18  and  C_19
REMARK    9  A    between atoms: C_30  and  O_31
REMARK   10  A    between atoms: O_31  and  C_32
REMARK                            x       y       z     vdW  Elec       q    Type
REMARK                         _______ _______ _______ _____ _____    ______ ____
ROOT
ATOM      1  C   UNL     1       1.566  11.022  18.328  0.00  0.00    +0.000 C 
ENDROOT
BRANCH   1   4
ATOM      2  C   UNL     1       2.401   7.449  18.592  0.00  0.00    +0.000 A 
ATOM      3  C   UNL     1       2.405   8.602  17.770  0.00  0.00    +0.000 A 
ATOM      4  C   UNL     1       1.892   9.599  18.561  0.00  0.00    +0.000 A 
ATOM      5  O   UNL     1       1.619   9.096  19.790  0.00  0.00    +0.000 OA
ATOM      6  N   UNL     1       1.948   7.755  19.819  0.00  0.00    +0.000 NA
BRANCH   2  10
ATOM      7  C   UNL     1       3.540   3.439  17.642  0.00  0.00    +0.000 A 
ATOM      8  C   UNL     1       4.481   4.480  17.600  0.00  0.00    +0.000 A 
ATOM      9  C   UNL     1       4.116   5.791  17.912  0.00  0.00    +0.000 A 
ATOM     10  C   UNL     1       2.790   6.094  18.222  0.00  0.00    +0.000 A 
ATOM     11  C   UNL     1       1.837   5.069  18.177  0.00  0.00    +0.000 A 
ATOM     12  C   UNL     1       2.193   3.743  17.887  0.00  0.00    +0.000 A 
BRANCH   7  14
ATOM     13  C   UNL     1       3.946   1.298  18.563  0.00  0.00    +0.000 C 
ATOM     14  O   UNL     1       3.916   2.143  17.413  0.00  0.00    +0.000 OA
ENDBRANCH   7  14
BRANCH  12  15
ATOM     15  O   UNL     1       1.107   2.909  17.911  0.00  0.00    +0.000 OA
ATOM     16  C   UNL     1       0.551   2.536  19.160  0.00  0.00    +0.000 C 
ENDBRANCH  12  15
ENDBRANCH   2  10
ENDBRANCH   1   4
BRANCH   1  17
ATOM     17  N   UNL     1       0.187  11.265  18.708  0.00  0.00    +0.000 N 
ATOM     18  C   UNL     1      -0.273  12.058  19.720  0.00  0.00    +0.000 A 
ATOM     19  C   UNL     1      -1.622  11.784  19.761  0.00  0.00    +0.000 A 
ATOM     20  N   UNL     1      -1.931  10.896  18.761  0.00  0.00    +0.000 NA
ATOM     21  N   UNL     1      -0.815  10.597  18.109  0.00  0.00    +0.000 NA
BRANCH  19  22
ATOM     22  C   UNL     1      -2.593  12.312  20.706  0.00  0.00    +0.000 A 
ATOM     23  C   UNL     1      -3.796  12.887  20.288  0.00  0.00    +0.000 A 
ATOM     24  C   UNL     1      -4.718  13.366  21.220  0.00  0.00    +0.000 A 
ATOM     25  C   UNL     1      -4.463  13.268  22.592  0.00  0.00    +0.000 A 
ATOM     26  C   UNL     1      -3.242  12.750  23.016  0.00  0.00    +0.000 A 
ATOM     27  C   UNL     1      -2.322  12.257  22.082  0.00  0.00    +0.000 A 
BRANCH  25  28
ATOM     28  O   UNL     1      -5.441  13.767  23.389  0.00  0.00    +0.000 OA
BRANCH  28  29
ATOM     29  C   UNL     1      -6.358  12.870  24.008  0.00  0.00    +0.000 C 
ATOM     30  F   UNL     1      -5.800  12.036  24.910  0.00  0.00    +0.000 F 
ATOM     31  F   UNL     1      -7.328  13.582  24.616  0.00  0.00    +0.000 F 
ATOM     32  F   UNL     1      -6.928  12.111  23.045  0.00  0.00    +0.000 F 
ENDBRANCH  28  29
ENDBRANCH  25  28
ENDBRANCH  19  22
ENDBRANCH   1  17
TORSDOF 8
ENDMDL
MODEL 3
REMARK VINA RESULT:      -7.4      4.628      7.000
REMARK  Name = 
REMARK  10 active torsions:
REMARK  status: ('A' for Active; 'I' for Inactive)
REMARK    1  A    between atoms: C_1  and  O_2
REMARK    2  A    between atoms: O_2  and  C_3
REMARK    3  A    between atoms: C_6  and  C_7
REMARK    4  A    between atoms: C_9  and  C_10
REMARK    5  A    between atoms: C_10  and  N_11
REMARK    6  A    between atoms: C_13  and  C_14
REMARK    7  A    between atoms: C_17  and  O_18
REMARK    8  A    between atoms: O_18  and  C_19
REMARK    9  A    between atoms: C_30  and  O_31
REMARK   10  A    between atoms: O_31  and  C_32
REMARK                            x       y       z     vdW  Elec       q    Type
REMARK                         _______ _______ _______ _____ _____    ______ ____
ROOT
ATOM      1  C   UNL     1      -0.174  10.566  20.069  0.00  0.00    +0.000 C 
ENDROOT
BRANCH   1   4
ATOM      2  C   UNL     1       1.927  13.574  20.325  0.00  0.00    +0.000 A 
ATOM      3  C   UNL     1       1.388  12.584  19.468  0.00  0.00    +0.000 A 
ATOM      4  C   UNL     1       0.616  11.796  20.285  0.00  0.00    +0.000 A 
ATOM      5  O   UNL     1       0.659  12.287  21.548  0.00  0.00    +0.000 OA
ATOM      6  N   UNL     1       1.467  13.407  21.576  0.00  0.00    +0.000 NA
BRANCH   2  10
ATOM      7  C   UNL     1       4.738  16.592  19.201  0.00  0.00    +0.000 A 
ATOM      8  C   UNL     1       4.939  15.822  20.357  0.00  0.00    +0.000 A 
ATOM      9  C   UNL     1       4.026  14.834  20.728  0.00  0.00    +0.000 A 
ATOM     10  C   UNL     1       2.868  14.631  19.976  0.00  0.00    +0.000 A 
ATOM     11  C   UNL     1       2.629  15.460  18.874  0.00  0.00    +0.000 A 
ATOM     12  C   UNL     1       3.548  16.443  18.477  0.00  0.00    +0.000 A 
BRANCH   7  14
ATOM     13  C   UNL     1       6.985  16.990  18.574  0.00  0.00    +0.000 C 
ATOM     14  O   UNL     1       5.673  17.507  18.796  0.00  0.00    +0.000 OA
ENDBRANCH   7  14
BRANCH  12  15
ATOM     15  O   UNL     1       3.116  17.123  17.369  0.00  0.00    +0.000 OA
ATOM     16  C   UNL     1       1.803  17.657  17.355  0.00  0.00    +0.000 C 
ENDBRANCH  12  15
ENDBRANCH   2  10
ENDBRANCH   1   4
BRANCH   1  17
ATOM     17  N   UNL     1       0.588   9.645  19.247  0.00  0.00    +0.000 N 
ATOM     18  C   UNL     1       1.495   8.712  19.661  0.00  0.00    +0.000 A 
ATOM     19  C   UNL     1       2.052   8.255  18.486  0.00  0.00    +0.000 A 
ATOM     20  N   UNL     1       1.438   8.877  17.427  0.00  0.00    +0.000 NA
ATOM     21  N   UNL     1       0.528   9.715  17.906  0.00  0.00    +0.000 NA
BRANCH  19  22
ATOM     22  C   UNL     1       3.129   7.289  18.347  0.00  0.00    +0.000 A 
ATOM     23  C   UNL     1       3.367   6.302  19.306  0.00  0.00    +0.000 A 
ATOM     24  C   UNL     1       4.396   5.375  19.133  0.00  0.00    +0.000 A 
ATOM     25  C   UNL     1       5.202   5.407  17.990  0.00  0.00    +0.000 A 
ATOM     26  C   UNL     1       5.009   6.423  17.057  0.00  0.00    +0.000 A 
ATOM     27  C   UNL     1       3.968   7.345  17.223  0.00  0.00    +0.000 A 
BRANCH  25  28
ATOM     28  O   UNL     1       6.162   4.449  17.944  0.00  0.00    +0.000 OA
BRANCH  28  29
ATOM     29  C   UNL     1       7.454   4.784  17.448  0.00  0.00    +0.000 C 
ATOM     30  F   UNL     1       7.799   6.078  17.617  0.00  0.00    +0.000 F 
ATOM     31  F   UNL     1       8.374   4.007  18.055  0.00  0.00    +0.000 F 
ATOM     32  F   UNL     1       7.484   4.521  16.122  0.00  0.00    +0.000 F 
ENDBRANCH  28  29
ENDBRANCH  25  28
ENDBRANCH  19  22
ENDBRANCH   1  17
TORSDOF 8
ENDMDL
MODEL 4
REMARK VINA RESULT:      -7.4      4.828     10.195
REMARK  Name = 
REMARK  10 active torsions:
REMARK  status: ('A' for Active; 'I' for Inactive)
REMARK    1  A    between atoms: C_1  and  O_2
REMARK    2  A    between atoms: O_2  and  C_3
REMARK    3  A    between atoms: C_6  and  C_7
REMARK    4  A    between atoms: C_9  and  C_10
REMARK    5  A    between atoms: C_10  and  N_11
REMARK    6  A    between atoms: C_13  and  C_14
REMARK    7  A    between atoms: C_17  and  O_18
REMARK    8  A    between atoms: O_18  and  C_19
REMARK    9  A    between atoms: C_30  and  O_31
REMARK   10  A    between atoms: O_31  and  C_32
REMARK                            x       y       z     vdW  Elec       q    Type
REMARK                         _______ _______ _______ _____ _____    ______ ____
ROOT
ATOM      1  C   UNL     1       1.251  11.712  18.747  0.00  0.00    +0.000 C 
ENDROOT
BRANCH   1   4
ATOM      2  C   UNL     1       1.933   8.099  18.668  0.00  0.00    +0.000 A 
ATOM      3  C   UNL     1       1.303   9.163  19.356  0.00  0.00    +0.000 A 
ATOM      4  C   UNL     1       1.556  10.275  18.592  0.00  0.00    +0.000 A 
ATOM      5  O   UNL     1       2.269   9.910  17.498  0.00  0.00    +0.000 OA
ATOM      6  N   UNL     1       2.495   8.548  17.533  0.00  0.00    +0.000 NA
BRANCH   2  10
ATOM      7  C   UNL     1       2.054   3.995  19.860  0.00  0.00    +0.000 A 
ATOM      8  C   UNL     1       2.137   5.021  20.815  0.00  0.00    +0.000 A 
ATOM      9  C   UNL     1       2.096   6.363  20.432  0.00  0.00    +0.000 A 
ATOM     10  C   UNL     1       2.021   6.704  19.081  0.00  0.00    +0.000 A 
ATOM     11  C   UNL     1       2.026   5.679  18.127  0.00  0.00    +0.000 A 
ATOM     12  C   UNL     1       2.046   4.326  18.498  0.00  0.00    +0.000 A 
BRANCH   7  14
ATOM     13  C   UNL     1       1.621   2.445  21.594  0.00  0.00    +0.000 C 
ATOM     14  O   UNL     1       2.016   2.681  20.243  0.00  0.00    +0.000 OA
ENDBRANCH   7  14
BRANCH  12  15
ATOM     15  O   UNL     1       2.033   3.500  17.406  0.00  0.00    +0.000 OA
ATOM     16  C   UNL     1       2.987   2.455  17.319  0.00  0.00    +0.000 C 
ENDBRANCH  12  15
ENDBRANCH   2  10
ENDBRANCH   1   4
BRANCH   1  17
ATOM     17  N   UNL     1       0.446  11.906  19.938  0.00  0.00    +0.000 N 
ATOM     18  C   UNL     1      -0.912  11.816  20.051  0.00  0.00    +0.000 A 
ATOM     19  C   UNL     1      -1.164  12.272  21.326  0.00  0.00    +0.000 A 
ATOM     20  N   UNL     1       0.028  12.565  21.942  0.00  0.00    +0.000 NA
ATOM     21  N   UNL     1       1.011  12.320  21.085  0.00  0.00    +0.000 NA
BRANCH  19  22
ATOM     22  C   UNL     1      -2.465  12.449  21.951  0.00  0.00    +0.000 A 
ATOM     23  C   UNL     1      -2.656  12.281  23.325  0.00  0.00    +0.000 A 
ATOM     24  C   UNL     1      -3.913  12.479  23.898  0.00  0.00    +0.000 A 
ATOM     25  C   UNL     1      -5.004  12.864  23.111  0.00  0.00    +0.000 A 
ATOM     26  C   UNL     1      -4.836  12.977  21.733  0.00  0.00    +0.000 A 
ATOM     27  C   UNL     1      -3.572  12.791  21.160  0.00  0.00    +0.000 A 
BRANCH  25  28
ATOM     28  O   UNL     1      -6.166  13.026  23.792  0.00  0.00    +0.000 OA
BRANCH  28  29
ATOM     29  C   UNL     1      -6.776  14.313  23.828  0.00  0.00    +0.000 C 
ATOM     30  F   UNL     1      -5.952  15.311  24.213  0.00  0.00    +0.000 F 
ATOM     31  F   UNL     1      -7.266  14.603  22.606  0.00  0.00    +0.000 F 
ATOM     32  F   UNL     1      -7.807  14.272  24.701  0.00  0.00    +0.000 F 
ENDBRANCH  28  29
ENDBRANCH  25  28
ENDBRANCH  19  22
ENDBRANCH   1  17
TORSDOF 8
ENDMDL
MODEL 5
REMARK VINA RESULT:      -7.4      1.806      2.370
REMARK  Name = 
REMARK  10 active torsions:
REMARK  status: ('A' for Active; 'I' for Inactive)
REMARK    1  A    between atoms: C_1  and  O_2
REMARK    2  A    between atoms: O_2  and  C_3
REMARK    3  A    between atoms: C_6  and  C_7
REMARK    4  A    between atoms: C_9  and  C_10
REMARK    5  A    between atoms: C_10  and  N_11
REMARK    6  A    between atoms: C_13  and  C_14
REMARK    7  A    between atoms: C_17  and  O_18
REMARK    8  A    between atoms: O_18  and  C_19
REMARK    9  A    between atoms: C_30  and  O_31
REMARK   10  A    between atoms: O_31  and  C_32
REMARK                            x       y       z     vdW  Elec       q    Type
REMARK                         _______ _______ _______ _____ _____    ______ ____
ROOT
ATOM      1  C   UNL     1       0.718  11.603  18.756  0.00  0.00    +0.000 C 
ENDROOT
BRANCH   1   4
ATOM      2  C   UNL     1      -2.787  12.260  19.657  0.00  0.00    +0.000 A 
ATOM      3  C   UNL     1      -1.427  12.537  19.938  0.00  0.00    +0.000 A 
ATOM      4  C   UNL     1      -0.722  11.819  19.004  0.00  0.00    +0.000 A 
ATOM      5  O   UNL     1      -1.593  11.170  18.192  0.00  0.00    +0.000 OA
ATOM      6  N   UNL     1      -2.885  11.452  18.587  0.00  0.00    +0.000 NA
BRANCH   2  10
ATOM      7  C   UNL     1      -6.253  13.701  21.704  0.00  0.00    +0.000 A 
ATOM      8  C   UNL     1      -4.972  14.159  22.054  0.00  0.00    +0.000 A 
ATOM      9  C   UNL     1      -3.837  13.693  21.388  0.00  0.00    +0.000 A 
ATOM     10  C   UNL     1      -3.957  12.723  20.392  0.00  0.00    +0.000 A 
ATOM     11  C   UNL     1      -5.226  12.206  20.106  0.00  0.00    +0.000 A 
ATOM     12  C   UNL     1      -6.378  12.679  20.753  0.00  0.00    +0.000 A 
BRANCH   7  14
ATOM     13  C   UNL     1      -7.633  13.742  23.625  0.00  0.00    +0.000 C 
ATOM     14  O   UNL     1      -7.370  14.216  22.304  0.00  0.00    +0.000 OA
ENDBRANCH   7  14
BRANCH  12  15
ATOM     15  O   UNL     1      -7.507  12.043  20.309  0.00  0.00    +0.000 OA
ATOM     16  C   UNL     1      -7.848  10.781  20.856  0.00  0.00    +0.000 C 
ENDBRANCH  12  15
ENDBRANCH   2  10
ENDBRANCH   1   4
BRANCH   1  17
ATOM     17  N   UNL     1       1.118  10.333  19.330  0.00  0.00    +0.000 N 
ATOM     18  C   UNL     1       1.813   9.325  18.725  0.00  0.00    +0.000 A 
ATOM     19  C   UNL     1       1.755   8.294  19.637  0.00  0.00    +0.000 A 
ATOM     20  N   UNL     1       1.087   8.724  20.757  0.00  0.00    +0.000 NA
ATOM     21  N   UNL     1       0.715   9.983  20.564  0.00  0.00    +0.000 NA
BRANCH  19  22
ATOM     22  C   UNL     1       2.283   6.950  19.473  0.00  0.00    +0.000 A 
ATOM     23  C   UNL     1       2.043   5.941  20.409  0.00  0.00    +0.000 A 
ATOM     24  C   UNL     1       2.546   4.654  20.212  0.00  0.00    +0.000 A 
ATOM     25  C   UNL     1       3.290   4.345  19.068  0.00  0.00    +0.000 A 
ATOM     26  C   UNL     1       3.583   5.359  18.160  0.00  0.00    +0.000 A 
ATOM     27  C   UNL     1       3.068   6.646  18.349  0.00  0.00    +0.000 A 
BRANCH  25  28
ATOM     28  O   UNL     1       3.716   3.058  18.998  0.00  0.00    +0.000 OA
BRANCH  28  29
ATOM     29  C   UNL     1       2.910   2.095  18.325  0.00  0.00    +0.000 C 
ATOM     30  F   UNL     1       2.281   2.563  17.227  0.00  0.00    +0.000 F 
ATOM     31  F   UNL     1       3.681   1.047  17.971  0.00  0.00    +0.000 F 
ATOM     32  F   UNL     1       1.964   1.656  19.185  0.00  0.00    +0.000 F 
ENDBRANCH  28  29
ENDBRANCH  25  28
ENDBRANCH  19  22
ENDBRANCH   1  17
TORSDOF 8
ENDMDL
MODEL 6
REMARK VINA RESULT:      -7.3      4.835      7.380
REMARK  Name = 
REMARK  10 active torsions:
REMARK  status: ('A' for Active; 'I' for Inactive)
REMARK    1  A    between atoms: C_1  and  O_2
REMARK    2  A    between atoms: O_2  and  C_3
REMARK    3  A    between atoms: C_6  and  C_7
REMARK    4  A    between atoms: C_9  and  C_10
REMARK    5  A    between atoms: C_10  and  N_11
REMARK    6  A    between atoms: C_13  and  C_14
REMARK    7  A    between atoms: C_17  and  O_18
REMARK    8  A    between atoms: O_18  and  C_19
REMARK    9  A    between atoms: C_30  and  O_31
REMARK   10  A    between atoms: O_31  and  C_32
REMARK                            x       y       z     vdW  Elec       q    Type
REMARK                         _______ _______ _______ _____ _____    ______ ____
ROOT
ATOM      1  C   UNL     1      -0.420  10.714  18.822  0.00  0.00    +0.000 C 
ENDROOT
BRANCH   1   4
ATOM      2  C   UNL     1       1.384  13.917  18.680  0.00  0.00    +0.000 A 
ATOM      3  C   UNL     1       1.489  12.505  18.678  0.00  0.00    +0.000 A 
ATOM      4  C   UNL     1       0.193  12.056  18.735  0.00  0.00    +0.000 A 
ATOM      5  O   UNL     1      -0.647  13.120  18.743  0.00  0.00    +0.000 OA
ATOM      6  N   UNL     1       0.092  14.286  18.695  0.00  0.00    +0.000 NA
BRANCH   2  10
ATOM      7  C   UNL     1       4.630  16.695  18.821  0.00  0.00    +0.000 A 
ATOM      8  C   UNL     1       3.366  17.045  19.321  0.00  0.00    +0.000 A 
ATOM      9  C   UNL     1       2.302  16.142  19.280  0.00  0.00    +0.000 A 
ATOM     10  C   UNL     1       2.471  14.888  18.692  0.00  0.00    +0.000 A 
ATOM     11  C   UNL     1       3.708  14.575  18.116  0.00  0.00    +0.000 A 
ATOM     12  C   UNL     1       4.792  15.464  18.169  0.00  0.00    +0.000 A 
BRANCH   7  14
ATOM     13  C   UNL     1       6.271  17.648  20.234  0.00  0.00    +0.000 C 
ATOM     14  O   UNL     1       5.691  17.552  18.933  0.00  0.00    +0.000 OA
ENDBRANCH   7  14
BRANCH  12  15
ATOM     15  O   UNL     1       5.903  14.948  17.557  0.00  0.00    +0.000 OA
ATOM     16  C   UNL     1       6.961  14.446  18.356  0.00  0.00    +0.000 C 
ENDBRANCH  12  15
ENDBRANCH   2  10
ENDBRANCH   1   4
BRANCH   1  17
ATOM     17  N   UNL     1       0.623   9.720  18.984  0.00  0.00    +0.000 N 
ATOM     18  C   UNL     1       1.331   9.085  18.004  0.00  0.00    +0.000 A 
ATOM     19  C   UNL     1       2.042   8.122  18.687  0.00  0.00    +0.000 A 
ATOM     20  N   UNL     1       1.784   8.241  20.030  0.00  0.00    +0.000 NA
ATOM     21  N   UNL     1       0.924   9.238  20.202  0.00  0.00    +0.000 NA
BRANCH  19  22
ATOM     22  C   UNL     1       2.918   7.112  18.115  0.00  0.00    +0.000 A 
ATOM     23  C   UNL     1       2.600   5.752  18.148  0.00  0.00    +0.000 A 
ATOM     24  C   UNL     1       3.451   4.808  17.571  0.00  0.00    +0.000 A 
ATOM     25  C   UNL     1       4.633   5.205  16.938  0.00  0.00    +0.000 A 
ATOM     26  C   UNL     1       4.986   6.552  16.951  0.00  0.00    +0.000 A 
ATOM     27  C   UNL     1       4.126   7.501  17.517  0.00  0.00    +0.000 A 
BRANCH  25  28
ATOM     28  O   UNL     1       5.367   4.190  16.416  0.00  0.00    +0.000 OA
BRANCH  28  29
ATOM     29  C   UNL     1       6.018   4.376  15.163  0.00  0.00    +0.000 C 
ATOM     30  F   UNL     1       5.360   5.185  14.307  0.00  0.00    +0.000 F 
ATOM     31  F   UNL     1       7.250   4.880  15.377  0.00  0.00    +0.000 F 
ATOM     32  F   UNL     1       6.150   3.169  14.568  0.00  0.00    +0.000 F 
ENDBRANCH  28  29
ENDBRANCH  25  28
ENDBRANCH  19  22
ENDBRANCH   1  17
TORSDOF 8
ENDMDL
MODEL 7
REMARK VINA RESULT:      -7.3      4.328     10.050
REMARK  Name = 
REMARK  10 active torsions:
REMARK  status: ('A' for Active; 'I' for Inactive)
REMARK    1  A    between atoms: C_1  and  O_2
REMARK    2  A    between atoms: O_2  and  C_3
REMARK    3  A    between atoms: C_6  and  C_7
REMARK    4  A    between atoms: C_9  and  C_10
REMARK    5  A    between atoms: C_10  and  N_11
REMARK    6  A    between atoms: C_13  and  C_14
REMARK    7  A    between atoms: C_17  and  O_18
REMARK    8  A    between atoms: O_18  and  C_19
REMARK    9  A    between atoms: C_30  and  O_31
REMARK   10  A    between atoms: O_31  and  C_32
REMARK                            x       y       z     vdW  Elec       q    Type
REMARK                         _______ _______ _______ _____ _____    ______ ____
ROOT
ATOM      1  C   UNL     1       1.204  11.810  18.588  0.00  0.00    +0.000 C 
ENDROOT
BRANCH   1   4
ATOM      2  C   UNL     1       2.019   8.226  18.713  0.00  0.00    +0.000 A 
ATOM      3  C   UNL     1       1.447   9.327  19.394  0.00  0.00    +0.000 A 
ATOM      4  C   UNL     1       1.545  10.374  18.512  0.00  0.00    +0.000 A 
ATOM      5  O   UNL     1       2.113   9.936  17.361  0.00  0.00    +0.000 OA
ATOM      6  N   UNL     1       2.399   8.590  17.476  0.00  0.00    +0.000 NA
BRANCH   2  10
ATOM      7  C   UNL     1       2.512   4.223  20.131  0.00  0.00    +0.000 A 
ATOM      8  C   UNL     1       1.903   5.198  20.937  0.00  0.00    +0.000 A 
ATOM      9  C   UNL     1       1.738   6.506  20.479  0.00  0.00    +0.000 A 
ATOM     10  C   UNL     1       2.223   6.876  19.224  0.00  0.00    +0.000 A 
ATOM     11  C   UNL     1       2.907   5.923  18.460  0.00  0.00    +0.000 A 
ATOM     12  C   UNL     1       3.062   4.599  18.898  0.00  0.00    +0.000 A 
BRANCH   7  14
ATOM     13  C   UNL     1       1.821   2.589  21.697  0.00  0.00    +0.000 C 
ATOM     14  O   UNL     1       2.603   2.923  20.551  0.00  0.00    +0.000 OA
ENDBRANCH   7  14
BRANCH  12  15
ATOM     15  O   UNL     1       3.748   3.840  17.988  0.00  0.00    +0.000 OA
ATOM     16  C   UNL     1       3.033   2.932  17.167  0.00  0.00    +0.000 C 
ENDBRANCH  12  15
ENDBRANCH   2  10
ENDBRANCH   1   4
BRANCH   1  17
ATOM     17  N   UNL     1      -0.204  11.952  18.908  0.00  0.00    +0.000 N 
ATOM     18  C   UNL     1      -0.758  12.629  19.957  0.00  0.00    +0.000 A 
ATOM     19  C   UNL     1      -2.091  12.288  19.898  0.00  0.00    +0.000 A 
ATOM     20  N   UNL     1      -2.300  11.477  18.810  0.00  0.00    +0.000 NA
ATOM     21  N   UNL     1      -1.136  11.292  18.199  0.00  0.00    +0.000 NA
BRANCH  19  22
ATOM     22  C   UNL     1      -3.137  12.683  20.828  0.00  0.00    +0.000 A 
ATOM     23  C   UNL     1      -2.960  12.618  22.212  0.00  0.00    +0.000 A 
ATOM     24  C   UNL     1      -3.976  13.025  23.079  0.00  0.00    +0.000 A 
ATOM     25  C   UNL     1      -5.186  13.519  22.580  0.00  0.00    +0.000 A 
ATOM     26  C   UNL     1      -5.392  13.532  21.202  0.00  0.00    +0.000 A 
ATOM     27  C   UNL     1      -4.369  13.137  20.332  0.00  0.00    +0.000 A 
BRANCH  25  28
ATOM     28  O   UNL     1      -6.085  13.883  23.528  0.00  0.00    +0.000 OA
BRANCH  28  29
ATOM     29  C   UNL     1      -6.917  12.886  24.115  0.00  0.00    +0.000 C 
ATOM     30  F   UNL     1      -6.274  12.042  24.949  0.00  0.00    +0.000 F 
ATOM     31  F   UNL     1      -7.915  13.489  24.793  0.00  0.00    +0.000 F 
ATOM     32  F   UNL     1      -7.463  12.148  23.123  0.00  0.00    +0.000 F 
ENDBRANCH  28  29
ENDBRANCH  25  28
ENDBRANCH  19  22
ENDBRANCH   1  17
TORSDOF 8
ENDMDL
MODEL 8
REMARK VINA RESULT:      -7.3      4.438     10.558
REMARK  Name = 
REMARK  10 active torsions:
REMARK  status: ('A' for Active; 'I' for Inactive)
REMARK    1  A    between atoms: C_1  and  O_2
REMARK    2  A    between atoms: O_2  and  C_3
REMARK    3  A    between atoms: C_6  and  C_7
REMARK    4  A    between atoms: C_9  and  C_10
REMARK    5  A    between atoms: C_10  and  N_11
REMARK    6  A    between atoms: C_13  and  C_14
REMARK    7  A    between atoms: C_17  and  O_18
REMARK    8  A    between atoms: O_18  and  C_19
REMARK    9  A    between atoms: C_30  and  O_31
REMARK   10  A    between atoms: O_31  and  C_32
REMARK                            x       y       z     vdW  Elec       q    Type
REMARK                         _______ _______ _______ _____ _____    ______ ____
ROOT
ATOM      1  C   UNL     1       1.370  11.255  18.834  0.00  0.00    +0.000 C 
ENDROOT
BRANCH   1   4
ATOM      2  C   UNL     1       2.333   7.716  18.553  0.00  0.00    +0.000 A 
ATOM      3  C   UNL     1       1.855   8.743  19.403  0.00  0.00    +0.000 A 
ATOM      4  C   UNL     1       1.747   9.846  18.595  0.00  0.00    +0.000 A 
ATOM      5  O   UNL     1       2.108   9.510  17.332  0.00  0.00    +0.000 OA
ATOM      6  N   UNL     1       2.463   8.176  17.297  0.00  0.00    +0.000 NA
BRANCH   2  10
ATOM      7  C   UNL     1       3.375   3.679  19.498  0.00  0.00    +0.000 A 
ATOM      8  C   UNL     1       2.033   4.094  19.508  0.00  0.00    +0.000 A 
ATOM      9  C   UNL     1       1.687   5.410  19.199  0.00  0.00    +0.000 A 
ATOM     10  C   UNL     1       2.680   6.349  18.922  0.00  0.00    +0.000 A 
ATOM     11  C   UNL     1       4.021   5.953  18.998  0.00  0.00    +0.000 A 
ATOM     12  C   UNL     1       4.383   4.629  19.287  0.00  0.00    +0.000 A 
BRANCH   7  14
ATOM     13  C   UNL     1       3.584   1.500  18.601  0.00  0.00    +0.000 C 
ATOM     14  O   UNL     1       3.706   2.371  19.725  0.00  0.00    +0.000 OA
ENDBRANCH   7  14
BRANCH  12  15
ATOM     15  O   UNL     1       5.743   4.466  19.297  0.00  0.00    +0.000 OA
ATOM     16  C   UNL     1       6.523   5.108  18.303  0.00  0.00    +0.000 C 
ENDBRANCH  12  15
ENDBRANCH   2  10
ENDBRANCH   1   4
BRANCH   1  17
ATOM     17  N   UNL     1       0.524  11.332  20.009  0.00  0.00    +0.000 N 
ATOM     18  C   UNL     1      -0.759  11.793  20.085  0.00  0.00    +0.000 A 
ATOM     19  C   UNL     1      -1.016  11.824  21.438  0.00  0.00    +0.000 A 
ATOM     20  N   UNL     1       0.078  11.341  22.114  0.00  0.00    +0.000 NA
ATOM     21  N   UNL     1       1.011  11.026  21.224  0.00  0.00    +0.000 NA
BRANCH  19  22
ATOM     22  C   UNL     1      -2.225  12.300  22.089  0.00  0.00    +0.000 A 
ATOM     23  C   UNL     1      -2.575  11.906  23.383  0.00  0.00    +0.000 A 
ATOM     24  C   UNL     1      -3.732  12.398  23.989  0.00  0.00    +0.000 A 
ATOM     25  C   UNL     1      -4.559  13.305  23.318  0.00  0.00    +0.000 A 
ATOM     26  C   UNL     1      -4.249  13.658  22.007  0.00  0.00    +0.000 A 
ATOM     27  C   UNL     1      -3.082  13.176  21.404  0.00  0.00    +0.000 A 
BRANCH  25  28
ATOM     28  O   UNL     1      -5.648  13.707  24.021  0.00  0.00    +0.000 OA
BRANCH  28  29
ATOM     29  C   UNL     1      -6.941  13.289  23.595  0.00  0.00    +0.000 C 
ATOM     30  F   UNL     1      -7.483  14.052  22.623  0.00  0.00    +0.000 F 
ATOM     31  F   UNL     1      -6.872  12.015  23.159  0.00  0.00    +0.000 F 
ATOM     32  F   UNL     1      -7.774  13.328  24.660  0.00  0.00    +0.000 F 
ENDBRANCH  28  29
ENDBRANCH  25  28
ENDBRANCH  19  22
ENDBRANCH   1  17
TORSDOF 8
ENDMDL
MODEL 9
REMARK VINA RESULT:      -7.3      1.535      1.939
REMARK  Name = 
REMARK  10 active torsions:
REMARK  status: ('A' for Active; 'I' for Inactive)
REMARK    1  A    between atoms: C_1  and  O_2
REMARK    2  A    between atoms: O_2  and  C_3
REMARK    3  A    between atoms: C_6  and  C_7
REMARK    4  A    between atoms: C_9  and  C_10
REMARK    5  A    between atoms: C_10  and  N_11
REMARK    6  A    between atoms: C_13  and  C_14
REMARK    7  A    between atoms: C_17  and  O_18
REMARK    8  A    between atoms: O_18  and  C_19
REMARK    9  A    between atoms: C_30  and  O_31
REMARK   10  A    between atoms: O_31  and  C_32
REMARK                            x       y       z     vdW  Elec       q    Type
REMARK                         _______ _______ _______ _____ _____    ______ ____
ROOT
ATOM      1  C   UNL     1       1.041  12.203  19.104  0.00  0.00    +0.000 C 
ENDROOT
BRANCH   1   4
ATOM      2  C   UNL     1      -2.592  12.292  19.672  0.00  0.00    +0.000 A 
ATOM      3  C   UNL     1      -1.311  12.609  20.186  0.00  0.00    +0.000 A 
ATOM      4  C   UNL     1      -0.432  12.219  19.207  0.00  0.00    +0.000 A 
ATOM      5  O   UNL     1      -1.130  11.723  18.155  0.00  0.00    +0.000 OA
ATOM      6  N   UNL     1      -2.481  11.779  18.435  0.00  0.00    +0.000 NA
BRANCH   2  10
ATOM      7  C   UNL     1      -6.378  12.872  21.569  0.00  0.00    +0.000 A 
ATOM      8  C   UNL     1      -5.187  12.970  22.304  0.00  0.00    +0.000 A 
ATOM      9  C   UNL     1      -3.947  12.784  21.690  0.00  0.00    +0.000 A 
ATOM     10  C   UNL     1      -3.879  12.446  20.338  0.00  0.00    +0.000 A 
ATOM     11  C   UNL     1      -5.072  12.264  19.629  0.00  0.00    +0.000 A 
ATOM     12  C   UNL     1      -6.324  12.469  20.227  0.00  0.00    +0.000 A 
BRANCH   7  14
ATOM     13  C   UNL     1      -7.916  12.314  23.278  0.00  0.00    +0.000 C 
ATOM     14  O   UNL     1      -7.588  13.132  22.155  0.00  0.00    +0.000 OA
ENDBRANCH   7  14
BRANCH  12  15
ATOM     15  O   UNL     1      -7.350  12.247  19.347  0.00  0.00    +0.000 OA
ATOM     16  C   UNL     1      -7.081  12.266  17.955  0.00  0.00    +0.000 C 
ENDBRANCH  12  15
ENDBRANCH   2  10
ENDBRANCH   1   4
BRANCH   1  17
ATOM     17  N   UNL     1       1.475  10.896  18.647  0.00  0.00    +0.000 N 
ATOM     18  C   UNL     1       1.231   9.685  19.228  0.00  0.00    +0.000 A 
ATOM     19  C   UNL     1       2.017   8.813  18.508  0.00  0.00    +0.000 A 
ATOM     20  N   UNL     1       2.653   9.504  17.507  0.00  0.00    +0.000 NA
ATOM     21  N   UNL     1       2.299  10.780  17.591  0.00  0.00    +0.000 NA
BRANCH  19  22
ATOM     22  C   UNL     1       2.190   7.389  18.748  0.00  0.00    +0.000 A 
ATOM     23  C   UNL     1       2.646   6.520  17.753  0.00  0.00    +0.000 A 
ATOM     24  C   UNL     1       2.822   5.162  18.020  0.00  0.00    +0.000 A 
ATOM     25  C   UNL     1       2.559   4.645  19.293  0.00  0.00    +0.000 A 
ATOM     26  C   UNL     1       2.050   5.492  20.274  0.00  0.00    +0.000 A 
ATOM     27  C   UNL     1       1.886   6.857  20.010  0.00  0.00    +0.000 A 
BRANCH  25  28
ATOM     28  O   UNL     1       2.775   3.311  19.420  0.00  0.00    +0.000 OA
BRANCH  28  29
ATOM     29  C   UNL     1       1.885   2.400  18.782  0.00  0.00    +0.000 C 
ATOM     30  F   UNL     1       0.666   2.909  18.509  0.00  0.00    +0.000 F 
ATOM     31  F   UNL     1       2.443   1.971  17.632  0.00  0.00    +0.000 F 
ATOM     32  F   UNL     1       1.713   1.333  19.594  0.00  0.00    +0.000 F 
ENDBRANCH  28  29
ENDBRANCH  25  28
ENDBRANCH  19  22
ENDBRANCH   1  17
TORSDOF 8
ENDMDL
