MODEL 1
REMARK VINA RESULT:      -7.2      0.000      0.000
REMARK  Name = 
REMARK  3 active torsions:
REMARK  status: ('A' for Active; 'I' for Inactive)
REMARK    1  A    between atoms: C_2  and  C_12
REMARK    2  A    between atoms: N_3  and  C_4
REMARK    3  A    between atoms: C_4  and  C_5
REMARK                            x       y       z     vdW  Elec       q    Type
REMARK                         _______ _______ _______ _____ _____    ______ ____
ROOT
ATOM      1  O   UNL     1       7.377   4.414  18.133  0.00  0.00    +0.000 OA
ATOM      2  C   UNL     1       6.437   4.662  17.384  0.00  0.00    +0.000 C 
ATOM      3  N   UNL     1       5.200   5.050  17.843  0.00  0.00    +0.000 N 
ATOM      4  H   UNL     1       4.421   5.034  17.203  0.00  0.00    +0.000 HD
ENDROOT
BRANCH   2   5
ATOM      5  C   UNL     1       6.550   4.543  15.945  0.00  0.00    +0.000 A 
ATOM      6  C   UNL     1       5.890   3.749  15.021  0.00  0.00    +0.000 A 
ATOM      7  C   UNL     1       6.409   4.043  13.735  0.00  0.00    +0.000 A 
ATOM      8  C   UNL     1       7.365   5.018  13.894  0.00  0.00    +0.000 A 
ATOM      9  N   UNL     1       7.434   5.323  15.227  0.00  0.00    +0.000 N 
ATOM     10  H   UNL     1       8.041   6.016  15.649  0.00  0.00    +0.000 HD
ENDBRANCH   2   5
BRANCH   3  11
ATOM     11  C   UNL     1       4.912   5.098  19.256  0.00  0.00    +0.000 C 
BRANCH  11  12
ATOM     12  C   UNL     1       3.542   4.559  19.574  0.00  0.00    +0.000 A 
ATOM     13  C   UNL     1       2.594   5.357  20.239  0.00  0.00    +0.000 A 
ATOM     14  C   UNL     1       1.351   4.835  20.608  0.00  0.00    +0.000 A 
ATOM     15  C   UNL     1       1.040   3.508  20.316  0.00  0.00    +0.000 A 
ATOM     16  C   UNL     1       1.970   2.721  19.651  0.00  0.00    +0.000 A 
ATOM     17  F   UNL     1       1.675   1.443  19.378  0.00  0.00    +0.000 F 
ATOM     18  C   UNL     1       3.210   3.230  19.278  0.00  0.00    +0.000 A 
ENDBRANCH  11  12
ENDBRANCH   3  11
TORSDOF 3
ENDMDL
MODEL 2
REMARK VINA RESULT:      -7.0      1.488      1.790
REMARK  Name = 
REMARK  3 active torsions:
REMARK  status: ('A' for Active; 'I' for Inactive)
REMARK    1  A    between atoms: C_2  and  C_12
REMARK    2  A    between atoms: N_3  and  C_4
REMARK    3  A    between atoms: C_4  and  C_5
REMARK                            x       y       z     vdW  Elec       q    Type
REMARK                         _______ _______ _______ _____ _____    ______ ____
ROOT
ATOM      1  O   UNL     1       5.501   5.415  19.084  0.00  0.00    +0.000 OA
ATOM      2  C   UNL     1       4.869   5.515  18.036  0.00  0.00    +0.000 C 
ATOM      3  N   UNL     1       3.563   5.944  17.992  0.00  0.00    +0.000 N 
ATOM      4  H   UNL     1       3.039   5.806  17.140  0.00  0.00    +0.000 HD
ENDROOT
BRANCH   2   5
ATOM      5  C   UNL     1       5.447   5.167  16.755  0.00  0.00    +0.000 A 
ATOM      6  C   UNL     1       5.410   5.786  15.516  0.00  0.00    +0.000 A 
ATOM      7  C   UNL     1       6.153   4.996  14.604  0.00  0.00    +0.000 A 
ATOM      8  C   UNL     1       6.641   3.917  15.302  0.00  0.00    +0.000 A 
ATOM      9  N   UNL     1       6.223   4.035  16.601  0.00  0.00    +0.000 N 
ATOM     10  H   UNL     1       6.438   3.394  17.357  0.00  0.00    +0.000 HD
ENDBRANCH   2   5
BRANCH   3  11
ATOM     11  C   UNL     1       2.827   6.214  19.202  0.00  0.00    +0.000 C 
BRANCH  11  12
ATOM     12  C   UNL     1       2.192   4.971  19.769  0.00  0.00    +0.000 A 
ATOM     13  C   UNL     1       2.384   4.619  21.116  0.00  0.00    +0.000 A 
ATOM     14  C   UNL     1       1.865   3.425  21.626  0.00  0.00    +0.000 A 
ATOM     15  C   UNL     1       1.147   2.568  20.794  0.00  0.00    +0.000 A 
ATOM     16  C   UNL     1       0.948   2.917  19.465  0.00  0.00    +0.000 A 
ATOM     17  F   UNL     1       0.266   2.090  18.661  0.00  0.00    +0.000 F 
ATOM     18  C   UNL     1       1.459   4.103  18.947  0.00  0.00    +0.000 A 
ENDBRANCH  11  12
ENDBRANCH   3  11
TORSDOF 3
ENDMDL
MODEL 3
REMARK VINA RESULT:      -6.9      1.293      1.522
REMARK  Name = 
REMARK  3 active torsions:
REMARK  status: ('A' for Active; 'I' for Inactive)
REMARK    1  A    between atoms: C_2  and  C_12
REMARK    2  A    between atoms: N_3  and  C_4
REMARK    3  A    between atoms: C_4  and  C_5
REMARK                            x       y       z     vdW  Elec       q    Type
REMARK                         _______ _______ _______ _____ _____    ______ ____
ROOT
ATOM      1  O   UNL     1       6.189   4.042  18.747  0.00  0.00    +0.000 OA
ATOM      2  C   UNL     1       5.608   4.682  17.876  0.00  0.00    +0.000 C 
ATOM      3  N   UNL     1       4.505   5.461  18.135  0.00  0.00    +0.000 N 
ATOM      4  H   UNL     1       3.953   5.789  17.357  0.00  0.00    +0.000 HD
ENDROOT
BRANCH   2   5
ATOM      5  C   UNL     1       6.028   4.649  16.491  0.00  0.00    +0.000 A 
ATOM      6  C   UNL     1       5.408   4.193  15.339  0.00  0.00    +0.000 A 
ATOM      7  C   UNL     1       6.288   4.404  14.249  0.00  0.00    +0.000 A 
ATOM      8  C   UNL     1       7.423   4.997  14.750  0.00  0.00    +0.000 A 
ATOM      9  N   UNL     1       7.252   5.154  16.099  0.00  0.00    +0.000 N 
ATOM     10  H   UNL     1       7.916   5.574  16.740  0.00  0.00    +0.000 HD
ENDBRANCH   2   5
BRANCH   3  11
ATOM     11  C   UNL     1       3.909   5.496  19.448  0.00  0.00    +0.000 C 
BRANCH  11  12
ATOM     12  C   UNL     1       2.812   4.474  19.599  0.00  0.00    +0.000 A 
ATOM     13  C   UNL     1       2.064   4.054  18.485  0.00  0.00    +0.000 A 
ATOM     14  C   UNL     1       0.993   3.168  18.633  0.00  0.00    +0.000 A 
ATOM     15  C   UNL     1       0.656   2.691  19.898  0.00  0.00    +0.000 A 
ATOM     16  C   UNL     1       1.397   3.097  20.999  0.00  0.00    +0.000 A 
ATOM     17  F   UNL     1       1.068   2.647  22.217  0.00  0.00    +0.000 F 
ATOM     18  C   UNL     1       2.466   3.978  20.864  0.00  0.00    +0.000 A 
ENDBRANCH  11  12
ENDBRANCH   3  11
TORSDOF 3
ENDMDL
MODEL 4
REMARK VINA RESULT:      -6.8      2.253      3.139
REMARK  Name = 
REMARK  3 active torsions:
REMARK  status: ('A' for Active; 'I' for Inactive)
REMARK    1  A    between atoms: C_2  and  C_12
REMARK    2  A    between atoms: N_3  and  C_4
REMARK    3  A    between atoms: C_4  and  C_5
REMARK                            x       y       z     vdW  Elec       q    Type
REMARK                         _______ _______ _______ _____ _____    ______ ____
ROOT
ATOM      1  O   UNL     1       5.229   5.430  15.709  0.00  0.00    +0.000 OA
ATOM      2  C   UNL     1       5.654   5.304  16.854  0.00  0.00    +0.000 C 
ATOM      3  N   UNL     1       5.225   4.310  17.702  0.00  0.00    +0.000 N 
ATOM      4  H   UNL     1       5.450   4.383  18.683  0.00  0.00    +0.000 HD
ENDROOT
BRANCH   2   5
ATOM      5  C   UNL     1       6.634   6.212  17.413  0.00  0.00    +0.000 A 
ATOM      6  C   UNL     1       7.536   6.081  18.456  0.00  0.00    +0.000 A 
ATOM      7  C   UNL     1       8.254   7.297  18.575  0.00  0.00    +0.000 A 
ATOM      8  C   UNL     1       7.788   8.143  17.597  0.00  0.00    +0.000 A 
ATOM      9  N   UNL     1       6.821   7.476  16.892  0.00  0.00    +0.000 N 
ATOM     10  H   UNL     1       6.303   7.839  16.100  0.00  0.00    +0.000 HD
ENDBRANCH   2   5
BRANCH   3  11
ATOM     11  C   UNL     1       4.169   3.406  17.317  0.00  0.00    +0.000 C 
BRANCH  11  12
ATOM     12  C   UNL     1       3.084   3.326  18.358  0.00  0.00    +0.000 A 
ATOM     13  C   UNL     1       1.924   2.564  18.129  0.00  0.00    +0.000 A 
ATOM     14  C   UNL     1       0.880   2.552  19.057  0.00  0.00    +0.000 A 
ATOM     15  C   UNL     1       0.981   3.302  20.227  0.00  0.00    +0.000 A 
ATOM     16  C   UNL     1       2.128   4.048  20.461  0.00  0.00    +0.000 A 
ATOM     17  F   UNL     1       2.222   4.777  21.582  0.00  0.00    +0.000 F 
ATOM     18  C   UNL     1       3.175   4.067  19.545  0.00  0.00    +0.000 A 
ENDBRANCH  11  12
ENDBRANCH   3  11
TORSDOF 3
ENDMDL
MODEL 5
REMARK VINA RESULT:      -6.8      1.403      1.486
REMARK  Name = 
REMARK  3 active torsions:
REMARK  status: ('A' for Active; 'I' for Inactive)
REMARK    1  A    between atoms: C_2  and  C_12
REMARK    2  A    between atoms: N_3  and  C_4
REMARK    3  A    between atoms: C_4  and  C_5
REMARK                            x       y       z     vdW  Elec       q    Type
REMARK                         _______ _______ _______ _____ _____    ______ ____
ROOT
ATOM      1  O   UNL     1       6.230   6.035  17.076  0.00  0.00    +0.000 OA
ATOM      2  C   UNL     1       6.014   4.954  16.537  0.00  0.00    +0.000 C 
ATOM      3  N   UNL     1       5.428   3.898  17.195  0.00  0.00    +0.000 N 
ATOM      4  H   UNL     1       5.470   2.983  16.771  0.00  0.00    +0.000 HD
ENDROOT
BRANCH   2   5
ATOM      5  C   UNL     1       6.383   4.695  15.161  0.00  0.00    +0.000 A 
ATOM      6  C   UNL     1       5.848   3.858  14.195  0.00  0.00    +0.000 A 
ATOM      7  C   UNL     1       6.616   4.000  13.012  0.00  0.00    +0.000 A 
ATOM      8  C   UNL     1       7.596   4.929  13.272  0.00  0.00    +0.000 A 
ATOM      9  N   UNL     1       7.440   5.353  14.564  0.00  0.00    +0.000 N 
ATOM     10  H   UNL     1       8.008   6.046  15.037  0.00  0.00    +0.000 HD
ENDBRANCH   2   5
BRANCH   3  11
ATOM     11  C   UNL     1       5.115   3.977  18.601  0.00  0.00    +0.000 C 
BRANCH  11  12
ATOM     12  C   UNL     1       3.680   3.617  18.883  0.00  0.00    +0.000 A 
ATOM     13  C   UNL     1       2.666   3.939  17.964  0.00  0.00    +0.000 A 
ATOM     14  C   UNL     1       1.324   3.679  18.258  0.00  0.00    +0.000 A 
ATOM     15  C   UNL     1       0.979   3.095  19.475  0.00  0.00    +0.000 A 
ATOM     16  C   UNL     1       1.979   2.768  20.381  0.00  0.00    +0.000 A 
ATOM     17  F   UNL     1       1.649   2.214  21.556  0.00  0.00    +0.000 F 
ATOM     18  C   UNL     1       3.318   3.020  20.099  0.00  0.00    +0.000 A 
ENDBRANCH  11  12
ENDBRANCH   3  11
TORSDOF 3
ENDMDL
MODEL 6
REMARK VINA RESULT:      -6.8      1.224      1.224
REMARK  Name = 
REMARK  3 active torsions:
REMARK  status: ('A' for Active; 'I' for Inactive)
REMARK    1  A    between atoms: C_2  and  C_12
REMARK    2  A    between atoms: N_3  and  C_4
REMARK    3  A    between atoms: C_4  and  C_5
REMARK                            x       y       z     vdW  Elec       q    Type
REMARK                         _______ _______ _______ _____ _____    ______ ____
ROOT
ATOM      1  O   UNL     1       6.208   5.976  17.978  0.00  0.00    +0.000 OA
ATOM      2  C   UNL     1       5.459   5.740  17.034  0.00  0.00    +0.000 C 
ATOM      3  N   UNL     1       4.103   5.961  17.087  0.00  0.00    +0.000 N 
ATOM      4  H   UNL     1       3.520   5.557  16.368  0.00  0.00    +0.000 HD
ENDROOT
BRANCH   2   5
ATOM      5  C   UNL     1       5.946   5.187  15.788  0.00  0.00    +0.000 A 
ATOM      6  C   UNL     1       5.404   4.272  14.900  0.00  0.00    +0.000 A 
ATOM      7  C   UNL     1       6.324   4.089  13.837  0.00  0.00    +0.000 A 
ATOM      8  C   UNL     1       7.402   4.904  14.086  0.00  0.00    +0.000 A 
ATOM      9  N   UNL     1       7.160   5.573  15.256  0.00  0.00    +0.000 N 
ATOM     10  H   UNL     1       7.771   6.255  15.690  0.00  0.00    +0.000 HD
ENDBRANCH   2   5
BRANCH   3  11
ATOM     11  C   UNL     1       3.466   6.400  18.304  0.00  0.00    +0.000 C 
BRANCH  11  12
ATOM     12  C   UNL     1       2.566   5.342  18.887  0.00  0.00    +0.000 A 
ATOM     13  C   UNL     1       2.056   5.474  20.190  0.00  0.00    +0.000 A 
ATOM     14  C   UNL     1       1.287   4.457  20.765  0.00  0.00    +0.000 A 
ATOM     15  C   UNL     1       1.021   3.295  20.044  0.00  0.00    +0.000 A 
ATOM     16  C   UNL     1       1.517   3.165  18.753  0.00  0.00    +0.000 A 
ATOM     17  F   UNL     1       1.269   2.045  18.062  0.00  0.00    +0.000 F 
ATOM     18  C   UNL     1       2.282   4.171  18.170  0.00  0.00    +0.000 A 
ENDBRANCH  11  12
ENDBRANCH   3  11
TORSDOF 3
ENDMDL
MODEL 7
REMARK VINA RESULT:      -6.8      1.806      2.612
REMARK  Name = 
REMARK  3 active torsions:
REMARK  status: ('A' for Active; 'I' for Inactive)
REMARK    1  A    between atoms: C_2  and  C_12
REMARK    2  A    between atoms: N_3  and  C_4
REMARK    3  A    between atoms: C_4  and  C_5
REMARK                            x       y       z     vdW  Elec       q    Type
REMARK                         _______ _______ _______ _____ _____    ______ ____
ROOT
ATOM      1  O   UNL     1       7.818   4.494  16.275  0.00  0.00    +0.000 OA
ATOM      2  C   UNL     1       7.025   4.994  15.483  0.00  0.00    +0.000 C 
ATOM      3  N   UNL     1       6.086   5.926  15.858  0.00  0.00    +0.000 N 
ATOM      4  H   UNL     1       5.336   6.140  15.218  0.00  0.00    +0.000 HD
ENDROOT
BRANCH   2   5
ATOM      5  C   UNL     1       7.001   4.625  14.083  0.00  0.00    +0.000 A 
ATOM      6  C   UNL     1       7.665   5.127  12.976  0.00  0.00    +0.000 A 
ATOM      7  C   UNL     1       7.257   4.383  11.841  0.00  0.00    +0.000 A 
ATOM      8  C   UNL     1       6.363   3.433  12.275  0.00  0.00    +0.000 A 
ATOM      9  N   UNL     1       6.225   3.576  13.630  0.00  0.00    +0.000 N 
ATOM     10  H   UNL     1       5.642   3.008  14.234  0.00  0.00    +0.000 HD
ENDBRANCH   2   5
BRANCH   3  11
ATOM     11  C   UNL     1       5.920   6.301  17.241  0.00  0.00    +0.000 C 
BRANCH  11  12
ATOM     12  C   UNL     1       4.867   5.473  17.931  0.00  0.00    +0.000 A 
ATOM     13  C   UNL     1       5.212   4.600  18.977  0.00  0.00    +0.000 A 
ATOM     14  C   UNL     1       4.253   3.771  19.565  0.00  0.00    +0.000 A 
ATOM     15  C   UNL     1       2.935   3.804  19.114  0.00  0.00    +0.000 A 
ATOM     16  C   UNL     1       2.588   4.671  18.086  0.00  0.00    +0.000 A 
ATOM     17  F   UNL     1       1.324   4.698  17.645  0.00  0.00    +0.000 F 
ATOM     18  C   UNL     1       3.535   5.502  17.494  0.00  0.00    +0.000 A 
ENDBRANCH  11  12
ENDBRANCH   3  11
TORSDOF 3
ENDMDL
MODEL 8
REMARK VINA RESULT:      -6.7      1.330      1.792
REMARK  Name = 
REMARK  3 active torsions:
REMARK  status: ('A' for Active; 'I' for Inactive)
REMARK    1  A    between atoms: C_2  and  C_12
REMARK    2  A    between atoms: N_3  and  C_4
REMARK    3  A    between atoms: C_4  and  C_5
REMARK                            x       y       z     vdW  Elec       q    Type
REMARK                         _______ _______ _______ _____ _____    ______ ____
ROOT
ATOM      1  O   UNL     1       6.458   5.850  17.756  0.00  0.00    +0.000 OA
ATOM      2  C   UNL     1       6.064   4.851  17.161  0.00  0.00    +0.000 C 
ATOM      3  N   UNL     1       5.365   3.842  17.781  0.00  0.00    +0.000 N 
ATOM      4  H   UNL     1       5.254   2.964  17.296  0.00  0.00    +0.000 HD
ENDROOT
BRANCH   2   5
ATOM      5  C   UNL     1       6.323   4.645  15.751  0.00  0.00    +0.000 A 
ATOM      6  C   UNL     1       5.696   3.865  14.793  0.00  0.00    +0.000 A 
ATOM      7  C   UNL     1       6.379   4.041  13.563  0.00  0.00    +0.000 A 
ATOM      8  C   UNL     1       7.400   4.934  13.788  0.00  0.00    +0.000 A 
ATOM      9  N   UNL     1       7.351   5.304  15.106  0.00  0.00    +0.000 N 
ATOM     10  H   UNL     1       7.970   5.961  15.564  0.00  0.00    +0.000 HD
ENDBRANCH   2   5
BRANCH   3  11
ATOM     11  C   UNL     1       5.137   3.861  19.205  0.00  0.00    +0.000 C 
BRANCH  11  12
ATOM     12  C   UNL     1       3.687   3.639  19.549  0.00  0.00    +0.000 A 
ATOM     13  C   UNL     1       3.065   2.408  19.277  0.00  0.00    +0.000 A 
ATOM     14  C   UNL     1       1.701   2.225  19.520  0.00  0.00    +0.000 A 
ATOM     15  C   UNL     1       0.941   3.271  20.038  0.00  0.00    +0.000 A 
ATOM     16  C   UNL     1       1.553   4.486  20.316  0.00  0.00    +0.000 A 
ATOM     17  F   UNL     1       0.821   5.495  20.805  0.00  0.00    +0.000 F 
ATOM     18  C   UNL     1       2.911   4.679  20.079  0.00  0.00    +0.000 A 
ENDBRANCH  11  12
ENDBRANCH   3  11
TORSDOF 3
ENDMDL
MODEL 9
REMARK VINA RESULT:      -6.7      1.710      2.133
REMARK  Name = 
REMARK  3 active torsions:
REMARK  status: ('A' for Active; 'I' for Inactive)
REMARK    1  A    between atoms: C_2  and  C_12
REMARK    2  A    between atoms: N_3  and  C_4
REMARK    3  A    between atoms: C_4  and  C_5
REMARK                            x       y       z     vdW  Elec       q    Type
REMARK                         _______ _______ _______ _____ _____    ______ ____
ROOT
ATOM      1  O   UNL     1       7.259   5.787  15.938  0.00  0.00    +0.000 OA
ATOM      2  C   UNL     1       6.623   4.893  15.387  0.00  0.00    +0.000 C 
ATOM      3  N   UNL     1       5.690   4.128  16.046  0.00  0.00    +0.000 N 
ATOM      4  H   UNL     1       5.359   3.284  15.603  0.00  0.00    +0.000 HD
ENDROOT
BRANCH   2   5
ATOM      5  C   UNL     1       6.823   4.556  13.993  0.00  0.00    +0.000 A 
ATOM      6  C   UNL     1       7.618   5.113  13.004  0.00  0.00    +0.000 A 
ATOM      7  C   UNL     1       7.416   4.379  11.809  0.00  0.00    +0.000 A 
ATOM      8  C   UNL     1       6.512   3.382  12.090  0.00  0.00    +0.000 A 
ATOM      9  N   UNL     1       6.170   3.487  13.412  0.00  0.00    +0.000 N 
ATOM     10  H   UNL     1       5.531   2.881  13.912  0.00  0.00    +0.000 HD
ENDBRANCH   2   5
BRANCH   3  11
ATOM     11  C   UNL     1       5.472   4.277  17.464  0.00  0.00    +0.000 C 
BRANCH  11  12
ATOM     12  C   UNL     1       4.030   4.061  17.842  0.00  0.00    +0.000 A 
ATOM     13  C   UNL     1       3.099   5.110  17.750  0.00  0.00    +0.000 A 
ATOM     14  C   UNL     1       1.779   4.937  18.175  0.00  0.00    +0.000 A 
ATOM     15  C   UNL     1       1.373   3.711  18.699  0.00  0.00    +0.000 A 
ATOM     16  C   UNL     1       2.287   2.670  18.784  0.00  0.00    +0.000 A 
ATOM     17  F   UNL     1       1.901   1.494  19.296  0.00  0.00    +0.000 F 
ATOM     18  C   UNL     1       3.604   2.830  18.362  0.00  0.00    +0.000 A 
ENDBRANCH  11  12
ENDBRANCH   3  11
TORSDOF 3
ENDMDL
