MODEL 1
REMARK VINA RESULT:      -7.4      0.000      0.000
REMARK  Name = 
REMARK  3 active torsions:
REMARK  status: ('A' for Active; 'I' for Inactive)
REMARK    1  A    between atoms: C_7  and  C_8
REMARK    2  A    between atoms: C_9  and  C_10
REMARK    3  A    between atoms: C_10  and  N_11
REMARK                            x       y       z     vdW  Elec       q    Type
REMARK                         _______ _______ _______ _____ _____    ______ ____
ROOT
ATOM      1  C   UNL     1       7.264   8.029  17.673  0.00  0.00    +0.000 C 
ENDROOT
BRANCH   1   2
ATOM      2  N   UNL     1       7.504   6.582  17.543  0.00  0.00    +0.000 NA
ATOM      3  C   UNL     1       7.064   5.807  18.721  0.00  0.00    +0.000 C 
ATOM      4  C   UNL     1       5.536   5.732  18.919  0.00  0.00    +0.000 C 
ATOM      5  N   UNL     1       4.804   5.225  17.646  0.00  0.00    +0.000 N 
ATOM      6  C   UNL     1       3.280   5.416  17.827  0.00  0.00    +0.000 C 
ATOM      7  C   UNL     1       2.669   4.051  17.579  0.00  0.00    +0.000 C 
ATOM      8  C   UNL     1       3.745   3.088  18.021  0.00  0.00    +0.000 C 
ATOM      9  C   UNL     1       5.005   3.708  17.457  0.00  0.00    +0.000 C 
ATOM     10  C   UNL     1       5.299   6.006  16.409  0.00  0.00    +0.000 C 
ATOM     11  C   UNL     1       6.843   6.044  16.336  0.00  0.00    +0.000 C 
ENDBRANCH   1   2
BRANCH   1  13
ATOM     12  C   UNL     1       8.470  10.123  18.309  0.00  0.00    +0.000 C 
ATOM     13  C   UNL     1       8.462   8.789  18.150  0.00  0.00    +0.000 C 
BRANCH  12  20
ATOM     14 CL   UNL     1       8.856  10.823  21.333  0.00  0.00    +0.000 Cl
ATOM     15  C   UNL     1       9.941  11.222  20.046  0.00  0.00    +0.000 A 
ATOM     16  C   UNL     1      11.098  11.942  20.356  0.00  0.00    +0.000 A 
ATOM     17  C   UNL     1      11.989  12.306  19.345  0.00  0.00    +0.000 A 
ATOM     18  C   UNL     1      11.727  11.950  18.024  0.00  0.00    +0.000 A 
ATOM     19  C   UNL     1      10.576  11.224  17.711  0.00  0.00    +0.000 A 
ATOM     20  C   UNL     1       9.671  10.856  18.716  0.00  0.00    +0.000 A 
ENDBRANCH  12  20
ENDBRANCH   1  13
TORSDOF 3
ENDMDL
MODEL 2
REMARK VINA RESULT:      -7.1      5.148      7.522
REMARK  Name = 
REMARK  3 active torsions:
REMARK  status: ('A' for Active; 'I' for Inactive)
REMARK    1  A    between atoms: C_7  and  C_8
REMARK    2  A    between atoms: C_9  and  C_10
REMARK    3  A    between atoms: C_10  and  N_11
REMARK                            x       y       z     vdW  Elec       q    Type
REMARK                         _______ _______ _______ _____ _____    ______ ____
ROOT
ATOM      1  C   UNL     1       2.326   5.123  20.457  0.00  0.00    +0.000 C 
ENDROOT
BRANCH   1   2
ATOM      2  N   UNL     1       2.263   4.440  19.155  0.00  0.00    +0.000 NA
ATOM      3  C   UNL     1       2.565   5.326  18.013  0.00  0.00    +0.000 C 
ATOM      4  C   UNL     1       4.033   5.789  17.917  0.00  0.00    +0.000 C 
ATOM      5  N   UNL     1       5.027   4.596  17.940  0.00  0.00    +0.000 N 
ATOM      6  C   UNL     1       6.467   5.137  18.098  0.00  0.00    +0.000 C 
ATOM      7  C   UNL     1       7.251   4.548  16.941  0.00  0.00    +0.000 C 
ATOM      8  C   UNL     1       6.219   4.390  15.850  0.00  0.00    +0.000 C 
ATOM      9  C   UNL     1       5.021   3.841  16.595  0.00  0.00    +0.000 C 
ATOM     10  C   UNL     1       4.682   3.646  19.107  0.00  0.00    +0.000 C 
ATOM     11  C   UNL     1       3.180   3.280  19.121  0.00  0.00    +0.000 C 
ENDBRANCH   1   2
BRANCH   1  13
ATOM     12  C   UNL     1       1.909   7.571  20.732  0.00  0.00    +0.000 C 
ATOM     13  C   UNL     1       1.440   6.327  20.539  0.00  0.00    +0.000 C 
BRANCH  12  20
ATOM     14 CL   UNL     1       1.311   9.325  18.211  0.00  0.00    +0.000 Cl
ATOM     15  C   UNL     1       0.691   9.582  19.805  0.00  0.00    +0.000 A 
ATOM     16  C   UNL     1      -0.144  10.682  20.020  0.00  0.00    +0.000 A 
ATOM     17  C   UNL     1      -0.647  10.942  21.295  0.00  0.00    +0.000 A 
ATOM     18  C   UNL     1      -0.320  10.103  22.358  0.00  0.00    +0.000 A 
ATOM     19  C   UNL     1       0.508   8.999  22.146  0.00  0.00    +0.000 A 
ATOM     20  C   UNL     1       1.024   8.729  20.872  0.00  0.00    +0.000 A 
ENDBRANCH  12  20
ENDBRANCH   1  13
TORSDOF 3
ENDMDL
MODEL 3
REMARK VINA RESULT:      -7.0      1.583      1.774
REMARK  Name = 
REMARK  3 active torsions:
REMARK  status: ('A' for Active; 'I' for Inactive)
REMARK    1  A    between atoms: C_7  and  C_8
REMARK    2  A    between atoms: C_9  and  C_10
REMARK    3  A    between atoms: C_10  and  N_11
REMARK                            x       y       z     vdW  Elec       q    Type
REMARK                         _______ _______ _______ _____ _____    ______ ____
ROOT
ATOM      1  C   UNL     1       7.410   7.144  17.319  0.00  0.00    +0.000 C 
ENDROOT
BRANCH   1   2
ATOM      2  N   UNL     1       7.503   5.821  17.959  0.00  0.00    +0.000 NA
ATOM      3  C   UNL     1       6.705   5.711  19.196  0.00  0.00    +0.000 C 
ATOM      4  C   UNL     1       5.176   5.717  18.989  0.00  0.00    +0.000 C 
ATOM      5  N   UNL     1       4.719   4.642  17.965  0.00  0.00    +0.000 N 
ATOM      6  C   UNL     1       3.230   4.872  17.618  0.00  0.00    +0.000 C 
ATOM      7  C   UNL     1       2.541   3.549  17.893  0.00  0.00    +0.000 C 
ATOM      8  C   UNL     1       3.359   2.942  19.008  0.00  0.00    +0.000 C 
ATOM      9  C   UNL     1       4.782   3.229  18.578  0.00  0.00    +0.000 C 
ATOM     10  C   UNL     1       5.586   4.729  16.690  0.00  0.00    +0.000 C 
ATOM     11  C   UNL     1       7.095   4.752  17.024  0.00  0.00    +0.000 C 
ENDBRANCH   1   2
BRANCH   1  13
ATOM     12  C   UNL     1       8.073   9.519  17.722  0.00  0.00    +0.000 C 
ATOM     13  C   UNL     1       8.093   8.228  18.092  0.00  0.00    +0.000 C 
BRANCH  12  20
ATOM     14 CL   UNL     1       7.652  12.513  16.916  0.00  0.00    +0.000 Cl
ATOM     15  C   UNL     1       8.684  11.929  18.176  0.00  0.00    +0.000 A 
ATOM     16  C   UNL     1       9.427  12.860  18.907  0.00  0.00    +0.000 A 
ATOM     17  C   UNL     1      10.290  12.432  19.916  0.00  0.00    +0.000 A 
ATOM     18  C   UNL     1      10.412  11.073  20.199  0.00  0.00    +0.000 A 
ATOM     19  C   UNL     1       9.666  10.140  19.475  0.00  0.00    +0.000 A 
ATOM     20  C   UNL     1       8.799  10.557  18.457  0.00  0.00    +0.000 A 
ENDBRANCH  12  20
ENDBRANCH   1  13
TORSDOF 3
ENDMDL
MODEL 4
REMARK VINA RESULT:      -6.9      1.249      1.525
REMARK  Name = 
REMARK  3 active torsions:
REMARK  status: ('A' for Active; 'I' for Inactive)
REMARK    1  A    between atoms: C_7  and  C_8
REMARK    2  A    between atoms: C_9  and  C_10
REMARK    3  A    between atoms: C_10  and  N_11
REMARK                            x       y       z     vdW  Elec       q    Type
REMARK                         _______ _______ _______ _____ _____    ______ ____
ROOT
ATOM      1  C   UNL     1       7.872   7.417  18.104  0.00  0.00    +0.000 C 
ENDROOT
BRANCH   1   2
ATOM      2  N   UNL     1       7.019   7.014  16.974  0.00  0.00    +0.000 NA
ATOM      3  C   UNL     1       7.226   5.613  16.554  0.00  0.00    +0.000 C 
ATOM      4  C   UNL     1       6.732   4.551  17.556  0.00  0.00    +0.000 C 
ATOM      5  N   UNL     1       5.247   4.770  17.958  0.00  0.00    +0.000 N 
ATOM      6  C   UNL     1       4.899   3.838  19.142  0.00  0.00    +0.000 C 
ATOM      7  C   UNL     1       3.681   3.053  18.695  0.00  0.00    +0.000 C 
ATOM      8  C   UNL     1       3.843   2.960  17.196  0.00  0.00    +0.000 C 
ATOM      9  C   UNL     1       4.296   4.354  16.818  0.00  0.00    +0.000 C 
ATOM     10  C   UNL     1       5.022   6.245  18.354  0.00  0.00    +0.000 C 
ATOM     11  C   UNL     1       5.590   7.215  17.292  0.00  0.00    +0.000 C 
ENDBRANCH   1   2
BRANCH   1  13
ATOM     12  C   UNL     1       9.026   9.442  19.004  0.00  0.00    +0.000 C 
ATOM     13  C   UNL     1       8.323   8.842  18.029  0.00  0.00    +0.000 C 
BRANCH  12  20
ATOM     14 CL   UNL     1       8.811  11.178  21.598  0.00  0.00    +0.000 Cl
ATOM     15  C   UNL     1       9.344  11.723  20.045  0.00  0.00    +0.000 A 
ATOM     16  C   UNL     1       9.701  13.067  19.903  0.00  0.00    +0.000 A 
ATOM     17  C   UNL     1      10.114  13.555  18.663  0.00  0.00    +0.000 A 
ATOM     18  C   UNL     1      10.175  12.702  17.563  0.00  0.00    +0.000 A 
ATOM     19  C   UNL     1       9.826  11.357  17.702  0.00  0.00    +0.000 A 
ATOM     20  C   UNL     1       9.405  10.855  18.941  0.00  0.00    +0.000 A 
ENDBRANCH  12  20
ENDBRANCH   1  13
TORSDOF 3
ENDMDL
MODEL 5
REMARK VINA RESULT:      -6.9      1.619      1.960
REMARK  Name = 
REMARK  3 active torsions:
REMARK  status: ('A' for Active; 'I' for Inactive)
REMARK    1  A    between atoms: C_7  and  C_8
REMARK    2  A    between atoms: C_9  and  C_10
REMARK    3  A    between atoms: C_10  and  N_11
REMARK                            x       y       z     vdW  Elec       q    Type
REMARK                         _______ _______ _______ _____ _____    ______ ____
ROOT
ATOM      1  C   UNL     1       7.796   7.381  17.948  0.00  0.00    +0.000 C 
ENDROOT
BRANCH   1   2
ATOM      2  N   UNL     1       7.122   6.703  16.828  0.00  0.00    +0.000 NA
ATOM      3  C   UNL     1       7.312   5.238  16.830  0.00  0.00    +0.000 C 
ATOM      4  C   UNL     1       6.594   4.488  17.970  0.00  0.00    +0.000 C 
ATOM      5  N   UNL     1       5.079   4.826  18.031  0.00  0.00    +0.000 N 
ATOM      6  C   UNL     1       4.482   4.248  19.335  0.00  0.00    +0.000 C 
ATOM      7  C   UNL     1       3.312   3.389  18.899  0.00  0.00    +0.000 C 
ATOM      8  C   UNL     1       3.716   2.897  17.529  0.00  0.00    +0.000 C 
ATOM      9  C   UNL     1       4.309   4.135  16.889  0.00  0.00    +0.000 C 
ATOM     10  C   UNL     1       4.880   6.356  17.984  0.00  0.00    +0.000 C 
ATOM     11  C   UNL     1       5.674   7.001  16.824  0.00  0.00    +0.000 C 
ENDBRANCH   1   2
BRANCH   1  13
ATOM     12  C   UNL     1       8.774   9.617  18.482  0.00  0.00    +0.000 C 
ATOM     13  C   UNL     1       7.951   8.855  17.742  0.00  0.00    +0.000 C 
BRANCH  12  20
ATOM     14 CL   UNL     1      11.011  11.181  20.010  0.00  0.00    +0.000 Cl
ATOM     15  C   UNL     1       9.830  11.865  18.948  0.00  0.00    +0.000 A 
ATOM     16  C   UNL     1       9.841  13.249  18.751  0.00  0.00    +0.000 A 
ATOM     17  C   UNL     1       8.891  13.847  17.922  0.00  0.00    +0.000 A 
ATOM     18  C   UNL     1       7.930  13.064  17.286  0.00  0.00    +0.000 A 
ATOM     19  C   UNL     1       7.920  11.681  17.475  0.00  0.00    +0.000 A 
ATOM     20  C   UNL     1       8.865  11.069  18.308  0.00  0.00    +0.000 A 
ENDBRANCH  12  20
ENDBRANCH   1  13
TORSDOF 3
ENDMDL
MODEL 6
REMARK VINA RESULT:      -6.7      5.096      7.464
REMARK  Name = 
REMARK  3 active torsions:
REMARK  status: ('A' for Active; 'I' for Inactive)
REMARK    1  A    between atoms: C_7  and  C_8
REMARK    2  A    between atoms: C_9  and  C_10
REMARK    3  A    between atoms: C_10  and  N_11
REMARK                            x       y       z     vdW  Elec       q    Type
REMARK                         _______ _______ _______ _____ _____    ______ ____
ROOT
ATOM      1  C   UNL     1       2.426   5.930  20.289  0.00  0.00    +0.000 C 
ENDROOT
BRANCH   1   2
ATOM      2  N   UNL     1       2.336   5.037  19.123  0.00  0.00    +0.000 NA
ATOM      3  C   UNL     1       2.680   5.699  17.848  0.00  0.00    +0.000 C 
ATOM      4  C   UNL     1       4.168   6.074  17.689  0.00  0.00    +0.000 C 
ATOM      5  N   UNL     1       5.107   4.859  17.926  0.00  0.00    +0.000 N 
ATOM      6  C   UNL     1       6.569   5.355  18.004  0.00  0.00    +0.000 C 
ATOM      7  C   UNL     1       7.328   4.542  16.973  0.00  0.00    +0.000 C 
ATOM      8  C   UNL     1       6.292   4.244  15.915  0.00  0.00    +0.000 C 
ATOM      9  C   UNL     1       5.069   3.885  16.732  0.00  0.00    +0.000 C 
ATOM     10  C   UNL     1       4.716   4.140  19.236  0.00  0.00    +0.000 C 
ATOM     11  C   UNL     1       3.198   3.850  19.298  0.00  0.00    +0.000 C 
ENDBRANCH   1   2
BRANCH   1  13
ATOM     12  C   UNL     1       1.335   8.036  21.076  0.00  0.00    +0.000 C 
ATOM     13  C   UNL     1       1.772   7.259  20.071  0.00  0.00    +0.000 C 
BRANCH  12  20
ATOM     14 CL   UNL     1      -0.042   9.471  23.491  0.00  0.00    +0.000 Cl
ATOM     15  C   UNL     1      -0.010  10.029  21.854  0.00  0.00    +0.000 A 
ATOM     16  C   UNL     1      -0.671  11.222  21.549  0.00  0.00    +0.000 A 
ATOM     17  C   UNL     1      -0.692  11.697  20.238  0.00  0.00    +0.000 A 
ATOM     18  C   UNL     1      -0.050  10.983  19.228  0.00  0.00    +0.000 A 
ATOM     19  C   UNL     1       0.617   9.794  19.529  0.00  0.00    +0.000 A 
ATOM     20  C   UNL     1       0.642   9.304  20.841  0.00  0.00    +0.000 A 
ENDBRANCH  12  20
ENDBRANCH   1  13
TORSDOF 3
ENDMDL
MODEL 7
REMARK VINA RESULT:      -6.7      1.330      1.558
REMARK  Name = 
REMARK  3 active torsions:
REMARK  status: ('A' for Active; 'I' for Inactive)
REMARK    1  A    between atoms: C_7  and  C_8
REMARK    2  A    between atoms: C_9  and  C_10
REMARK    3  A    between atoms: C_10  and  N_11
REMARK                            x       y       z     vdW  Elec       q    Type
REMARK                         _______ _______ _______ _____ _____    ______ ____
ROOT
ATOM      1  C   UNL     1       7.077   8.126  17.892  0.00  0.00    +0.000 C 
ENDROOT
BRANCH   1   2
ATOM      2  N   UNL     1       7.410   6.754  17.474  0.00  0.00    +0.000 NA
ATOM      3  C   UNL     1       7.148   5.743  18.518  0.00  0.00    +0.000 C 
ATOM      4  C   UNL     1       5.657   5.493  18.824  0.00  0.00    +0.000 C 
ATOM      5  N   UNL     1       4.844   5.158  17.543  0.00  0.00    +0.000 N 
ATOM      6  C   UNL     1       3.334   5.173  17.882  0.00  0.00    +0.000 C 
ATOM      7  C   UNL     1       2.806   3.825  17.434  0.00  0.00    +0.000 C 
ATOM      8  C   UNL     1       3.989   2.901  17.597  0.00  0.00    +0.000 C 
ATOM      9  C   UNL     1       5.138   3.725  17.057  0.00  0.00    +0.000 C 
ATOM     10  C   UNL     1       5.154   6.191  16.438  0.00  0.00    +0.000 C 
ATOM     11  C   UNL     1       6.676   6.383  16.246  0.00  0.00    +0.000 C 
ENDBRANCH   1   2
BRANCH   1  13
ATOM     12  C   UNL     1       8.384  10.172  18.483  0.00  0.00    +0.000 C 
ATOM     13  C   UNL     1       8.201   9.095  17.700  0.00  0.00    +0.000 C 
BRANCH  12  20
ATOM     14 CL   UNL     1       7.675  12.878  17.082  0.00  0.00    +0.000 Cl
ATOM     15  C   UNL     1       9.243  12.386  17.620  0.00  0.00    +0.000 A 
ATOM     16  C   UNL     1      10.319  13.253  17.403  0.00  0.00    +0.000 A 
ATOM     17  C   UNL     1      11.605  12.886  17.798  0.00  0.00    +0.000 A 
ATOM     18  C   UNL     1      11.822  11.655  18.413  0.00  0.00    +0.000 A 
ATOM     19  C   UNL     1      10.749  10.789  18.638  0.00  0.00    +0.000 A 
ATOM     20  C   UNL     1       9.453  11.143  18.242  0.00  0.00    +0.000 A 
ENDBRANCH  12  20
ENDBRANCH   1  13
TORSDOF 3
ENDMDL
MODEL 8
REMARK VINA RESULT:      -6.4      5.898      7.082
REMARK  Name = 
REMARK  3 active torsions:
REMARK  status: ('A' for Active; 'I' for Inactive)
REMARK    1  A    between atoms: C_7  and  C_8
REMARK    2  A    between atoms: C_9  and  C_10
REMARK    3  A    between atoms: C_10  and  N_11
REMARK                            x       y       z     vdW  Elec       q    Type
REMARK                         _______ _______ _______ _____ _____    ______ ____
ROOT
ATOM      1  C   UNL     1       2.102   7.527  17.654  0.00  0.00    +0.000 C 
ENDROOT
BRANCH   1   2
ATOM      2  N   UNL     1       3.155   7.078  18.579  0.00  0.00    +0.000 NA
ATOM      3  C   UNL     1       2.650   6.217  19.668  0.00  0.00    +0.000 C 
ATOM      4  C   UNL     1       2.173   4.819  19.227  0.00  0.00    +0.000 C 
ATOM      5  N   UNL     1       3.256   4.061  18.410  0.00  0.00    +0.000 N 
ATOM      6  C   UNL     1       2.627   2.791  17.789  0.00  0.00    +0.000 C 
ATOM      7  C   UNL     1       3.508   1.642  18.240  0.00  0.00    +0.000 C 
ATOM      8  C   UNL     1       4.040   2.099  19.578  0.00  0.00    +0.000 C 
ATOM      9  C   UNL     1       4.387   3.551  19.325  0.00  0.00    +0.000 C 
ATOM     10  C   UNL     1       3.815   4.978  17.300  0.00  0.00    +0.000 C 
ATOM     11  C   UNL     1       4.225   6.362  17.855  0.00  0.00    +0.000 C 
ENDBRANCH   1   2
BRANCH   1  13
ATOM     12  C   UNL     1       1.033   9.557  18.643  0.00  0.00    +0.000 C 
ATOM     13  C   UNL     1       1.838   8.999  17.724  0.00  0.00    +0.000 C 
BRANCH  12  20
ATOM     14 CL   UNL     1      -1.948  10.484  18.432  0.00  0.00    +0.000 Cl
ATOM     15  C   UNL     1      -0.565  11.514  18.567  0.00  0.00    +0.000 A 
ATOM     16  C   UNL     1      -0.767  12.897  18.565  0.00  0.00    +0.000 A 
ATOM     17  C   UNL     1       0.322  13.766  18.647  0.00  0.00    +0.000 A 
ATOM     18  C   UNL     1       1.615  13.255  18.734  0.00  0.00    +0.000 A 
ATOM     19  C   UNL     1       1.821  11.874  18.744  0.00  0.00    +0.000 A 
ATOM     20  C   UNL     1       0.737  10.991  18.658  0.00  0.00    +0.000 A 
ENDBRANCH  12  20
ENDBRANCH   1  13
TORSDOF 3
ENDMDL
MODEL 9
REMARK VINA RESULT:      -6.4      6.584      9.824
REMARK  Name = 
REMARK  3 active torsions:
REMARK  status: ('A' for Active; 'I' for Inactive)
REMARK    1  A    between atoms: C_7  and  C_8
REMARK    2  A    between atoms: C_9  and  C_10
REMARK    3  A    between atoms: C_10  and  N_11
REMARK                            x       y       z     vdW  Elec       q    Type
REMARK                         _______ _______ _______ _____ _____    ______ ____
ROOT
ATOM      1  C   UNL     1       1.233   8.958  21.109  0.00  0.00    +0.000 C 
ENDROOT
BRANCH   1   2
ATOM      2  N   UNL     1       0.074   9.656  20.529  0.00  0.00    +0.000 NA
ATOM      3  C   UNL     1      -0.259  10.916  21.224  0.00  0.00    +0.000 C 
ATOM      4  C   UNL     1       0.764  12.055  21.037  0.00  0.00    +0.000 C 
ATOM      5  N   UNL     1       1.060  12.337  19.538  0.00  0.00    +0.000 N 
ATOM      6  C   UNL     1       2.267  13.298  19.431  0.00  0.00    +0.000 C 
ATOM      7  C   UNL     1       1.785  14.460  18.584  0.00  0.00    +0.000 C 
ATOM      8  C   UNL     1       0.306  14.535  18.882  0.00  0.00    +0.000 C 
ATOM      9  C   UNL     1      -0.114  13.081  18.871  0.00  0.00    +0.000 C 
ATOM     10  C   UNL     1       1.363  11.013  18.803  0.00  0.00    +0.000 C 
ATOM     11  C   UNL     1       0.291   9.939  19.094  0.00  0.00    +0.000 C 
ENDBRANCH   1   2
BRANCH   1  13
ATOM     12  C   UNL     1       2.130   6.871  20.069  0.00  0.00    +0.000 C 
ATOM     13  C   UNL     1       1.227   7.483  20.853  0.00  0.00    +0.000 C 
BRANCH  12  20
ATOM     14 CL   UNL     1       3.662   5.771  17.572  0.00  0.00    +0.000 Cl
ATOM     15  C   UNL     1       2.721   4.840  18.684  0.00  0.00    +0.000 A 
ATOM     16  C   UNL     1       2.600   3.465  18.460  0.00  0.00    +0.000 A 
ATOM     17  C   UNL     1       1.830   2.680  19.318  0.00  0.00    +0.000 A 
ATOM     18  C   UNL     1       1.182   3.263  20.404  0.00  0.00    +0.000 A 
ATOM     19  C   UNL     1       1.305   4.635  20.636  0.00  0.00    +0.000 A 
ATOM     20  C   UNL     1       2.071   5.436  19.780  0.00  0.00    +0.000 A 
ENDBRANCH  12  20
ENDBRANCH   1  13
TORSDOF 3
ENDMDL
