MODEL 1
REMARK VINA RESULT:      -9.3      0.000      0.000
REMARK  Name = 
REMARK  9 active torsions:
REMARK  status: ('A' for Active; 'I' for Inactive)
REMARK    1  A    between atoms: C_1  and  O_2
REMARK    2  A    between atoms: O_2  and  C_3
REMARK    3  A    between atoms: C_6  and  C_7
REMARK    4  A    between atoms: C_7  and  C_8
REMARK    5  A    between atoms: C_14  and  C_16
REMARK    6  A    between atoms: C_18  and  C_19
REMARK    7  A    between atoms: C_22  and  N_23
REMARK    8  A    between atoms: C_29  and  O_30
REMARK    9  A    between atoms: O_30  and  C_31
REMARK                            x       y       z     vdW  Elec       q    Type
REMARK                         _______ _______ _______ _____ _____    ______ ____
ROOT
ATOM      1  C   UNL     1       2.325   5.245  18.568  0.00  0.00    +0.000 C 
ATOM      2  C   UNL     1       1.629   4.148  19.430  0.00  0.00    +0.000 C 
ATOM      3  C   UNL     1       1.236   2.891  18.684  0.00  0.00    +0.000 C 
ATOM      4  C   UNL     1       2.430   2.367  17.919  0.00  0.00    +0.000 C 
ATOM      5  C   UNL     1       2.974   3.429  16.981  0.00  0.00    +0.000 C 
ATOM      6  N   UNL     1       3.361   4.686  17.632  0.00  0.00    +0.000 N 
ATOM      7  C   UNL     1       4.345   5.544  17.046  0.00  0.00    +0.000 C 
ATOM      8  O   UNL     1       4.478   6.732  17.333  0.00  0.00    +0.000 OA
ENDROOT
BRANCH   7   9
ATOM      9  C   UNL     1       5.298   5.051  16.000  0.00  0.00    +0.000 A 
ATOM     10  C   UNL     1       4.759   4.655  14.761  0.00  0.00    +0.000 A 
ATOM     11  C   UNL     1       5.566   4.142  13.740  0.00  0.00    +0.000 A 
ATOM     12  C   UNL     1       4.950   3.457  12.558  0.00  0.00    +0.000 C 
ATOM     13  C   UNL     1       6.950   4.224  13.861  0.00  0.00    +0.000 A 
ATOM     14  C   UNL     1       7.514   4.767  15.010  0.00  0.00    +0.000 A 
ATOM     15  C   UNL     1       6.705   5.140  16.099  0.00  0.00    +0.000 A 
BRANCH  15  16
ATOM     16  N   UNL     1       7.378   5.538  17.278  0.00  0.00    +0.000 N 
ATOM     17  N   UNL     1       7.368   4.754  18.405  0.00  0.00    +0.000 NA
ATOM     18  C   UNL     1       7.961   5.538  19.303  0.00  0.00    +0.000 A 
ATOM     19  C   UNL     1       8.177   6.799  18.755  0.00  0.00    +0.000 A 
ATOM     20  N   UNL     1       7.748   6.824  17.489  0.00  0.00    +0.000 NA
ENDBRANCH  15  16
ENDBRANCH   7   9
BRANCH   1  21
ATOM     21  C   UNL     1       2.745   6.373  19.563  0.00  0.00    +0.000 C 
BRANCH  21  25
ATOM     22  C   UNL     1       0.469  10.047  19.112  0.00  0.00    +0.000 A 
ATOM     23  C   UNL     1       1.260   9.557  18.076  0.00  0.00    +0.000 A 
ATOM     24  C   UNL     1       1.990   8.385  18.238  0.00  0.00    +0.000 A 
ATOM     25  C   UNL     1       1.990   7.679  19.432  0.00  0.00    +0.000 A 
ATOM     26  C   UNL     1       1.287   8.230  20.504  0.00  0.00    +0.000 A 
ATOM     27  C   UNL     1       0.544   9.418  20.365  0.00  0.00    +0.000 A 
BRANCH  22  29
ATOM     28  C   UNL     1      -1.715  10.799  18.624  0.00  0.00    +0.000 C 
ATOM     29  O   UNL     1      -0.353  11.124  18.913  0.00  0.00    +0.000 OA
ENDBRANCH  22  29
BRANCH  27  30
ATOM     30  O   UNL     1      -0.047   9.790  21.544  0.00  0.00    +0.000 OA
ATOM     31  C   UNL     1       0.565   9.384  22.755  0.00  0.00    +0.000 C 
ENDBRANCH  27  30
ENDBRANCH  21  25
ENDBRANCH   1  21
TORSDOF 6
ENDMDL
MODEL 2
REMARK VINA RESULT:      -8.8      0.798      1.671
REMARK  Name = 
REMARK  9 active torsions:
REMARK  status: ('A' for Active; 'I' for Inactive)
REMARK    1  A    between atoms: C_1  and  O_2
REMARK    2  A    between atoms: O_2  and  C_3
REMARK    3  A    between atoms: C_6  and  C_7
REMARK    4  A    between atoms: C_7  and  C_8
REMARK    5  A    between atoms: C_14  and  C_16
REMARK    6  A    between atoms: C_18  and  C_19
REMARK    7  A    between atoms: C_22  and  N_23
REMARK    8  A    between atoms: C_29  and  O_30
REMARK    9  A    between atoms: O_30  and  C_31
REMARK                            x       y       z     vdW  Elec       q    Type
REMARK                         _______ _______ _______ _____ _____    ______ ____
ROOT
ATOM      1  C   UNL     1       2.357   5.336  18.697  0.00  0.00    +0.000 C 
ATOM      2  C   UNL     1       1.636   4.237  19.537  0.00  0.00    +0.000 C 
ATOM      3  C   UNL     1       1.192   3.016  18.760  0.00  0.00    +0.000 C 
ATOM      4  C   UNL     1       2.359   2.476  17.965  0.00  0.00    +0.000 C 
ATOM      5  C   UNL     1       2.927   3.546  17.051  0.00  0.00    +0.000 C 
ATOM      6  N   UNL     1       3.363   4.771  17.732  0.00  0.00    +0.000 N 
ATOM      7  C   UNL     1       4.368   5.613  17.158  0.00  0.00    +0.000 C 
ATOM      8  O   UNL     1       4.544   6.786  17.478  0.00  0.00    +0.000 OA
ENDROOT
BRANCH   7   9
ATOM      9  C   UNL     1       5.291   5.119  16.087  0.00  0.00    +0.000 A 
ATOM     10  C   UNL     1       4.718   4.721  14.864  0.00  0.00    +0.000 A 
ATOM     11  C   UNL     1       5.496   4.207  13.821  0.00  0.00    +0.000 A 
ATOM     12  C   UNL     1       4.848   3.519  12.658  0.00  0.00    +0.000 C 
ATOM     13  C   UNL     1       6.883   4.291  13.902  0.00  0.00    +0.000 A 
ATOM     14  C   UNL     1       7.479   4.836  15.034  0.00  0.00    +0.000 A 
ATOM     15  C   UNL     1       6.700   5.210  16.146  0.00  0.00    +0.000 A 
BRANCH  15  16
ATOM     16  N   UNL     1       7.406   5.610  17.304  0.00  0.00    +0.000 N 
ATOM     17  N   UNL     1       7.451   4.816  18.424  0.00  0.00    +0.000 NA
ATOM     18  C   UNL     1       8.059   5.603  19.308  0.00  0.00    +0.000 A 
ATOM     19  C   UNL     1       8.231   6.873  18.765  0.00  0.00    +0.000 A 
ATOM     20  N   UNL     1       7.758   6.901  17.515  0.00  0.00    +0.000 NA
ENDBRANCH  15  16
ENDBRANCH   7   9
BRANCH   1  21
ATOM     21  C   UNL     1       2.826   6.420  19.719  0.00  0.00    +0.000 C 
BRANCH  21  25
ATOM     22  C   UNL     1       0.094   9.681  20.604  0.00  0.00    +0.000 A 
ATOM     23  C   UNL     1       0.151   8.548  21.412  0.00  0.00    +0.000 A 
ATOM     24  C   UNL     1       1.023   7.509  21.111  0.00  0.00    +0.000 A 
ATOM     25  C   UNL     1       1.841   7.537  19.991  0.00  0.00    +0.000 A 
ATOM     26  C   UNL     1       1.703   8.619  19.122  0.00  0.00    +0.000 A 
ATOM     27  C   UNL     1       0.823   9.683  19.403  0.00  0.00    +0.000 A 
BRANCH  22  29
ATOM     28  C   UNL     1      -0.716  11.016  22.374  0.00  0.00    +0.000 C 
ATOM     29  O   UNL     1      -0.664  10.762  20.969  0.00  0.00    +0.000 OA
ENDBRANCH  22  29
BRANCH  27  30
ATOM     30  O   UNL     1       0.828  10.625  18.410  0.00  0.00    +0.000 OA
ATOM     31  C   UNL     1       1.924  11.520  18.344  0.00  0.00    +0.000 C 
ENDBRANCH  27  30
ENDBRANCH  21  25
ENDBRANCH   1  21
TORSDOF 6
ENDMDL
MODEL 3
REMARK VINA RESULT:      -8.5      0.709      1.004
REMARK  Name = 
REMARK  9 active torsions:
REMARK  status: ('A' for Active; 'I' for Inactive)
REMARK    1  A    between atoms: C_1  and  O_2
REMARK    2  A    between atoms: O_2  and  C_3
REMARK    3  A    between atoms: C_6  and  C_7
REMARK    4  A    between atoms: C_7  and  C_8
REMARK    5  A    between atoms: C_14  and  C_16
REMARK    6  A    between atoms: C_18  and  C_19
REMARK    7  A    between atoms: C_22  and  N_23
REMARK    8  A    between atoms: C_29  and  O_30
REMARK    9  A    between atoms: O_30  and  C_31
REMARK                            x       y       z     vdW  Elec       q    Type
REMARK                         _______ _______ _______ _____ _____    ______ ____
ROOT
ATOM      1  C   UNL     1       2.283   5.935  18.734  0.00  0.00    +0.000 C 
ATOM      2  C   UNL     1       1.691   5.034  19.860  0.00  0.00    +0.000 C 
ATOM      3  C   UNL     1       1.382   3.609  19.453  0.00  0.00    +0.000 C 
ATOM      4  C   UNL     1       2.599   3.000  18.794  0.00  0.00    +0.000 C 
ATOM      5  C   UNL     1       3.042   3.838  17.609  0.00  0.00    +0.000 C 
ATOM      6  N   UNL     1       3.342   5.240  17.923  0.00  0.00    +0.000 N 
ATOM      7  C   UNL     1       4.246   5.997  17.111  0.00  0.00    +0.000 C 
ATOM      8  O   UNL     1       4.292   7.225  17.099  0.00  0.00    +0.000 OA
ENDROOT
BRANCH   7   9
ATOM      9  C   UNL     1       5.215   5.333  16.181  0.00  0.00    +0.000 A 
ATOM     10  C   UNL     1       4.743   4.952  14.911  0.00  0.00    +0.000 A 
ATOM     11  C   UNL     1       5.562   4.289  13.991  0.00  0.00    +0.000 A 
ATOM     12  C   UNL     1       4.970   3.634  12.781  0.00  0.00    +0.000 C 
ATOM     13  C   UNL     1       6.928   4.194  14.243  0.00  0.00    +0.000 A 
ATOM     14  C   UNL     1       7.454   4.713  15.421  0.00  0.00    +0.000 A 
ATOM     15  C   UNL     1       6.606   5.241  16.413  0.00  0.00    +0.000 A 
BRANCH  15  16
ATOM     16  N   UNL     1       7.216   5.603  17.636  0.00  0.00    +0.000 N 
ATOM     17  N   UNL     1       7.659   6.883  17.862  0.00  0.00    +0.000 NA
ATOM     18  C   UNL     1       8.292   6.764  19.028  0.00  0.00    +0.000 A 
ATOM     19  C   UNL     1       8.345   5.424  19.398  0.00  0.00    +0.000 A 
ATOM     20  N   UNL     1       7.720   4.675  18.484  0.00  0.00    +0.000 NA
ENDBRANCH  15  16
ENDBRANCH   7   9
BRANCH   1  21
ATOM     21  C   UNL     1       2.633   7.297  19.412  0.00  0.00    +0.000 C 
BRANCH  21  25
ATOM     22  C   UNL     1      -0.534  10.258  19.127  0.00  0.00    +0.000 A 
ATOM     23  C   UNL     1       0.169   9.843  17.999  0.00  0.00    +0.000 A 
ATOM     24  C   UNL     1       1.186   8.902  18.107  0.00  0.00    +0.000 A 
ATOM     25  C   UNL     1       1.564   8.366  19.329  0.00  0.00    +0.000 A 
ATOM     26  C   UNL     1       0.936   8.864  20.471  0.00  0.00    +0.000 A 
ATOM     27  C   UNL     1      -0.095   9.821  20.387  0.00  0.00    +0.000 A 
BRANCH  22  29
ATOM     28  C   UNL     1      -1.814  11.644  17.707  0.00  0.00    +0.000 C 
ATOM     29  O   UNL     1      -1.622  11.082  19.008  0.00  0.00    +0.000 OA
ENDBRANCH  22  29
BRANCH  27  30
ATOM     30  O   UNL     1      -0.554  10.185  21.625  0.00  0.00    +0.000 OA
ATOM     31  C   UNL     1      -0.361   9.285  22.701  0.00  0.00    +0.000 C 
ENDBRANCH  27  30
ENDBRANCH  21  25
ENDBRANCH   1  21
TORSDOF 6
ENDMDL
MODEL 4
REMARK VINA RESULT:      -8.0      4.656      9.896
REMARK  Name = 
REMARK  9 active torsions:
REMARK  status: ('A' for Active; 'I' for Inactive)
REMARK    1  A    between atoms: C_1  and  O_2
REMARK    2  A    between atoms: O_2  and  C_3
REMARK    3  A    between atoms: C_6  and  C_7
REMARK    4  A    between atoms: C_7  and  C_8
REMARK    5  A    between atoms: C_14  and  C_16
REMARK    6  A    between atoms: C_18  and  C_19
REMARK    7  A    between atoms: C_22  and  N_23
REMARK    8  A    between atoms: C_29  and  O_30
REMARK    9  A    between atoms: O_30  and  C_31
REMARK                            x       y       z     vdW  Elec       q    Type
REMARK                         _______ _______ _______ _____ _____    ______ ____
ROOT
ATOM      1  C   UNL     1       0.020   9.655  19.583  0.00  0.00    +0.000 C 
ATOM      2  C   UNL     1      -0.025   9.720  18.025  0.00  0.00    +0.000 C 
ATOM      3  C   UNL     1      -1.339  10.184  17.434  0.00  0.00    +0.000 C 
ATOM      4  C   UNL     1      -1.751  11.484  18.088  0.00  0.00    +0.000 C 
ATOM      5  C   UNL     1      -1.840  11.323  19.594  0.00  0.00    +0.000 C 
ATOM      6  N   UNL     1      -0.606  10.856  20.238  0.00  0.00    +0.000 N 
ATOM      7  C   UNL     1      -0.335  11.155  21.611  0.00  0.00    +0.000 C 
ATOM      8  O   UNL     1       0.477  10.541  22.299  0.00  0.00    +0.000 OA
ENDROOT
BRANCH   7   9
ATOM      9  C   UNL     1      -1.053  12.254  22.334  0.00  0.00    +0.000 A 
ATOM     10  C   UNL     1      -2.130  11.893  23.165  0.00  0.00    +0.000 A 
ATOM     11  C   UNL     1      -2.885  12.853  23.847  0.00  0.00    +0.000 A 
ATOM     12  C   UNL     1      -4.193  12.483  24.478  0.00  0.00    +0.000 C 
ATOM     13  C   UNL     1      -2.437  14.171  23.883  0.00  0.00    +0.000 A 
ATOM     14  C   UNL     1      -1.276  14.526  23.205  0.00  0.00    +0.000 A 
ATOM     15  C   UNL     1      -0.604  13.592  22.394  0.00  0.00    +0.000 A 
BRANCH  15  16
ATOM     16  N   UNL     1       0.476  14.086  21.626  0.00  0.00    +0.000 N 
ATOM     17  N   UNL     1       1.622  14.554  22.221  0.00  0.00    +0.000 NA
ATOM     18  C   UNL     1       2.295  15.057  21.189  0.00  0.00    +0.000 A 
ATOM     19  C   UNL     1       1.501  15.017  20.047  0.00  0.00    +0.000 A 
ATOM     20  N   UNL     1       0.319  14.462  20.333  0.00  0.00    +0.000 NA
ENDBRANCH  15  16
ENDBRANCH   7   9
BRANCH   1  21
ATOM     21  C   UNL     1       1.489   9.280  19.956  0.00  0.00    +0.000 C 
BRANCH  21  25
ATOM     22  C   UNL     1       2.413   5.072  19.385  0.00  0.00    +0.000 A 
ATOM     23  C   UNL     1       1.782   5.521  20.542  0.00  0.00    +0.000 A 
ATOM     24  C   UNL     1       1.501   6.871  20.715  0.00  0.00    +0.000 A 
ATOM     25  C   UNL     1       1.862   7.823  19.772  0.00  0.00    +0.000 A 
ATOM     26  C   UNL     1       2.593   7.388  18.667  0.00  0.00    +0.000 A 
ATOM     27  C   UNL     1       2.893   6.025  18.472  0.00  0.00    +0.000 A 
BRANCH  22  29
ATOM     28  C   UNL     1       1.442   3.084  18.563  0.00  0.00    +0.000 C 
ATOM     29  O   UNL     1       2.572   3.732  19.151  0.00  0.00    +0.000 OA
ENDBRANCH  22  29
BRANCH  27  30
ATOM     30  O   UNL     1       3.636   5.824  17.339  0.00  0.00    +0.000 OA
ATOM     31  C   UNL     1       4.873   6.505  17.222  0.00  0.00    +0.000 C 
ENDBRANCH  27  30
ENDBRANCH  21  25
ENDBRANCH   1  21
TORSDOF 6
ENDMDL
MODEL 5
REMARK VINA RESULT:      -8.0      4.790      9.937
REMARK  Name = 
REMARK  9 active torsions:
REMARK  status: ('A' for Active; 'I' for Inactive)
REMARK    1  A    between atoms: C_1  and  O_2
REMARK    2  A    between atoms: O_2  and  C_3
REMARK    3  A    between atoms: C_6  and  C_7
REMARK    4  A    between atoms: C_7  and  C_8
REMARK    5  A    between atoms: C_14  and  C_16
REMARK    6  A    between atoms: C_18  and  C_19
REMARK    7  A    between atoms: C_22  and  N_23
REMARK    8  A    between atoms: C_29  and  O_30
REMARK    9  A    between atoms: O_30  and  C_31
REMARK                            x       y       z     vdW  Elec       q    Type
REMARK                         _______ _______ _______ _____ _____    ______ ____
ROOT
ATOM      1  C   UNL     1      -0.006   9.687  19.736  0.00  0.00    +0.000 C 
ATOM      2  C   UNL     1       0.047   9.781  18.180  0.00  0.00    +0.000 C 
ATOM      3  C   UNL     1      -1.224  10.268  17.517  0.00  0.00    +0.000 C 
ATOM      4  C   UNL     1      -1.666  11.559  18.168  0.00  0.00    +0.000 C 
ATOM      5  C   UNL     1      -1.850  11.371  19.663  0.00  0.00    +0.000 C 
ATOM      6  N   UNL     1      -0.662  10.881  20.373  0.00  0.00    +0.000 N 
ATOM      7  C   UNL     1      -0.475  11.152  21.766  0.00  0.00    +0.000 C 
ATOM      8  O   UNL     1       0.288  10.519  22.491  0.00  0.00    +0.000 OA
ENDROOT
BRANCH   7   9
ATOM      9  C   UNL     1      -1.228  12.244  22.463  0.00  0.00    +0.000 A 
ATOM     10  C   UNL     1      -2.298  11.869  23.298  0.00  0.00    +0.000 A 
ATOM     11  C   UNL     1      -3.084  12.820  23.957  0.00  0.00    +0.000 A 
ATOM     12  C   UNL     1      -4.383  12.425  24.589  0.00  0.00    +0.000 C 
ATOM     13  C   UNL     1      -2.674  14.151  23.968  0.00  0.00    +0.000 A 
ATOM     14  C   UNL     1      -1.521  14.527  23.288  0.00  0.00    +0.000 A 
ATOM     15  C   UNL     1      -0.818  13.596  22.498  0.00  0.00    +0.000 A 
BRANCH  15  16
ATOM     16  N   UNL     1       0.250  14.106  21.724  0.00  0.00    +0.000 N 
ATOM     17  N   UNL     1       1.397  14.578  22.314  0.00  0.00    +0.000 NA
ATOM     18  C   UNL     1       2.057  15.096  21.279  0.00  0.00    +0.000 A 
ATOM     19  C   UNL     1       1.252  15.060  20.144  0.00  0.00    +0.000 A 
ATOM     20  N   UNL     1       0.078  14.492  20.437  0.00  0.00    +0.000 NA
ENDBRANCH  15  16
ENDBRANCH   7   9
BRANCH   1  21
ATOM     21  C   UNL     1       1.434   9.292  20.192  0.00  0.00    +0.000 C 
BRANCH  21  25
ATOM     22  C   UNL     1       2.995   5.466  18.847  0.00  0.00    +0.000 A 
ATOM     23  C   UNL     1       3.032   6.589  18.025  0.00  0.00    +0.000 A 
ATOM     24  C   UNL     1       2.520   7.804  18.465  0.00  0.00    +0.000 A 
ATOM     25  C   UNL     1       1.928   7.944  19.712  0.00  0.00    +0.000 A 
ATOM     26  C   UNL     1       1.792   6.794  20.490  0.00  0.00    +0.000 A 
ATOM     27  C   UNL     1       2.298   5.551  20.063  0.00  0.00    +0.000 A 
BRANCH  22  29
ATOM     28  C   UNL     1       4.914   4.103  19.035  0.00  0.00    +0.000 C 
ATOM     29  O   UNL     1       3.616   4.305  18.471  0.00  0.00    +0.000 OA
ENDBRANCH  22  29
BRANCH  27  30
ATOM     30  O   UNL     1       2.036   4.556  20.968  0.00  0.00    +0.000 OA
ATOM     31  C   UNL     1       1.038   3.604  20.643  0.00  0.00    +0.000 C 
ENDBRANCH  27  30
ENDBRANCH  21  25
ENDBRANCH   1  21
TORSDOF 6
ENDMDL
MODEL 6
REMARK VINA RESULT:      -7.8      1.163      2.023
REMARK  Name = 
REMARK  9 active torsions:
REMARK  status: ('A' for Active; 'I' for Inactive)
REMARK    1  A    between atoms: C_1  and  O_2
REMARK    2  A    between atoms: O_2  and  C_3
REMARK    3  A    between atoms: C_6  and  C_7
REMARK    4  A    between atoms: C_7  and  C_8
REMARK    5  A    between atoms: C_14  and  C_16
REMARK    6  A    between atoms: C_18  and  C_19
REMARK    7  A    between atoms: C_22  and  N_23
REMARK    8  A    between atoms: C_29  and  O_30
REMARK    9  A    between atoms: O_30  and  C_31
REMARK                            x       y       z     vdW  Elec       q    Type
REMARK                         _______ _______ _______ _____ _____    ______ ____
ROOT
ATOM      1  C   UNL     1       2.630   6.475  18.336  0.00  0.00    +0.000 C 
ATOM      2  C   UNL     1       2.308   5.881  19.742  0.00  0.00    +0.000 C 
ATOM      3  C   UNL     1       2.183   4.373  19.794  0.00  0.00    +0.000 C 
ATOM      4  C   UNL     1       3.402   3.746  19.157  0.00  0.00    +0.000 C 
ATOM      5  C   UNL     1       3.580   4.244  17.735  0.00  0.00    +0.000 C 
ATOM      6  N   UNL     1       3.691   5.701  17.602  0.00  0.00    +0.000 N 
ATOM      7  C   UNL     1       4.374   6.288  16.489  0.00  0.00    +0.000 C 
ATOM      8  O   UNL     1       4.227   7.455  16.132  0.00  0.00    +0.000 OA
ENDROOT
BRANCH   7   9
ATOM      9  C   UNL     1       5.328   5.498  15.646  0.00  0.00    +0.000 A 
ATOM     10  C   UNL     1       4.841   4.954  14.443  0.00  0.00    +0.000 A 
ATOM     11  C   UNL     1       5.646   4.168  13.613  0.00  0.00    +0.000 A 
ATOM     12  C   UNL     1       5.037   3.360  12.507  0.00  0.00    +0.000 C 
ATOM     13  C   UNL     1       7.014   4.098  13.861  0.00  0.00    +0.000 A 
ATOM     14  C   UNL     1       7.556   4.768  14.953  0.00  0.00    +0.000 A 
ATOM     15  C   UNL     1       6.721   5.430  15.874  0.00  0.00    +0.000 A 
BRANCH  15  16
ATOM     16  N   UNL     1       7.348   5.948  17.031  0.00  0.00    +0.000 N 
ATOM     17  N   UNL     1       7.375   5.240  18.207  0.00  0.00    +0.000 NA
ATOM     18  C   UNL     1       7.898   6.120  19.058  0.00  0.00    +0.000 A 
ATOM     19  C   UNL     1       8.034   7.355  18.432  0.00  0.00    +0.000 A 
ATOM     20  N   UNL     1       7.624   7.268  17.162  0.00  0.00    +0.000 NA
ENDBRANCH  15  16
ENDBRANCH   7   9
BRANCH   1  21
ATOM     21  C   UNL     1       2.835   8.007  18.553  0.00  0.00    +0.000 C 
BRANCH  21  25
ATOM     22  C   UNL     1      -0.646  10.380  19.622  0.00  0.00    +0.000 A 
ATOM     23  C   UNL     1       0.158   9.797  20.599  0.00  0.00    +0.000 A 
ATOM     24  C   UNL     1       1.263   9.033  20.242  0.00  0.00    +0.000 A 
ATOM     25  C   UNL     1       1.591   8.791  18.916  0.00  0.00    +0.000 A 
ATOM     26  C   UNL     1       0.723   9.281  17.940  0.00  0.00    +0.000 A 
ATOM     27  C   UNL     1      -0.405  10.054  18.277  0.00  0.00    +0.000 A 
BRANCH  22  29
ATOM     28  C   UNL     1      -1.231  12.568  20.285  0.00  0.00    +0.000 C 
ATOM     29  O   UNL     1      -1.653  11.240  19.969  0.00  0.00    +0.000 OA
ENDBRANCH  22  29
BRANCH  27  30
ATOM     30  O   UNL     1      -1.128  10.411  17.170  0.00  0.00    +0.000 OA
ATOM     31  C   UNL     1      -2.426   9.864  17.015  0.00  0.00    +0.000 C 
ENDBRANCH  27  30
ENDBRANCH  21  25
ENDBRANCH   1  21
TORSDOF 6
ENDMDL
MODEL 7
REMARK VINA RESULT:      -7.7      4.013      9.026
REMARK  Name = 
REMARK  9 active torsions:
REMARK  status: ('A' for Active; 'I' for Inactive)
REMARK    1  A    between atoms: C_1  and  O_2
REMARK    2  A    between atoms: O_2  and  C_3
REMARK    3  A    between atoms: C_6  and  C_7
REMARK    4  A    between atoms: C_7  and  C_8
REMARK    5  A    between atoms: C_14  and  C_16
REMARK    6  A    between atoms: C_18  and  C_19
REMARK    7  A    between atoms: C_22  and  N_23
REMARK    8  A    between atoms: C_29  and  O_30
REMARK    9  A    between atoms: O_30  and  C_31
REMARK                            x       y       z     vdW  Elec       q    Type
REMARK                         _______ _______ _______ _____ _____    ______ ____
ROOT
ATOM      1  C   UNL     1       1.678   8.901  19.584  0.00  0.00    +0.000 C 
ATOM      2  C   UNL     1       0.895   7.991  20.579  0.00  0.00    +0.000 C 
ATOM      3  C   UNL     1       0.717   8.558  21.971  0.00  0.00    +0.000 C 
ATOM      4  C   UNL     1       0.143   9.954  21.876  0.00  0.00    +0.000 C 
ATOM      5  C   UNL     1       1.028  10.840  21.019  0.00  0.00    +0.000 C 
ATOM      6  N   UNL     1       1.262  10.345  19.657  0.00  0.00    +0.000 N 
ATOM      7  C   UNL     1       1.586  11.246  18.593  0.00  0.00    +0.000 C 
ATOM      8  O   UNL     1       2.112  10.900  17.538  0.00  0.00    +0.000 OA
ENDROOT
BRANCH   7   9
ATOM      9  C   UNL     1       1.317  12.716  18.698  0.00  0.00    +0.000 A 
ATOM     10  C   UNL     1       2.421  13.587  18.647  0.00  0.00    +0.000 A 
ATOM     11  C   UNL     1       2.272  14.972  18.778  0.00  0.00    +0.000 A 
ATOM     12  C   UNL     1       3.465  15.845  19.020  0.00  0.00    +0.000 C 
ATOM     13  C   UNL     1       0.995  15.524  18.740  0.00  0.00    +0.000 A 
ATOM     14  C   UNL     1      -0.116  14.696  18.620  0.00  0.00    +0.000 A 
ATOM     15  C   UNL     1       0.029  13.295  18.644  0.00  0.00    +0.000 A 
BRANCH  15  16
ATOM     16  N   UNL     1      -1.167  12.539  18.672  0.00  0.00    +0.000 N 
ATOM     17  N   UNL     1      -1.675  11.965  17.533  0.00  0.00    +0.000 NA
ATOM     18  C   UNL     1      -2.850  11.498  17.950  0.00  0.00    +0.000 A 
ATOM     19  C   UNL     1      -3.086  11.917  19.256  0.00  0.00    +0.000 A 
ATOM     20  N   UNL     1      -2.048  12.635  19.697  0.00  0.00    +0.000 NA
ENDBRANCH  15  16
ENDBRANCH   7   9
BRANCH   1  21
ATOM     21  C   UNL     1       1.624   8.175  18.203  0.00  0.00    +0.000 C 
BRANCH  21  25
ATOM     22  C   UNL     1       4.693   5.218  17.352  0.00  0.00    +0.000 A 
ATOM     23  C   UNL     1       3.481   4.853  17.933  0.00  0.00    +0.000 A 
ATOM     24  C   UNL     1       2.513   5.812  18.208  0.00  0.00    +0.000 A 
ATOM     25  C   UNL     1       2.719   7.159  17.951  0.00  0.00    +0.000 A 
ATOM     26  C   UNL     1       3.974   7.537  17.473  0.00  0.00    +0.000 A 
ATOM     27  C   UNL     1       4.973   6.585  17.192  0.00  0.00    +0.000 A 
BRANCH  22  29
ATOM     28  C   UNL     1       5.587   3.968  15.560  0.00  0.00    +0.000 C 
ATOM     29  O   UNL     1       5.594   4.265  16.959  0.00  0.00    +0.000 OA
ENDBRANCH  22  29
BRANCH  27  30
ATOM     30  O   UNL     1       6.130   7.174  16.756  0.00  0.00    +0.000 OA
ATOM     31  C   UNL     1       7.287   7.051  17.562  0.00  0.00    +0.000 C 
ENDBRANCH  27  30
ENDBRANCH  21  25
ENDBRANCH   1  21
TORSDOF 6
ENDMDL
MODEL 8
REMARK VINA RESULT:      -7.7      4.254      9.048
REMARK  Name = 
REMARK  9 active torsions:
REMARK  status: ('A' for Active; 'I' for Inactive)
REMARK    1  A    between atoms: C_1  and  O_2
REMARK    2  A    between atoms: O_2  and  C_3
REMARK    3  A    between atoms: C_6  and  C_7
REMARK    4  A    between atoms: C_7  and  C_8
REMARK    5  A    between atoms: C_14  and  C_16
REMARK    6  A    between atoms: C_18  and  C_19
REMARK    7  A    between atoms: C_22  and  N_23
REMARK    8  A    between atoms: C_29  and  O_30
REMARK    9  A    between atoms: O_30  and  C_31
REMARK                            x       y       z     vdW  Elec       q    Type
REMARK                         _______ _______ _______ _____ _____    ______ ____
ROOT
ATOM      1  C   UNL     1       1.312   9.338  20.129  0.00  0.00    +0.000 C 
ATOM      2  C   UNL     1       0.394   8.532  21.097  0.00  0.00    +0.000 C 
ATOM      3  C   UNL     1       0.129   9.189  22.435  0.00  0.00    +0.000 C 
ATOM      4  C   UNL     1      -0.353  10.605  22.212  0.00  0.00    +0.000 C 
ATOM      5  C   UNL     1       0.653  11.390  21.391  0.00  0.00    +0.000 C 
ATOM      6  N   UNL     1       0.975  10.803  20.085  0.00  0.00    +0.000 N 
ATOM      7  C   UNL     1       1.441  11.621  19.007  0.00  0.00    +0.000 C 
ATOM      8  O   UNL     1       2.036  11.186  18.023  0.00  0.00    +0.000 OA
ENDROOT
BRANCH   7   9
ATOM      9  C   UNL     1       1.249  13.107  19.006  0.00  0.00    +0.000 A 
ATOM     10  C   UNL     1       2.402  13.914  18.995  0.00  0.00    +0.000 A 
ATOM     11  C   UNL     1       2.323  15.310  19.036  0.00  0.00    +0.000 A 
ATOM     12  C   UNL     1       3.542  16.132  19.324  0.00  0.00    +0.000 C 
ATOM     13  C   UNL     1       1.086  15.926  18.863  0.00  0.00    +0.000 A 
ATOM     14  C   UNL     1      -0.057  15.151  18.701  0.00  0.00    +0.000 A 
ATOM     15  C   UNL     1       0.005  13.749  18.816  0.00  0.00    +0.000 A 
BRANCH  15  16
ATOM     16  N   UNL     1      -1.230  13.060  18.790  0.00  0.00    +0.000 N 
ATOM     17  N   UNL     1      -2.037  12.996  19.899  0.00  0.00    +0.000 NA
ATOM     18  C   UNL     1      -2.989  12.151  19.512  0.00  0.00    +0.000 A 
ATOM     19  C   UNL     1      -2.668  11.621  18.266  0.00  0.00    +0.000 A 
ATOM     20  N   UNL     1      -1.517  12.145  17.832  0.00  0.00    +0.000 NA
ENDBRANCH  15  16
ENDBRANCH   7   9
BRANCH   1  21
ATOM     21  C   UNL     1       1.336   8.534  18.790  0.00  0.00    +0.000 C 
BRANCH  21  25
ATOM     22  C   UNL     1       4.536   5.606  18.533  0.00  0.00    +0.000 A 
ATOM     23  C   UNL     1       4.442   6.654  17.621  0.00  0.00    +0.000 A 
ATOM     24  C   UNL     1       3.408   7.578  17.710  0.00  0.00    +0.000 A 
ATOM     25  C   UNL     1       2.417   7.481  18.676  0.00  0.00    +0.000 A 
ATOM     26  C   UNL     1       2.449   6.369  19.519  0.00  0.00    +0.000 A 
ATOM     27  C   UNL     1       3.485   5.417  19.444  0.00  0.00    +0.000 A 
BRANCH  22  29
ATOM     28  C   UNL     1       6.889   5.433  18.619  0.00  0.00    +0.000 C 
ATOM     29  O   UNL     1       5.624   4.774  18.531  0.00  0.00    +0.000 OA
ENDBRANCH  22  29
BRANCH  27  30
ATOM     30  O   UNL     1       3.308   4.401  20.345  0.00  0.00    +0.000 OA
ATOM     31  C   UNL     1       2.080   4.338  21.049  0.00  0.00    +0.000 C 
ENDBRANCH  27  30
ENDBRANCH  21  25
ENDBRANCH   1  21
TORSDOF 6
ENDMDL
MODEL 9
REMARK VINA RESULT:      -7.6      4.099      8.944
REMARK  Name = 
REMARK  9 active torsions:
REMARK  status: ('A' for Active; 'I' for Inactive)
REMARK    1  A    between atoms: C_1  and  O_2
REMARK    2  A    between atoms: O_2  and  C_3
REMARK    3  A    between atoms: C_6  and  C_7
REMARK    4  A    between atoms: C_7  and  C_8
REMARK    5  A    between atoms: C_14  and  C_16
REMARK    6  A    between atoms: C_18  and  C_19
REMARK    7  A    between atoms: C_22  and  N_23
REMARK    8  A    between atoms: C_29  and  O_30
REMARK    9  A    between atoms: O_30  and  C_31
REMARK                            x       y       z     vdW  Elec       q    Type
REMARK                         _______ _______ _______ _____ _____    ______ ____
ROOT
ATOM      1  C   UNL     1       1.710   8.884  19.599  0.00  0.00    +0.000 C 
ATOM      2  C   UNL     1       0.902   7.953  20.554  0.00  0.00    +0.000 C 
ATOM      3  C   UNL     1       0.653   8.508  21.941  0.00  0.00    +0.000 C 
ATOM      4  C   UNL     1       0.057   9.893  21.827  0.00  0.00    +0.000 C 
ATOM      5  C   UNL     1       0.961  10.801  21.014  0.00  0.00    +0.000 C 
ATOM      6  N   UNL     1       1.263  10.319  19.661  0.00  0.00    +0.000 N 
ATOM      7  C   UNL     1       1.615  11.232  18.617  0.00  0.00    +0.000 C 
ATOM      8  O   UNL     1       2.193  10.903  17.583  0.00  0.00    +0.000 OA
ENDROOT
BRANCH   7   9
ATOM      9  C   UNL     1       1.313  12.696  18.717  0.00  0.00    +0.000 A 
ATOM     10  C   UNL     1       2.400  13.589  18.698  0.00  0.00    +0.000 A 
ATOM     11  C   UNL     1       2.219  14.970  18.827  0.00  0.00    +0.000 A 
ATOM     12  C   UNL     1       3.388  15.867  19.103  0.00  0.00    +0.000 C 
ATOM     13  C   UNL     1       0.933  15.497  18.756  0.00  0.00    +0.000 A 
ATOM     14  C   UNL     1      -0.157  14.646  18.605  0.00  0.00    +0.000 A 
ATOM     15  C   UNL     1       0.015  13.249  18.630  0.00  0.00    +0.000 A 
BRANCH  15  16
ATOM     16  N   UNL     1      -1.164  12.469  18.623  0.00  0.00    +0.000 N 
ATOM     17  N   UNL     1      -1.638  11.899  17.467  0.00  0.00    +0.000 NA
ATOM     18  C   UNL     1      -2.812  11.403  17.854  0.00  0.00    +0.000 A 
ATOM     19  C   UNL     1      -3.082  11.800  19.160  0.00  0.00    +0.000 A 
ATOM     20  N   UNL     1      -2.068  12.533  19.631  0.00  0.00    +0.000 NA
ENDBRANCH  15  16
ENDBRANCH   7   9
BRANCH   1  21
ATOM     21  C   UNL     1       1.730   8.165  18.213  0.00  0.00    +0.000 C 
BRANCH  21  25
ATOM     22  C   UNL     1       3.770   4.328  18.263  0.00  0.00    +0.000 A 
ATOM     23  C   UNL     1       4.475   5.521  18.396  0.00  0.00    +0.000 A 
ATOM     24  C   UNL     1       3.810   6.742  18.368  0.00  0.00    +0.000 A 
ATOM     25  C   UNL     1       2.438   6.827  18.177  0.00  0.00    +0.000 A 
ATOM     26  C   UNL     1       1.749   5.639  17.932  0.00  0.00    +0.000 A 
ATOM     27  C   UNL     1       2.402   4.391  17.950  0.00  0.00    +0.000 A 
BRANCH  22  29
ATOM     28  C   UNL     1       4.380   2.602  19.753  0.00  0.00    +0.000 C 
ATOM     29  O   UNL     1       4.400   3.123  18.422  0.00  0.00    +0.000 OA
ENDBRANCH  22  29
BRANCH  27  30
ATOM     30  O   UNL     1       1.544   3.363  17.664  0.00  0.00    +0.000 OA
ATOM     31  C   UNL     1       0.863   2.741  18.739  0.00  0.00    +0.000 C 
ENDBRANCH  27  30
ENDBRANCH  21  25
ENDBRANCH   1  21
TORSDOF 6
ENDMDL
