MODEL 1
REMARK VINA RESULT:      -7.5      0.000      0.000
REMARK  Name = 
REMARK  9 active torsions:
REMARK  status: ('A' for Active; 'I' for Inactive)
REMARK    1  A    between atoms: C_1  and  C_2
REMARK    2  A    between atoms: C_6  and  C_7
REMARK    3  A    between atoms: C_7  and  O_9
REMARK    4  A    between atoms: O_9  and  C_10
REMARK    5  A    between atoms: C_10  and  C_11
REMARK    6  A    between atoms: C_10  and  C_12
REMARK    7  A    between atoms: N_14  and  C_15
REMARK    8  A    between atoms: C_15  and  C_16
REMARK    9  A    between atoms: C_22  and  O_23
REMARK                            x       y       z     vdW  Elec       q    Type
REMARK                         _______ _______ _______ _____ _____    ______ ____
ROOT
ATOM      1  C   UNL     1       5.364   6.049  17.414  0.00  0.00    +0.000 C 
ATOM      2  C   UNL     1       6.787   6.573  17.239  0.00  0.00    +0.000 C 
ENDROOT
BRANCH   1   3
ATOM      3  C   UNL     1       5.337   5.020  18.559  0.00  0.00    +0.000 C 
ATOM      4  O   UNL     1       5.697   5.289  19.703  0.00  0.00    +0.000 OA
ATOM      5  N   UNL     1       4.936   3.756  18.183  0.00  0.00    +0.000 N 
ATOM      6  H   UNL     1       4.585   3.629  17.243  0.00  0.00    +0.000 HD
BRANCH   5   7
ATOM      7  C   UNL     1       4.741   2.702  19.158  0.00  0.00    +0.000 C 
BRANCH   7   8
ATOM      8  C   UNL     1       3.279   2.470  19.566  0.00  0.00    +0.000 C 
ATOM      9  C   UNL     1       2.276   2.636  18.415  0.00  0.00    +0.000 C 
ATOM     10  C   UNL     1       0.862   2.267  18.869  0.00  0.00    +0.000 C 
ATOM     11  C   UNL     1       0.434   3.036  20.118  0.00  0.00    +0.000 C 
ATOM     12  C   UNL     1       1.470   2.953  21.237  0.00  0.00    +0.000 C 
ATOM     13  C   UNL     1       2.860   3.352  20.749  0.00  0.00    +0.000 C 
ENDBRANCH   7   8
ENDBRANCH   5   7
ENDBRANCH   1   3
BRANCH   1  14
ATOM     14  O   UNL     1       4.471   7.139  17.712  0.00  0.00    +0.000 OA
BRANCH  14  15
ATOM     15  C   UNL     1       3.178   6.788  17.920  0.00  0.00    +0.000 C 
ATOM     16  O   UNL     1       2.685   5.696  17.672  0.00  0.00    +0.000 OA
BRANCH  15  22
ATOM     17  C   UNL     1       0.701   8.760  21.831  0.00  0.00    +0.000 C 
ATOM     18  C   UNL     1       1.183   8.852  20.411  0.00  0.00    +0.000 A 
ATOM     19  C   UNL     1       0.886   9.983  19.639  0.00  0.00    +0.000 A 
ATOM     20  C   UNL     1       1.322  10.076  18.316  0.00  0.00    +0.000 A 
ATOM     21  C   UNL     1       2.063   9.038  17.747  0.00  0.00    +0.000 A 
ATOM     22  C   UNL     1       2.379   7.899  18.500  0.00  0.00    +0.000 A 
ATOM     23  C   UNL     1       1.930   7.813  19.832  0.00  0.00    +0.000 A 
BRANCH  23  24
ATOM     24  O   UNL     1       2.191   6.727  20.631  0.00  0.00    +0.000 OA
ATOM     25  H   UNL     1       2.307   7.029  21.558  0.00  0.00    +0.000 HD
ENDBRANCH  23  24
ENDBRANCH  15  22
ENDBRANCH  14  15
ENDBRANCH   1  14
TORSDOF 7
ENDMDL
MODEL 2
REMARK VINA RESULT:      -7.4      3.928      7.441
REMARK  Name = 
REMARK  9 active torsions:
REMARK  status: ('A' for Active; 'I' for Inactive)
REMARK    1  A    between atoms: C_1  and  C_2
REMARK    2  A    between atoms: C_6  and  C_7
REMARK    3  A    between atoms: C_7  and  O_9
REMARK    4  A    between atoms: O_9  and  C_10
REMARK    5  A    between atoms: C_10  and  C_11
REMARK    6  A    between atoms: C_10  and  C_12
REMARK    7  A    between atoms: N_14  and  C_15
REMARK    8  A    between atoms: C_15  and  C_16
REMARK    9  A    between atoms: C_22  and  O_23
REMARK                            x       y       z     vdW  Elec       q    Type
REMARK                         _______ _______ _______ _____ _____    ______ ____
ROOT
ATOM      1  C   UNL     1       7.077   5.984  18.570  0.00  0.00    +0.000 C 
ATOM      2  C   UNL     1       7.987   5.690  19.759  0.00  0.00    +0.000 C 
ENDROOT
BRANCH   1   3
ATOM      3  C   UNL     1       7.650   7.167  17.769  0.00  0.00    +0.000 C 
ATOM      4  O   UNL     1       7.803   7.134  16.550  0.00  0.00    +0.000 OA
ATOM      5  N   UNL     1       8.037   8.245  18.537  0.00  0.00    +0.000 N 
ATOM      6  H   UNL     1       7.813   8.230  19.524  0.00  0.00    +0.000 HD
BRANCH   5   7
ATOM      7  C   UNL     1       8.486   9.483  17.934  0.00  0.00    +0.000 C 
BRANCH   7   8
ATOM      8  C   UNL     1       9.583  10.216  18.719  0.00  0.00    +0.000 C 
ATOM      9  C   UNL     1       9.077  10.929  19.981  0.00  0.00    +0.000 C 
ATOM     10  C   UNL     1      10.244  11.527  20.772  0.00  0.00    +0.000 C 
ATOM     11  C   UNL     1      11.122  12.435  19.913  0.00  0.00    +0.000 C 
ATOM     12  C   UNL     1      11.555  11.766  18.611  0.00  0.00    +0.000 C 
ATOM     13  C   UNL     1      10.361  11.205  17.842  0.00  0.00    +0.000 C 
ENDBRANCH   7   8
ENDBRANCH   5   7
ENDBRANCH   1   3
BRANCH   1  14
ATOM     14  O   UNL     1       6.979   4.821  17.726  0.00  0.00    +0.000 OA
BRANCH  14  15
ATOM     15  C   UNL     1       5.837   4.726  17.001  0.00  0.00    +0.000 C 
ATOM     16  O   UNL     1       5.769   4.575  15.789  0.00  0.00    +0.000 OA
BRANCH  15  22
ATOM     17  C   UNL     1       3.029   2.941  20.776  0.00  0.00    +0.000 C 
ATOM     18  C   UNL     1       3.267   3.955  19.692  0.00  0.00    +0.000 A 
ATOM     19  C   UNL     1       2.349   4.994  19.488  0.00  0.00    +0.000 A 
ATOM     20  C   UNL     1       2.556   5.936  18.479  0.00  0.00    +0.000 A 
ATOM     21  C   UNL     1       3.685   5.853  17.662  0.00  0.00    +0.000 A 
ATOM     22  C   UNL     1       4.621   4.826  17.850  0.00  0.00    +0.000 A 
ATOM     23  C   UNL     1       4.400   3.878  18.867  0.00  0.00    +0.000 A 
BRANCH  23  24
ATOM     24  O   UNL     1       5.266   2.839  19.109  0.00  0.00    +0.000 OA
ATOM     25  H   UNL     1       6.017   3.164  19.651  0.00  0.00    +0.000 HD
ENDBRANCH  23  24
ENDBRANCH  15  22
ENDBRANCH  14  15
ENDBRANCH   1  14
TORSDOF 7
ENDMDL
MODEL 3
REMARK VINA RESULT:      -7.4      3.943      5.586
REMARK  Name = 
REMARK  9 active torsions:
REMARK  status: ('A' for Active; 'I' for Inactive)
REMARK    1  A    between atoms: C_1  and  C_2
REMARK    2  A    between atoms: C_6  and  C_7
REMARK    3  A    between atoms: C_7  and  O_9
REMARK    4  A    between atoms: O_9  and  C_10
REMARK    5  A    between atoms: C_10  and  C_11
REMARK    6  A    between atoms: C_10  and  C_12
REMARK    7  A    between atoms: N_14  and  C_15
REMARK    8  A    between atoms: C_15  and  C_16
REMARK    9  A    between atoms: C_22  and  O_23
REMARK                            x       y       z     vdW  Elec       q    Type
REMARK                         _______ _______ _______ _____ _____    ______ ____
ROOT
ATOM      1  C   UNL     1       0.727   9.848  20.455  0.00  0.00    +0.000 C 
ATOM      2  C   UNL     1       0.807   9.524  21.944  0.00  0.00    +0.000 C 
ENDROOT
BRANCH   1   3
ATOM      3  C   UNL     1       1.421   8.732  19.653  0.00  0.00    +0.000 C 
ATOM      4  O   UNL     1       1.567   8.781  18.434  0.00  0.00    +0.000 OA
ATOM      5  N   UNL     1       1.812   7.644  20.404  0.00  0.00    +0.000 N 
ATOM      6  H   UNL     1       1.726   7.707  21.411  0.00  0.00    +0.000 HD
BRANCH   5   7
ATOM      7  C   UNL     1       2.582   6.562  19.827  0.00  0.00    +0.000 C 
BRANCH   7   8
ATOM      8  C   UNL     1       1.864   5.205  19.810  0.00  0.00    +0.000 C 
ATOM      9  C   UNL     1       2.203   4.304  21.006  0.00  0.00    +0.000 C 
ATOM     10  C   UNL     1       1.357   3.028  20.983  0.00  0.00    +0.000 C 
ATOM     11  C   UNL     1       1.468   2.282  19.654  0.00  0.00    +0.000 C 
ATOM     12  C   UNL     1       1.224   3.192  18.452  0.00  0.00    +0.000 C 
ATOM     13  C   UNL     1       2.103   4.439  18.502  0.00  0.00    +0.000 C 
ENDBRANCH   7   8
ENDBRANCH   5   7
ENDBRANCH   1   3
BRANCH   1  14
ATOM     14  O   UNL     1      -0.650   9.960  20.049  0.00  0.00    +0.000 OA
BRANCH  14  15
ATOM     15  C   UNL     1      -0.974  11.112  19.409  0.00  0.00    +0.000 C 
ATOM     16  O   UNL     1      -0.554  12.226  19.688  0.00  0.00    +0.000 OA
BRANCH  15  22
ATOM     17  C   UNL     1      -5.379  12.122  17.197  0.00  0.00    +0.000 C 
ATOM     18  C   UNL     1      -4.067  11.390  17.218  0.00  0.00    +0.000 A 
ATOM     19  C   UNL     1      -3.739  10.503  16.184  0.00  0.00    +0.000 A 
ATOM     20  C   UNL     1      -2.526   9.811  16.199  0.00  0.00    +0.000 A 
ATOM     21  C   UNL     1      -1.623  10.000  17.247  0.00  0.00    +0.000 A 
ATOM     22  C   UNL     1      -1.925  10.886  18.290  0.00  0.00    +0.000 A 
ATOM     23  C   UNL     1      -3.153  11.574  18.269  0.00  0.00    +0.000 A 
BRANCH  23  24
ATOM     24  O   UNL     1      -3.525  12.453  19.258  0.00  0.00    +0.000 OA
ATOM     25  H   UNL     1      -3.522  11.986  20.121  0.00  0.00    +0.000 HD
ENDBRANCH  23  24
ENDBRANCH  15  22
ENDBRANCH  14  15
ENDBRANCH   1  14
TORSDOF 7
ENDMDL
MODEL 4
REMARK VINA RESULT:      -7.3      1.715      5.105
REMARK  Name = 
REMARK  9 active torsions:
REMARK  status: ('A' for Active; 'I' for Inactive)
REMARK    1  A    between atoms: C_1  and  C_2
REMARK    2  A    between atoms: C_6  and  C_7
REMARK    3  A    between atoms: C_7  and  O_9
REMARK    4  A    between atoms: O_9  and  C_10
REMARK    5  A    between atoms: C_10  and  C_11
REMARK    6  A    between atoms: C_10  and  C_12
REMARK    7  A    between atoms: N_14  and  C_15
REMARK    8  A    between atoms: C_15  and  C_16
REMARK    9  A    between atoms: C_22  and  O_23
REMARK                            x       y       z     vdW  Elec       q    Type
REMARK                         _______ _______ _______ _____ _____    ______ ____
ROOT
ATOM      1  C   UNL     1       5.844   4.902  16.681  0.00  0.00    +0.000 C 
ATOM      2  C   UNL     1       6.655   4.451  15.470  0.00  0.00    +0.000 C 
ENDROOT
BRANCH   1   3
ATOM      3  C   UNL     1       5.045   6.167  16.317  0.00  0.00    +0.000 C 
ATOM      4  O   UNL     1       5.171   6.747  15.241  0.00  0.00    +0.000 OA
ATOM      5  N   UNL     1       4.221   6.632  17.320  0.00  0.00    +0.000 N 
ATOM      6  H   UNL     1       4.113   6.062  18.149  0.00  0.00    +0.000 HD
BRANCH   5   7
ATOM      7  C   UNL     1       3.314   7.741  17.102  0.00  0.00    +0.000 C 
BRANCH   7   8
ATOM      8  C   UNL     1       2.659   8.291  18.377  0.00  0.00    +0.000 C 
ATOM      9  C   UNL     1       2.213   7.206  19.368  0.00  0.00    +0.000 C 
ATOM     10  C   UNL     1       1.687   7.834  20.661  0.00  0.00    +0.000 C 
ATOM     11  C   UNL     1       0.587   8.862  20.403  0.00  0.00    +0.000 C 
ATOM     12  C   UNL     1       0.988   9.892  19.349  0.00  0.00    +0.000 C 
ATOM     13  C   UNL     1       1.482   9.225  18.068  0.00  0.00    +0.000 C 
ENDBRANCH   7   8
ENDBRANCH   5   7
ENDBRANCH   1   3
BRANCH   1  14
ATOM     14  O   UNL     1       4.944   3.853  17.089  0.00  0.00    +0.000 OA
BRANCH  14  15
ATOM     15  C   UNL     1       4.813   3.692  18.429  0.00  0.00    +0.000 C 
ATOM     16  O   UNL     1       5.726   3.696  19.243  0.00  0.00    +0.000 OA
BRANCH  15  22
ATOM     17  C   UNL     1       1.451   2.378  21.936  0.00  0.00    +0.000 C 
ATOM     18  C   UNL     1       1.769   2.869  20.551  0.00  0.00    +0.000 A 
ATOM     19  C   UNL     1       0.734   3.154  19.652  0.00  0.00    +0.000 A 
ATOM     20  C   UNL     1       1.018   3.603  18.360  0.00  0.00    +0.000 A 
ATOM     21  C   UNL     1       2.342   3.776  17.953  0.00  0.00    +0.000 A 
ATOM     22  C   UNL     1       3.396   3.503  18.837  0.00  0.00    +0.000 A 
ATOM     23  C   UNL     1       3.099   3.046  20.135  0.00  0.00    +0.000 A 
BRANCH  23  24
ATOM     24  O   UNL     1       4.074   2.750  21.055  0.00  0.00    +0.000 OA
ATOM     25  H   UNL     1       3.650   2.487  21.901  0.00  0.00    +0.000 HD
ENDBRANCH  23  24
ENDBRANCH  15  22
ENDBRANCH  14  15
ENDBRANCH   1  14
TORSDOF 7
ENDMDL
MODEL 5
REMARK VINA RESULT:      -7.3      3.895      7.650
REMARK  Name = 
REMARK  9 active torsions:
REMARK  status: ('A' for Active; 'I' for Inactive)
REMARK    1  A    between atoms: C_1  and  C_2
REMARK    2  A    between atoms: C_6  and  C_7
REMARK    3  A    between atoms: C_7  and  O_9
REMARK    4  A    between atoms: O_9  and  C_10
REMARK    5  A    between atoms: C_10  and  C_11
REMARK    6  A    between atoms: C_10  and  C_12
REMARK    7  A    between atoms: N_14  and  C_15
REMARK    8  A    between atoms: C_15  and  C_16
REMARK    9  A    between atoms: C_22  and  O_23
REMARK                            x       y       z     vdW  Elec       q    Type
REMARK                         _______ _______ _______ _____ _____    ______ ____
ROOT
ATOM      1  C   UNL     1       6.964   6.236  18.560  0.00  0.00    +0.000 C 
ATOM      2  C   UNL     1       8.116   5.398  19.108  0.00  0.00    +0.000 C 
ENDROOT
BRANCH   1   3
ATOM      3  C   UNL     1       7.533   7.420  17.756  0.00  0.00    +0.000 C 
ATOM      4  O   UNL     1       7.511   7.462  16.528  0.00  0.00    +0.000 OA
ATOM      5  N   UNL     1       8.124   8.402  18.523  0.00  0.00    +0.000 N 
ATOM      6  H   UNL     1       8.038   8.335  19.529  0.00  0.00    +0.000 HD
BRANCH   5   7
ATOM      7  C   UNL     1       8.602   9.636  17.935  0.00  0.00    +0.000 C 
BRANCH   7   8
ATOM      8  C   UNL     1       9.700  10.345  18.742  0.00  0.00    +0.000 C 
ATOM      9  C   UNL     1       9.180  11.095  19.977  0.00  0.00    +0.000 C 
ATOM     10  C   UNL     1      10.342  11.667  20.794  0.00  0.00    +0.000 C 
ATOM     11  C   UNL     1      11.276  12.532  19.949  0.00  0.00    +0.000 C 
ATOM     12  C   UNL     1      11.725  11.828  18.671  0.00  0.00    +0.000 C 
ATOM     13  C   UNL     1      10.536  11.294  17.874  0.00  0.00    +0.000 C 
ENDBRANCH   7   8
ENDBRANCH   5   7
ENDBRANCH   1   3
BRANCH   1  14
ATOM     14  O   UNL     1       6.125   5.427  17.715  0.00  0.00    +0.000 OA
BRANCH  14  15
ATOM     15  C   UNL     1       4.793   5.657  17.831  0.00  0.00    +0.000 C 
ATOM     16  O   UNL     1       4.228   6.717  17.602  0.00  0.00    +0.000 OA
BRANCH  15  22
ATOM     17  C   UNL     1       1.794   3.420  21.197  0.00  0.00    +0.000 C 
ATOM     18  C   UNL     1       2.586   3.374  19.921  0.00  0.00    +0.000 A 
ATOM     19  C   UNL     1       2.619   2.201  19.156  0.00  0.00    +0.000 A 
ATOM     20  C   UNL     1       3.359   2.145  17.973  0.00  0.00    +0.000 A 
ATOM     21  C   UNL     1       4.073   3.263  17.537  0.00  0.00    +0.000 A 
ATOM     22  C   UNL     1       4.051   4.450  18.282  0.00  0.00    +0.000 A 
ATOM     23  C   UNL     1       3.307   4.495  19.476  0.00  0.00    +0.000 A 
BRANCH  23  24
ATOM     24  O   UNL     1       3.242   5.618  20.265  0.00  0.00    +0.000 OA
ATOM     25  H   UNL     1       4.150   5.874  20.536  0.00  0.00    +0.000 HD
ENDBRANCH  23  24
ENDBRANCH  15  22
ENDBRANCH  14  15
ENDBRANCH   1  14
TORSDOF 7
ENDMDL
MODEL 6
REMARK VINA RESULT:      -7.3      3.312      6.193
REMARK  Name = 
REMARK  9 active torsions:
REMARK  status: ('A' for Active; 'I' for Inactive)
REMARK    1  A    between atoms: C_1  and  C_2
REMARK    2  A    between atoms: C_6  and  C_7
REMARK    3  A    between atoms: C_7  and  O_9
REMARK    4  A    between atoms: O_9  and  C_10
REMARK    5  A    between atoms: C_10  and  C_11
REMARK    6  A    between atoms: C_10  and  C_12
REMARK    7  A    between atoms: N_14  and  C_15
REMARK    8  A    between atoms: C_15  and  C_16
REMARK    9  A    between atoms: C_22  and  O_23
REMARK                            x       y       z     vdW  Elec       q    Type
REMARK                         _______ _______ _______ _____ _____    ______ ____
ROOT
ATOM      1  C   UNL     1       5.523   6.102  17.211  0.00  0.00    +0.000 C 
ATOM      2  C   UNL     1       4.727   6.966  16.237  0.00  0.00    +0.000 C 
ENDROOT
BRANCH   1   3
ATOM      3  C   UNL     1       4.717   5.923  18.510  0.00  0.00    +0.000 C 
ATOM      4  O   UNL     1       5.189   5.404  19.520  0.00  0.00    +0.000 OA
ATOM      5  N   UNL     1       3.404   6.336  18.431  0.00  0.00    +0.000 N 
ATOM      6  H   UNL     1       3.108   6.820  17.593  0.00  0.00    +0.000 HD
BRANCH   5   7
ATOM      7  C   UNL     1       2.542   6.346  19.595  0.00  0.00    +0.000 C 
BRANCH   7   8
ATOM      8  C   UNL     1       1.781   5.035  19.840  0.00  0.00    +0.000 C 
ATOM      9  C   UNL     1       2.294   4.231  21.043  0.00  0.00    +0.000 C 
ATOM     10  C   UNL     1       1.410   3.007  21.296  0.00  0.00    +0.000 C 
ATOM     11  C   UNL     1       1.252   2.137  20.050  0.00  0.00    +0.000 C 
ATOM     12  C   UNL     1       0.831   2.945  18.824  0.00  0.00    +0.000 C 
ATOM     13  C   UNL     1       1.753   4.141  18.594  0.00  0.00    +0.000 C 
ENDBRANCH   7   8
ENDBRANCH   5   7
ENDBRANCH   1   3
BRANCH   1  14
ATOM     14  O   UNL     1       5.795   4.817  16.621  0.00  0.00    +0.000 OA
BRANCH  14  15
ATOM     15  C   UNL     1       7.059   4.647  16.159  0.00  0.00    +0.000 C 
ATOM     16  O   UNL     1       8.061   4.521  16.848  0.00  0.00    +0.000 OA
BRANCH  15  22
ATOM     17  C   UNL     1       5.506   2.698  11.787  0.00  0.00    +0.000 C 
ATOM     18  C   UNL     1       6.350   3.677  12.553  0.00  0.00    +0.000 A 
ATOM     19  C   UNL     1       7.184   4.571  11.869  0.00  0.00    +0.000 A 
ATOM     20  C   UNL     1       7.979   5.479  12.571  0.00  0.00    +0.000 A 
ATOM     21  C   UNL     1       7.949   5.507  13.967  0.00  0.00    +0.000 A 
ATOM     22  C   UNL     1       7.117   4.626  14.673  0.00  0.00    +0.000 A 
ATOM     23  C   UNL     1       6.324   3.711  13.957  0.00  0.00    +0.000 A 
BRANCH  23  24
ATOM     24  O   UNL     1       5.491   2.812  14.576  0.00  0.00    +0.000 OA
ATOM     25  H   UNL     1       5.336   3.101  15.502  0.00  0.00    +0.000 HD
ENDBRANCH  23  24
ENDBRANCH  15  22
ENDBRANCH  14  15
ENDBRANCH   1  14
TORSDOF 7
ENDMDL
MODEL 7
REMARK VINA RESULT:      -7.2      1.808      6.033
REMARK  Name = 
REMARK  9 active torsions:
REMARK  status: ('A' for Active; 'I' for Inactive)
REMARK    1  A    between atoms: C_1  and  C_2
REMARK    2  A    between atoms: C_6  and  C_7
REMARK    3  A    between atoms: C_7  and  O_9
REMARK    4  A    between atoms: O_9  and  C_10
REMARK    5  A    between atoms: C_10  and  C_11
REMARK    6  A    between atoms: C_10  and  C_12
REMARK    7  A    between atoms: N_14  and  C_15
REMARK    8  A    between atoms: C_15  and  C_16
REMARK    9  A    between atoms: C_22  and  O_23
REMARK                            x       y       z     vdW  Elec       q    Type
REMARK                         _______ _______ _______ _____ _____    ______ ____
ROOT
ATOM      1  C   UNL     1       2.414   4.138  19.704  0.00  0.00    +0.000 C 
ATOM      2  C   UNL     1       2.030   4.655  21.088  0.00  0.00    +0.000 C 
ENDROOT
BRANCH   1   3
ATOM      3  C   UNL     1       2.152   5.238  18.659  0.00  0.00    +0.000 C 
ATOM      4  O   UNL     1       1.534   5.032  17.617  0.00  0.00    +0.000 OA
ATOM      5  N   UNL     1       2.721   6.458  18.956  0.00  0.00    +0.000 N 
ATOM      6  H   UNL     1       3.152   6.573  19.864  0.00  0.00    +0.000 HD
BRANCH   5   7
ATOM      7  C   UNL     1       2.473   7.628  18.139  0.00  0.00    +0.000 C 
BRANCH   7   8
ATOM      8  C   UNL     1       1.830   8.805  18.886  0.00  0.00    +0.000 C 
ATOM      9  C   UNL     1       1.287   8.440  20.275  0.00  0.00    +0.000 C 
ATOM     10  C   UNL     1       0.777   9.687  21.004  0.00  0.00    +0.000 C 
ATOM     11  C   UNL     1      -0.243  10.467  20.177  0.00  0.00    +0.000 C 
ATOM     12  C   UNL     1       0.252  10.754  18.761  0.00  0.00    +0.000 C 
ATOM     13  C   UNL     1       0.728   9.483  18.062  0.00  0.00    +0.000 C 
ENDBRANCH   7   8
ENDBRANCH   5   7
ENDBRANCH   1   3
BRANCH   1  14
ATOM     14  O   UNL     1       3.805   3.765  19.686  0.00  0.00    +0.000 OA
BRANCH  14  15
ATOM     15  C   UNL     1       4.228   3.162  18.548  0.00  0.00    +0.000 C 
ATOM     16  O   UNL     1       3.946   2.025  18.194  0.00  0.00    +0.000 OA
BRANCH  15  22
ATOM     17  C   UNL     1       7.860   6.637  18.313  0.00  0.00    +0.000 C 
ATOM     18  C   UNL     1       6.876   5.729  17.630  0.00  0.00    +0.000 A 
ATOM     19  C   UNL     1       6.788   5.712  16.232  0.00  0.00    +0.000 A 
ATOM     20  C   UNL     1       5.871   4.879  15.588  0.00  0.00    +0.000 A 
ATOM     21  C   UNL     1       5.031   4.050  16.334  0.00  0.00    +0.000 A 
ATOM     22  C   UNL     1       5.104   4.045  17.734  0.00  0.00    +0.000 A 
ATOM     23  C   UNL     1       6.028   4.892  18.374  0.00  0.00    +0.000 A 
BRANCH  23  24
ATOM     24  O   UNL     1       6.153   4.951  19.741  0.00  0.00    +0.000 OA
ATOM     25  H   UNL     1       6.047   4.048  20.113  0.00  0.00    +0.000 HD
ENDBRANCH  23  24
ENDBRANCH  15  22
ENDBRANCH  14  15
ENDBRANCH   1  14
TORSDOF 7
ENDMDL
MODEL 8
REMARK VINA RESULT:      -7.2      1.550      4.734
REMARK  Name = 
REMARK  9 active torsions:
REMARK  status: ('A' for Active; 'I' for Inactive)
REMARK    1  A    between atoms: C_1  and  C_2
REMARK    2  A    between atoms: C_6  and  C_7
REMARK    3  A    between atoms: C_7  and  O_9
REMARK    4  A    between atoms: O_9  and  C_10
REMARK    5  A    between atoms: C_10  and  C_11
REMARK    6  A    between atoms: C_10  and  C_12
REMARK    7  A    between atoms: N_14  and  C_15
REMARK    8  A    between atoms: C_15  and  C_16
REMARK    9  A    between atoms: C_22  and  O_23
REMARK                            x       y       z     vdW  Elec       q    Type
REMARK                         _______ _______ _______ _____ _____    ______ ____
ROOT
ATOM      1  C   UNL     1       1.859   3.359  19.203  0.00  0.00    +0.000 C 
ATOM      2  C   UNL     1       0.806   2.273  19.000  0.00  0.00    +0.000 C 
ENDROOT
BRANCH   1   3
ATOM      3  C   UNL     1       2.684   3.515  17.912  0.00  0.00    +0.000 C 
ATOM      4  O   UNL     1       2.285   3.126  16.816  0.00  0.00    +0.000 OA
ATOM      5  N   UNL     1       3.933   4.071  18.094  0.00  0.00    +0.000 N 
ATOM      6  H   UNL     1       4.162   4.434  19.010  0.00  0.00    +0.000 HD
BRANCH   5   7
ATOM      7  C   UNL     1       4.788   4.396  16.971  0.00  0.00    +0.000 C 
BRANCH   7   8
ATOM      8  C   UNL     1       6.102   5.095  17.350  0.00  0.00    +0.000 C 
ATOM      9  C   UNL     1       6.433   5.032  18.848  0.00  0.00    +0.000 C 
ATOM     10  C   UNL     1       7.812   5.638  19.125  0.00  0.00    +0.000 C 
ATOM     11  C   UNL     1       7.948   7.053  18.567  0.00  0.00    +0.000 C 
ATOM     12  C   UNL     1       7.532   7.143  17.100  0.00  0.00    +0.000 C 
ATOM     13  C   UNL     1       6.142   6.551  16.871  0.00  0.00    +0.000 C 
ENDBRANCH   7   8
ENDBRANCH   5   7
ENDBRANCH   1   3
BRANCH   1  14
ATOM     14  O   UNL     1       1.222   4.607  19.532  0.00  0.00    +0.000 OA
BRANCH  14  15
ATOM     15  C   UNL     1       1.826   5.324  20.512  0.00  0.00    +0.000 C 
ATOM     16  O   UNL     1       2.525   4.867  21.406  0.00  0.00    +0.000 OA
BRANCH  15  22
ATOM     17  C   UNL     1       2.036   9.574  17.826  0.00  0.00    +0.000 C 
ATOM     18  C   UNL     1       1.650   8.840  19.079  0.00  0.00    +0.000 A 
ATOM     19  C   UNL     1       1.026   9.524  20.131  0.00  0.00    +0.000 A 
ATOM     20  C   UNL     1       0.671   8.853  21.303  0.00  0.00    +0.000 A 
ATOM     21  C   UNL     1       0.932   7.488  21.437  0.00  0.00    +0.000 A 
ATOM     22  C   UNL     1       1.550   6.781  20.396  0.00  0.00    +0.000 A 
ATOM     23  C   UNL     1       1.909   7.467  19.221  0.00  0.00    +0.000 A 
BRANCH  23  24
ATOM     24  O   UNL     1       2.524   6.846  18.161  0.00  0.00    +0.000 OA
ATOM     25  H   UNL     1       2.863   7.528  17.541  0.00  0.00    +0.000 HD
ENDBRANCH  23  24
ENDBRANCH  15  22
ENDBRANCH  14  15
ENDBRANCH   1  14
TORSDOF 7
ENDMDL
MODEL 9
REMARK VINA RESULT:      -7.2      1.805      5.803
REMARK  Name = 
REMARK  9 active torsions:
REMARK  status: ('A' for Active; 'I' for Inactive)
REMARK    1  A    between atoms: C_1  and  C_2
REMARK    2  A    between atoms: C_6  and  C_7
REMARK    3  A    between atoms: C_7  and  O_9
REMARK    4  A    between atoms: O_9  and  C_10
REMARK    5  A    between atoms: C_10  and  C_11
REMARK    6  A    between atoms: C_10  and  C_12
REMARK    7  A    between atoms: N_14  and  C_15
REMARK    8  A    between atoms: C_15  and  C_16
REMARK    9  A    between atoms: C_22  and  O_23
REMARK                            x       y       z     vdW  Elec       q    Type
REMARK                         _______ _______ _______ _____ _____    ______ ____
ROOT
ATOM      1  C   UNL     1       2.958   2.763  19.783  0.00  0.00    +0.000 C 
ATOM      2  C   UNL     1       3.423   2.219  21.130  0.00  0.00    +0.000 C 
ENDROOT
BRANCH   1   3
ATOM      3  C   UNL     1       2.011   3.955  20.013  0.00  0.00    +0.000 C 
ATOM      4  O   UNL     1       0.808   3.906  19.770  0.00  0.00    +0.000 OA
ATOM      5  N   UNL     1       2.633   5.103  20.456  0.00  0.00    +0.000 N 
ATOM      6  H   UNL     1       3.613   5.047  20.705  0.00  0.00    +0.000 HD
BRANCH   5   7
ATOM      7  C   UNL     1       1.875   6.278  20.835  0.00  0.00    +0.000 C 
BRANCH   7   8
ATOM      8  C   UNL     1       2.119   7.509  19.950  0.00  0.00    +0.000 C 
ATOM      9  C   UNL     1       1.037   8.591  20.073  0.00  0.00    +0.000 C 
ATOM     10  C   UNL     1       1.414   9.832  19.261  0.00  0.00    +0.000 C 
ATOM     11  C   UNL     1       1.728   9.499  17.803  0.00  0.00    +0.000 C 
ATOM     12  C   UNL     1       2.736   8.360  17.670  0.00  0.00    +0.000 C 
ATOM     13  C   UNL     1       2.310   7.134  18.475  0.00  0.00    +0.000 C 
ENDBRANCH   7   8
ENDBRANCH   5   7
ENDBRANCH   1   3
BRANCH   1  14
ATOM     14  O   UNL     1       4.094   3.182  19.003  0.00  0.00    +0.000 OA
BRANCH  14  15
ATOM     15  C   UNL     1       3.822   3.515  17.716  0.00  0.00    +0.000 C 
ATOM     16  O   UNL     1       2.773   3.294  17.127  0.00  0.00    +0.000 OA
BRANCH  15  22
ATOM     17  C   UNL     1       7.539   6.900  17.920  0.00  0.00    +0.000 C 
ATOM     18  C   UNL     1       6.774   5.846  17.170  0.00  0.00    +0.000 A 
ATOM     19  C   UNL     1       7.139   5.509  15.861  0.00  0.00    +0.000 A 
ATOM     20  C   UNL     1       6.429   4.537  15.153  0.00  0.00    +0.000 A 
ATOM     21  C   UNL     1       5.345   3.887  15.747  0.00  0.00    +0.000 A 
ATOM     22  C   UNL     1       4.964   4.203  17.059  0.00  0.00    +0.000 A 
ATOM     23  C   UNL     1       5.683   5.188  17.762  0.00  0.00    +0.000 A 
BRANCH  23  24
ATOM     24  O   UNL     1       5.366   5.558  19.046  0.00  0.00    +0.000 OA
ATOM     25  H   UNL     1       4.987   6.464  19.036  0.00  0.00    +0.000 HD
ENDBRANCH  23  24
ENDBRANCH  15  22
ENDBRANCH  14  15
ENDBRANCH   1  14
TORSDOF 7
ENDMDL
