MODEL 1
REMARK VINA RESULT:      -7.2      0.000      0.000
REMARK  Name = 
REMARK  2 active torsions:
REMARK  status: ('A' for Active; 'I' for Inactive)
REMARK    1  A    between atoms: N_3  and  C_4
REMARK    2  A    between atoms: N_13  and  C_14
REMARK                            x       y       z     vdW  Elec       q    Type
REMARK                         _______ _______ _______ _____ _____    ______ ____
ROOT
ATOM      1  O   UNL     1       8.620   7.470  18.861  0.00  0.00    +0.000 OA
ATOM      2  C   UNL     1       8.069   8.246  18.097  0.00  0.00    +0.000 C 
ATOM      3  N   UNL     1       7.021   7.964  17.239  0.00  0.00    +0.000 N 
ATOM      4  N   UNL     1       8.431   9.574  17.976  0.00  0.00    +0.000 N 
ATOM      5  H   UNL     1       6.828   8.674  16.551  0.00  0.00    +0.000 HD
ATOM      6  H   UNL     1       7.936  10.131  17.300  0.00  0.00    +0.000 HD
ENDROOT
BRANCH   3   7
ATOM      7  C   UNL     1       6.307   6.759  17.078  0.00  0.00    +0.000 A 
ATOM      8  C   UNL     1       6.787   5.652  16.355  0.00  0.00    +0.000 A 
ATOM      9  C   UNL     1       6.007   4.492  16.218  0.00  0.00    +0.000 A 
ATOM     10  C   UNL     1       4.755   4.477  16.795  0.00  0.00    +0.000 A 
ATOM     11  C   UNL     1       4.292   5.548  17.518  0.00  0.00    +0.000 A 
ATOM     12  C   UNL     1       5.046   6.688  17.694  0.00  0.00    +0.000 A 
ATOM     13  O   UNL     1       3.034   5.345  17.999  0.00  0.00    +0.000 OA
ATOM     14  C   UNL     1       2.724   4.068  17.402  0.00  0.00    +0.000 C 
ATOM     15  O   UNL     1       3.849   3.466  16.729  0.00  0.00    +0.000 OA
ENDBRANCH   3   7
BRANCH   4  16
ATOM     16  C   UNL     1       9.570  10.211  18.646  0.00  0.00    +0.000 C 
ATOM     17  C   UNL     1      10.075  11.415  17.836  0.00  0.00    +0.000 C 
ATOM     18  C   UNL     1       9.077  12.571  17.763  0.00  0.00    +0.000 C 
ATOM     19  C   UNL     1       9.241  13.588  18.888  0.00  0.00    +0.000 C 
ATOM     20  C   UNL     1       8.972  13.075  20.300  0.00  0.00    +0.000 C 
ATOM     21  C   UNL     1       9.728  11.811  20.715  0.00  0.00    +0.000 C 
ATOM     22  C   UNL     1       9.164  10.532  20.097  0.00  0.00    +0.000 C 
ENDBRANCH   4  16
TORSDOF 2
ENDMDL
MODEL 2
REMARK VINA RESULT:      -7.0      1.087      1.097
REMARK  Name = 
REMARK  2 active torsions:
REMARK  status: ('A' for Active; 'I' for Inactive)
REMARK    1  A    between atoms: N_3  and  C_4
REMARK    2  A    between atoms: N_13  and  C_14
REMARK                            x       y       z     vdW  Elec       q    Type
REMARK                         _______ _______ _______ _____ _____    ______ ____
ROOT
ATOM      1  O   UNL     1       8.655   7.459  18.905  0.00  0.00    +0.000 OA
ATOM      2  C   UNL     1       8.065   8.217  18.152  0.00  0.00    +0.000 C 
ATOM      3  N   UNL     1       6.988   7.909  17.339  0.00  0.00    +0.000 N 
ATOM      4  N   UNL     1       8.403   9.548  17.998  0.00  0.00    +0.000 N 
ATOM      5  H   UNL     1       6.760   8.605  16.649  0.00  0.00    +0.000 HD
ATOM      6  H   UNL     1       7.875  10.088  17.334  0.00  0.00    +0.000 HD
ENDROOT
BRANCH   3   7
ATOM      7  C   UNL     1       6.285   6.692  17.224  0.00  0.00    +0.000 A 
ATOM      8  C   UNL     1       5.679   6.245  16.036  0.00  0.00    +0.000 A 
ATOM      9  C   UNL     1       4.973   5.031  16.003  0.00  0.00    +0.000 A 
ATOM     10  C   UNL     1       4.879   4.302  17.170  0.00  0.00    +0.000 A 
ATOM     11  C   UNL     1       5.486   4.725  18.325  0.00  0.00    +0.000 A 
ATOM     12  C   UNL     1       6.209   5.897  18.380  0.00  0.00    +0.000 A 
ATOM     13  O   UNL     1       5.271   3.875  19.367  0.00  0.00    +0.000 OA
ATOM     14  C   UNL     1       4.368   2.928  18.756  0.00  0.00    +0.000 C 
ATOM     15  O   UNL     1       4.203   3.134  17.337  0.00  0.00    +0.000 OA
ENDBRANCH   3   7
BRANCH   4  16
ATOM     16  C   UNL     1       9.558  10.210  18.614  0.00  0.00    +0.000 C 
ATOM     17  C   UNL     1       9.983  11.438  17.796  0.00  0.00    +0.000 C 
ATOM     18  C   UNL     1       8.950  12.565  17.794  0.00  0.00    +0.000 C 
ATOM     19  C   UNL     1       9.145  13.572  18.922  0.00  0.00    +0.000 C 
ATOM     20  C   UNL     1       8.968  13.033  20.339  0.00  0.00    +0.000 C 
ATOM     21  C   UNL     1       9.783  11.788  20.695  0.00  0.00    +0.000 C 
ATOM     22  C   UNL     1       9.223  10.500  20.090  0.00  0.00    +0.000 C 
ENDBRANCH   4  16
TORSDOF 2
ENDMDL
MODEL 3
REMARK VINA RESULT:      -6.9      6.053      9.176
REMARK  Name = 
REMARK  2 active torsions:
REMARK  status: ('A' for Active; 'I' for Inactive)
REMARK    1  A    between atoms: N_3  and  C_4
REMARK    2  A    between atoms: N_13  and  C_14
REMARK                            x       y       z     vdW  Elec       q    Type
REMARK                         _______ _______ _______ _____ _____    ______ ____
ROOT
ATOM      1  O   UNL     1       2.459   7.488  18.506  0.00  0.00    +0.000 OA
ATOM      2  C   UNL     1       2.457   7.021  19.633  0.00  0.00    +0.000 C 
ATOM      3  N   UNL     1       1.835   7.550  20.750  0.00  0.00    +0.000 N 
ATOM      4  N   UNL     1       3.103   5.847  19.968  0.00  0.00    +0.000 N 
ATOM      5  H   UNL     1       2.102   7.134  21.626  0.00  0.00    +0.000 HD
ATOM      6  H   UNL     1       3.067   5.554  20.929  0.00  0.00    +0.000 HD
ENDROOT
BRANCH   3   7
ATOM      7  C   UNL     1       1.022   8.698  20.851  0.00  0.00    +0.000 A 
ATOM      8  C   UNL     1       0.708   9.536  19.765  0.00  0.00    +0.000 A 
ATOM      9  C   UNL     1      -0.090  10.678  19.948  0.00  0.00    +0.000 A 
ATOM     10  C   UNL     1      -0.539  10.961  21.220  0.00  0.00    +0.000 A 
ATOM     11  C   UNL     1      -0.251  10.135  22.278  0.00  0.00    +0.000 A 
ATOM     12  C   UNL     1       0.505   8.993  22.124  0.00  0.00    +0.000 A 
ATOM     13  O   UNL     1      -0.776  10.589  23.450  0.00  0.00    +0.000 OA
ATOM     14  C   UNL     1      -1.332  11.850  23.021  0.00  0.00    +0.000 C 
ATOM     15  O   UNL     1      -1.280  12.039  21.591  0.00  0.00    +0.000 OA
ENDBRANCH   3   7
BRANCH   4  16
ATOM     16  C   UNL     1       3.958   5.060  19.072  0.00  0.00    +0.000 C 
ATOM     17  C   UNL     1       4.436   3.775  19.765  0.00  0.00    +0.000 C 
ATOM     18  C   UNL     1       3.313   2.782  20.066  0.00  0.00    +0.000 C 
ATOM     19  C   UNL     1       3.071   1.778  18.943  0.00  0.00    +0.000 C 
ATOM     20  C   UNL     1       2.584   2.359  17.619  0.00  0.00    +0.000 C 
ATOM     21  C   UNL     1       3.416   3.503  17.035  0.00  0.00    +0.000 C 
ATOM     22  C   UNL     1       3.203   4.838  17.748  0.00  0.00    +0.000 C 
ENDBRANCH   4  16
TORSDOF 2
ENDMDL
MODEL 4
REMARK VINA RESULT:      -6.8      1.564      2.104
REMARK  Name = 
REMARK  2 active torsions:
REMARK  status: ('A' for Active; 'I' for Inactive)
REMARK    1  A    between atoms: N_3  and  C_4
REMARK    2  A    between atoms: N_13  and  C_14
REMARK                            x       y       z     vdW  Elec       q    Type
REMARK                         _______ _______ _______ _____ _____    ______ ____
ROOT
ATOM      1  O   UNL     1       7.083   9.174  17.134  0.00  0.00    +0.000 OA
ATOM      2  C   UNL     1       7.918   8.682  17.875  0.00  0.00    +0.000 C 
ATOM      3  N   UNL     1       7.985   7.364  18.291  0.00  0.00    +0.000 N 
ATOM      4  N   UNL     1       8.960   9.401  18.427  0.00  0.00    +0.000 N 
ATOM      5  H   UNL     1       8.624   7.186  19.049  0.00  0.00    +0.000 HD
ATOM      6  H   UNL     1       9.584   8.915  19.047  0.00  0.00    +0.000 HD
ENDROOT
BRANCH   3   7
ATOM      7  C   UNL     1       7.163   6.277  17.927  0.00  0.00    +0.000 A 
ATOM      8  C   UNL     1       7.035   5.795  16.612  0.00  0.00    +0.000 A 
ATOM      9  C   UNL     1       6.176   4.722  16.322  0.00  0.00    +0.000 A 
ATOM     10  C   UNL     1       5.453   4.169  17.357  0.00  0.00    +0.000 A 
ATOM     11  C   UNL     1       5.591   4.624  18.645  0.00  0.00    +0.000 A 
ATOM     12  C   UNL     1       6.446   5.656  18.964  0.00  0.00    +0.000 A 
ATOM     13  O   UNL     1       4.788   3.958  19.520  0.00  0.00    +0.000 OA
ATOM     14  C   UNL     1       4.054   3.108  18.614  0.00  0.00    +0.000 C 
ATOM     15  O   UNL     1       4.547   3.161  17.258  0.00  0.00    +0.000 OA
ENDBRANCH   3   7
BRANCH   4  16
ATOM     16  C   UNL     1       9.156  10.850  18.301  0.00  0.00    +0.000 C 
ATOM     17  C   UNL     1       8.884  11.555  19.638  0.00  0.00    +0.000 C 
ATOM     18  C   UNL     1       9.890  11.206  20.735  0.00  0.00    +0.000 C 
ATOM     19  C   UNL     1      11.091  12.144  20.782  0.00  0.00    +0.000 C 
ATOM     20  C   UNL     1      11.999  12.130  19.555  0.00  0.00    +0.000 C 
ATOM     21  C   UNL     1      11.313  12.336  18.203  0.00  0.00    +0.000 C 
ATOM     22  C   UNL     1      10.556  11.103  17.709  0.00  0.00    +0.000 C 
ENDBRANCH   4  16
TORSDOF 2
ENDMDL
MODEL 5
REMARK VINA RESULT:      -6.7      2.536      8.189
REMARK  Name = 
REMARK  2 active torsions:
REMARK  status: ('A' for Active; 'I' for Inactive)
REMARK    1  A    between atoms: N_3  and  C_4
REMARK    2  A    between atoms: N_13  and  C_14
REMARK                            x       y       z     vdW  Elec       q    Type
REMARK                         _______ _______ _______ _____ _____    ______ ____
ROOT
ATOM      1  O   UNL     1       7.772   9.208  17.160  0.00  0.00    +0.000 OA
ATOM      2  C   UNL     1       8.208   8.594  18.120  0.00  0.00    +0.000 C 
ATOM      3  N   UNL     1       8.995   9.098  19.141  0.00  0.00    +0.000 N 
ATOM      4  N   UNL     1       7.968   7.251  18.333  0.00  0.00    +0.000 N 
ATOM      5  H   UNL     1       9.417   8.406  19.738  0.00  0.00    +0.000 HD
ATOM      6  H   UNL     1       8.392   6.825  19.140  0.00  0.00    +0.000 HD
ENDROOT
BRANCH   3   7
ATOM      7  C   UNL     1       9.429  10.423  19.353  0.00  0.00    +0.000 A 
ATOM      8  C   UNL     1       9.447  11.052  20.611  0.00  0.00    +0.000 A 
ATOM      9  C   UNL     1       9.870  12.385  20.741  0.00  0.00    +0.000 A 
ATOM     10  C   UNL     1      10.249  13.061  19.602  0.00  0.00    +0.000 A 
ATOM     11  C   UNL     1      10.252  12.445  18.375  0.00  0.00    +0.000 A 
ATOM     12  C   UNL     1       9.869  11.130  18.221  0.00  0.00    +0.000 A 
ATOM     13  O   UNL     1      10.650  13.279  17.375  0.00  0.00    +0.000 OA
ATOM     14  C   UNL     1      10.791  14.518  18.102  0.00  0.00    +0.000 C 
ATOM     15  O   UNL     1      10.644  14.360  19.529  0.00  0.00    +0.000 OA
ENDBRANCH   3   7
BRANCH   4  16
ATOM     16  C   UNL     1       7.263   6.354  17.409  0.00  0.00    +0.000 C 
ATOM     17  C   UNL     1       7.134   4.946  18.009  0.00  0.00    +0.000 C 
ATOM     18  C   UNL     1       6.233   4.882  19.243  0.00  0.00    +0.000 C 
ATOM     19  C   UNL     1       4.772   4.595  18.916  0.00  0.00    +0.000 C 
ATOM     20  C   UNL     1       4.048   5.661  18.096  0.00  0.00    +0.000 C 
ATOM     21  C   UNL     1       4.729   6.092  16.796  0.00  0.00    +0.000 C 
ATOM     22  C   UNL     1       5.929   7.014  17.013  0.00  0.00    +0.000 C 
ENDBRANCH   4  16
TORSDOF 2
ENDMDL
MODEL 6
REMARK VINA RESULT:      -6.7      5.649      9.073
REMARK  Name = 
REMARK  2 active torsions:
REMARK  status: ('A' for Active; 'I' for Inactive)
REMARK    1  A    between atoms: N_3  and  C_4
REMARK    2  A    between atoms: N_13  and  C_14
REMARK                            x       y       z     vdW  Elec       q    Type
REMARK                         _______ _______ _______ _____ _____    ______ ____
ROOT
ATOM      1  O   UNL     1       1.568   8.106  20.453  0.00  0.00    +0.000 OA
ATOM      2  C   UNL     1       1.906   8.107  19.281  0.00  0.00    +0.000 C 
ATOM      3  N   UNL     1       1.625   9.079  18.336  0.00  0.00    +0.000 N 
ATOM      4  N   UNL     1       2.649   7.095  18.704  0.00  0.00    +0.000 N 
ATOM      5  H   UNL     1       1.817   8.819  17.383  0.00  0.00    +0.000 HD
ATOM      6  H   UNL     1       2.858   7.172  17.723  0.00  0.00    +0.000 HD
ENDROOT
BRANCH   3   7
ATOM      7  C   UNL     1       0.947  10.305  18.502  0.00  0.00    +0.000 A 
ATOM      8  C   UNL     1      -0.454  10.432  18.519  0.00  0.00    +0.000 A 
ATOM      9  C   UNL     1      -1.058  11.691  18.663  0.00  0.00    +0.000 A 
ATOM     10  C   UNL     1      -0.241  12.797  18.769  0.00  0.00    +0.000 A 
ATOM     11  C   UNL     1       1.126  12.675  18.773  0.00  0.00    +0.000 A 
ATOM     12  C   UNL     1       1.747  11.450  18.661  0.00  0.00    +0.000 A 
ATOM     13  O   UNL     1       1.755  13.878  18.877  0.00  0.00    +0.000 OA
ATOM     14  C   UNL     1       0.624  14.774  18.830  0.00  0.00    +0.000 C 
ATOM     15  O   UNL     1      -0.646  14.091  18.871  0.00  0.00    +0.000 OA
ENDBRANCH   3   7
BRANCH   4  16
ATOM     16  C   UNL     1       3.042   5.845  19.365  0.00  0.00    +0.000 C 
ATOM     17  C   UNL     1       1.941   4.784  19.223  0.00  0.00    +0.000 C 
ATOM     18  C   UNL     1       1.719   4.314  17.785  0.00  0.00    +0.000 C 
ATOM     19  C   UNL     1       2.570   3.108  17.402  0.00  0.00    +0.000 C 
ATOM     20  C   UNL     1       4.081   3.329  17.394  0.00  0.00    +0.000 C 
ATOM     21  C   UNL     1       4.683   3.924  18.668  0.00  0.00    +0.000 C 
ATOM     22  C   UNL     1       4.422   5.423  18.825  0.00  0.00    +0.000 C 
ENDBRANCH   4  16
TORSDOF 2
ENDMDL
MODEL 7
REMARK VINA RESULT:      -6.7      6.197      9.451
REMARK  Name = 
REMARK  2 active torsions:
REMARK  status: ('A' for Active; 'I' for Inactive)
REMARK    1  A    between atoms: N_3  and  C_4
REMARK    2  A    between atoms: N_13  and  C_14
REMARK                            x       y       z     vdW  Elec       q    Type
REMARK                         _______ _______ _______ _____ _____    ______ ____
ROOT
ATOM      1  O   UNL     1       1.880   8.141  18.933  0.00  0.00    +0.000 OA
ATOM      2  C   UNL     1       1.972   7.473  19.950  0.00  0.00    +0.000 C 
ATOM      3  N   UNL     1       1.532   7.820  21.215  0.00  0.00    +0.000 N 
ATOM      4  N   UNL     1       2.553   6.220  19.983  0.00  0.00    +0.000 N 
ATOM      5  H   UNL     1       1.865   7.232  21.961  0.00  0.00    +0.000 HD
ATOM      6  H   UNL     1       2.607   5.756  20.874  0.00  0.00    +0.000 HD
ENDROOT
BRANCH   3   7
ATOM      7  C   UNL     1       0.835   8.976  21.624  0.00  0.00    +0.000 A 
ATOM      8  C   UNL     1      -0.069   9.007  22.701  0.00  0.00    +0.000 A 
ATOM      9  C   UNL     1      -0.747  10.192  23.035  0.00  0.00    +0.000 A 
ATOM     10  C   UNL     1      -0.513  11.313  22.268  0.00  0.00    +0.000 A 
ATOM     11  C   UNL     1       0.384  11.291  21.229  0.00  0.00    +0.000 A 
ATOM     12  C   UNL     1       1.083  10.152  20.896  0.00  0.00    +0.000 A 
ATOM     13  O   UNL     1       0.468  12.491  20.590  0.00  0.00    +0.000 OA
ATOM     14  C   UNL     1      -0.559  13.233  21.281  0.00  0.00    +0.000 C 
ATOM     15  O   UNL     1      -1.107  12.527  22.414  0.00  0.00    +0.000 OA
ENDBRANCH   3   7
BRANCH   4  16
ATOM     16  C   UNL     1       3.229   5.564  18.858  0.00  0.00    +0.000 C 
ATOM     17  C   UNL     1       4.280   4.563  19.361  0.00  0.00    +0.000 C 
ATOM     18  C   UNL     1       3.685   3.365  20.101  0.00  0.00    +0.000 C 
ATOM     19  C   UNL     1       3.372   2.182  19.191  0.00  0.00    +0.000 C 
ATOM     20  C   UNL     1       2.298   2.418  18.132  0.00  0.00    +0.000 C 
ATOM     21  C   UNL     1       2.490   3.643  17.236  0.00  0.00    +0.000 C 
ATOM     22  C   UNL     1       2.156   4.964  17.929  0.00  0.00    +0.000 C 
ENDBRANCH   4  16
TORSDOF 2
ENDMDL
MODEL 8
REMARK VINA RESULT:      -6.7      6.021      9.201
REMARK  Name = 
REMARK  2 active torsions:
REMARK  status: ('A' for Active; 'I' for Inactive)
REMARK    1  A    between atoms: N_3  and  C_4
REMARK    2  A    between atoms: N_13  and  C_14
REMARK                            x       y       z     vdW  Elec       q    Type
REMARK                         _______ _______ _______ _____ _____    ______ ____
ROOT
ATOM      1  O   UNL     1       1.304   7.476  21.227  0.00  0.00    +0.000 OA
ATOM      2  C   UNL     1       1.697   7.794  20.116  0.00  0.00    +0.000 C 
ATOM      3  N   UNL     1       1.381   8.949  19.422  0.00  0.00    +0.000 N 
ATOM      4  N   UNL     1       2.550   7.012  19.361  0.00  0.00    +0.000 N 
ATOM      5  H   UNL     1       1.640   8.948  18.450  0.00  0.00    +0.000 HD
ATOM      6  H   UNL     1       2.798   7.345  18.446  0.00  0.00    +0.000 HD
ENDROOT
BRANCH   3   7
ATOM      7  C   UNL     1       0.595  10.044  19.836  0.00  0.00    +0.000 A 
ATOM      8  C   UNL     1       0.946  10.910  20.888  0.00  0.00    +0.000 A 
ATOM      9  C   UNL     1       0.099  11.966  21.260  0.00  0.00    +0.000 A 
ATOM     10  C   UNL     1      -1.090  12.118  20.579  0.00  0.00    +0.000 A 
ATOM     11  C   UNL     1      -1.426  11.288  19.539  0.00  0.00    +0.000 A 
ATOM     12  C   UNL     1      -0.602  10.261  19.133  0.00  0.00    +0.000 A 
ATOM     13  O   UNL     1      -2.639  11.594  19.001  0.00  0.00    +0.000 OA
ATOM     14  C   UNL     1      -3.070  12.642  19.895  0.00  0.00    +0.000 C 
ATOM     15  O   UNL     1      -2.047  13.051  20.828  0.00  0.00    +0.000 OA
ENDBRANCH   3   7
BRANCH   4  16
ATOM     16  C   UNL     1       3.015   5.667  19.721  0.00  0.00    +0.000 C 
ATOM     17  C   UNL     1       1.968   4.609  19.340  0.00  0.00    +0.000 C 
ATOM     18  C   UNL     1       1.756   4.467  17.833  0.00  0.00    +0.000 C 
ATOM     19  C   UNL     1       2.664   3.426  17.186  0.00  0.00    +0.000 C 
ATOM     20  C   UNL     1       4.160   3.724  17.230  0.00  0.00    +0.000 C 
ATOM     21  C   UNL     1       4.745   4.045  18.607  0.00  0.00    +0.000 C 
ATOM     22  C   UNL     1       4.408   5.452  19.100  0.00  0.00    +0.000 C 
ENDBRANCH   4  16
TORSDOF 2
ENDMDL
MODEL 9
REMARK VINA RESULT:      -6.6      5.953      9.215
REMARK  Name = 
REMARK  2 active torsions:
REMARK  status: ('A' for Active; 'I' for Inactive)
REMARK    1  A    between atoms: N_3  and  C_4
REMARK    2  A    between atoms: N_13  and  C_14
REMARK                            x       y       z     vdW  Elec       q    Type
REMARK                         _______ _______ _______ _____ _____    ______ ____
ROOT
ATOM      1  O   UNL     1       1.310   7.632  21.015  0.00  0.00    +0.000 OA
ATOM      2  C   UNL     1       1.694   7.902  19.889  0.00  0.00    +0.000 C 
ATOM      3  N   UNL     1       1.345   9.009  19.136  0.00  0.00    +0.000 N 
ATOM      4  N   UNL     1       2.570   7.107  19.175  0.00  0.00    +0.000 N 
ATOM      5  H   UNL     1       1.605   8.965  18.164  0.00  0.00    +0.000 HD
ATOM      6  H   UNL     1       2.808   7.398  18.243  0.00  0.00    +0.000 HD
ENDROOT
BRANCH   3   7
ATOM      7  C   UNL     1       0.527  10.102  19.492  0.00  0.00    +0.000 A 
ATOM      8  C   UNL     1      -0.703  10.396  18.876  0.00  0.00    +0.000 A 
ATOM      9  C   UNL     1      -1.451  11.518  19.269  0.00  0.00    +0.000 A 
ATOM     10  C   UNL     1      -0.939  12.327  20.260  0.00  0.00    +0.000 A 
ATOM     11  C   UNL     1       0.252  12.032  20.877  0.00  0.00    +0.000 A 
ATOM     12  C   UNL     1       0.994  10.923  20.532  0.00  0.00    +0.000 A 
ATOM     13  O   UNL     1       0.591  12.954  21.820  0.00  0.00    +0.000 OA
ATOM     14  C   UNL     1      -0.470  13.917  21.645  0.00  0.00    +0.000 C 
ATOM     15  O   UNL     1      -1.498  13.472  20.735  0.00  0.00    +0.000 OA
ENDBRANCH   3   7
BRANCH   4  16
ATOM     16  C   UNL     1       3.073   5.797  19.605  0.00  0.00    +0.000 C 
ATOM     17  C   UNL     1       2.033   4.699  19.338  0.00  0.00    +0.000 C 
ATOM     18  C   UNL     1       1.763   4.452  17.854  0.00  0.00    +0.000 C 
ATOM     19  C   UNL     1       2.664   3.384  17.242  0.00  0.00    +0.000 C 
ATOM     20  C   UNL     1       4.155   3.708  17.205  0.00  0.00    +0.000 C 
ATOM     21  C   UNL     1       4.788   4.130  18.532  0.00  0.00    +0.000 C 
ATOM     22  C   UNL     1       4.445   5.563  18.943  0.00  0.00    +0.000 C 
ENDBRANCH   4  16
TORSDOF 2
ENDMDL
