MODEL 1
REMARK VINA RESULT:      -7.6      0.000      0.000
REMARK  Name = 
REMARK  5 active torsions:
REMARK  status: ('A' for Active; 'I' for Inactive)
REMARK    1  A    between atoms: C_1  and  C_2
REMARK    2  A    between atoms: C_5  and  C_6
REMARK    3  A    between atoms: C_11  and  O_12
REMARK    4  A    between atoms: C_17  and  C_18
REMARK    5  A    between atoms: C_18  and  O_20
REMARK                            x       y       z     vdW  Elec       q    Type
REMARK                         _______ _______ _______ _____ _____    ______ ____
ROOT
ATOM      1  C   UNL     1       4.436   4.686  17.230  0.00  0.00    +0.000 A 
ATOM      2  C   UNL     1       3.935   5.912  17.689  0.00  0.00    +0.000 A 
ATOM      3  C   UNL     1       2.989   5.969  18.712  0.00  0.00    +0.000 A 
ATOM      4  C   UNL     1       2.484   4.796  19.281  0.00  0.00    +0.000 A 
ATOM      5  C   UNL     1       2.992   3.548  18.872  0.00  0.00    +0.000 A 
ATOM      6  C   UNL     1       3.969   3.512  17.856  0.00  0.00    +0.000 A 
ATOM      7  C   UNL     1       2.445   2.269  19.464  0.00  0.00    +0.000 C 
ATOM      8  C   UNL     1       1.667   2.470  20.760  0.00  0.00    +0.000 C 
ATOM      9  C   UNL     1       0.681   3.619  20.610  0.00  0.00    +0.000 C 
ATOM     10  C   UNL     1       1.436   4.920  20.361  0.00  0.00    +0.000 C 
ENDROOT
BRANCH   1  15
ATOM     11  C   UNL     1       7.890   5.246  13.427  0.00  0.00    +0.000 C 
ATOM     12  C   UNL     1       6.764   4.897  14.328  0.00  0.00    +0.000 A 
ATOM     13  C   UNL     1       5.677   4.138  13.957  0.00  0.00    +0.000 A 
ATOM     14  O   UNL     1       4.802   4.026  14.972  0.00  0.00    +0.000 OA
ATOM     15  C   UNL     1       5.331   4.656  16.064  0.00  0.00    +0.000 A 
ATOM     16  C   UNL     1       6.567   5.203  15.731  0.00  0.00    +0.000 A 
BRANCH  16  17
ATOM     17  C   UNL     1       7.430   5.916  16.661  0.00  0.00    +0.000 C 
ATOM     18  O   UNL     1       7.748   7.090  16.550  0.00  0.00    +0.000 OA
BRANCH  17  19
ATOM     19  O   UNL     1       7.907   5.164  17.690  0.00  0.00    +0.000 OA
ATOM     20  H   UNL     1       8.473   4.437  17.384  0.00  0.00    +0.000 HD
ENDBRANCH  17  19
ENDBRANCH  16  17
ENDBRANCH   1  15
BRANCH   6  21
ATOM     21  O   UNL     1       4.499   2.304  17.471  0.00  0.00    +0.000 OA
ATOM     22  H   UNL     1       3.837   1.611  17.609  0.00  0.00    +0.000 HD
ENDBRANCH   6  21
TORSDOF 4
ENDMDL
MODEL 2
REMARK VINA RESULT:      -7.5      0.893      1.159
REMARK  Name = 
REMARK  5 active torsions:
REMARK  status: ('A' for Active; 'I' for Inactive)
REMARK    1  A    between atoms: C_1  and  C_2
REMARK    2  A    between atoms: C_5  and  C_6
REMARK    3  A    between atoms: C_11  and  O_12
REMARK    4  A    between atoms: C_17  and  C_18
REMARK    5  A    between atoms: C_18  and  O_20
REMARK                            x       y       z     vdW  Elec       q    Type
REMARK                         _______ _______ _______ _____ _____    ______ ____
ROOT
ATOM      1  C   UNL     1       4.227   4.574  17.468  0.00  0.00    +0.000 A 
ATOM      2  C   UNL     1       3.033   5.300  17.354  0.00  0.00    +0.000 A 
ATOM      3  C   UNL     1       2.019   5.179  18.304  0.00  0.00    +0.000 A 
ATOM      4  C   UNL     1       2.153   4.296  19.379  0.00  0.00    +0.000 A 
ATOM      5  C   UNL     1       3.354   3.579  19.547  0.00  0.00    +0.000 A 
ATOM      6  C   UNL     1       4.378   3.735  18.591  0.00  0.00    +0.000 A 
ATOM      7  C   UNL     1       3.509   2.605  20.694  0.00  0.00    +0.000 C 
ATOM      8  C   UNL     1       2.486   2.795  21.809  0.00  0.00    +0.000 C 
ATOM      9  C   UNL     1       1.088   2.931  21.224  0.00  0.00    +0.000 C 
ATOM     10  C   UNL     1       1.009   4.182  20.357  0.00  0.00    +0.000 C 
ENDROOT
BRANCH   1  15
ATOM     11  C   UNL     1       7.950   5.428  13.987  0.00  0.00    +0.000 C 
ATOM     12  C   UNL     1       6.774   4.991  14.781  0.00  0.00    +0.000 A 
ATOM     13  C   UNL     1       5.769   4.182  14.302  0.00  0.00    +0.000 A 
ATOM     14  O   UNL     1       4.820   3.994  15.236  0.00  0.00    +0.000 OA
ATOM     15  C   UNL     1       5.216   4.625  16.383  0.00  0.00    +0.000 A 
ATOM     16  C   UNL     1       6.442   5.250  16.168  0.00  0.00    +0.000 A 
BRANCH  16  17
ATOM     17  C   UNL     1       7.180   5.987  17.183  0.00  0.00    +0.000 C 
ATOM     18  O   UNL     1       7.577   5.508  18.234  0.00  0.00    +0.000 OA
BRANCH  17  19
ATOM     19  O   UNL     1       7.390   7.300  16.897  0.00  0.00    +0.000 OA
ATOM     20  H   UNL     1       6.916   7.584  16.098  0.00  0.00    +0.000 HD
ENDBRANCH  17  19
ENDBRANCH  16  17
ENDBRANCH   1  15
BRANCH   6  21
ATOM     21  O   UNL     1       5.568   3.069  18.760  0.00  0.00    +0.000 OA
ATOM     22  H   UNL     1       5.473   2.434  19.485  0.00  0.00    +0.000 HD
ENDBRANCH   6  21
TORSDOF 4
ENDMDL
MODEL 3
REMARK VINA RESULT:      -7.4      3.683      5.924
REMARK  Name = 
REMARK  5 active torsions:
REMARK  status: ('A' for Active; 'I' for Inactive)
REMARK    1  A    between atoms: C_1  and  C_2
REMARK    2  A    between atoms: C_5  and  C_6
REMARK    3  A    between atoms: C_11  and  O_12
REMARK    4  A    between atoms: C_17  and  C_18
REMARK    5  A    between atoms: C_18  and  O_20
REMARK                            x       y       z     vdW  Elec       q    Type
REMARK                         _______ _______ _______ _____ _____    ______ ____
ROOT
ATOM      1  C   UNL     1       2.687   6.974  19.026  0.00  0.00    +0.000 A 
ATOM      2  C   UNL     1       2.751   7.782  17.883  0.00  0.00    +0.000 A 
ATOM      3  C   UNL     1       2.063   8.993  17.812  0.00  0.00    +0.000 A 
ATOM      4  C   UNL     1       1.255   9.415  18.872  0.00  0.00    +0.000 A 
ATOM      5  C   UNL     1       1.196   8.647  20.053  0.00  0.00    +0.000 A 
ATOM      6  C   UNL     1       1.921   7.440  20.115  0.00  0.00    +0.000 A 
ATOM      7  C   UNL     1       0.313   9.079  21.202  0.00  0.00    +0.000 C 
ATOM      8  C   UNL     1      -0.126  10.537  21.131  0.00  0.00    +0.000 C 
ATOM      9  C   UNL     1      -0.627  10.869  19.733  0.00  0.00    +0.000 C 
ATOM     10  C   UNL     1       0.507  10.717  18.726  0.00  0.00    +0.000 C 
ENDROOT
BRANCH   1  15
ATOM     11  C   UNL     1       4.219   2.046  19.306  0.00  0.00    +0.000 C 
ATOM     12  C   UNL     1       4.072   3.519  19.193  0.00  0.00    +0.000 A 
ATOM     13  C   UNL     1       5.124   4.406  19.165  0.00  0.00    +0.000 A 
ATOM     14  O   UNL     1       4.680   5.673  19.100  0.00  0.00    +0.000 OA
ATOM     15  C   UNL     1       3.316   5.646  19.016  0.00  0.00    +0.000 A 
ATOM     16  C   UNL     1       2.876   4.325  19.048  0.00  0.00    +0.000 A 
BRANCH  16  17
ATOM     17  C   UNL     1       1.483   3.917  18.943  0.00  0.00    +0.000 C 
ATOM     18  O   UNL     1       0.963   3.485  17.926  0.00  0.00    +0.000 OA
BRANCH  17  19
ATOM     19  O   UNL     1       0.753   4.077  20.080  0.00  0.00    +0.000 OA
ATOM     20  H   UNL     1       0.638   5.013  20.316  0.00  0.00    +0.000 HD
ENDBRANCH  17  19
ENDBRANCH  16  17
ENDBRANCH   1  15
BRANCH   6  21
ATOM     21  O   UNL     1       1.901   6.698  21.271  0.00  0.00    +0.000 OA
ATOM     22  H   UNL     1       2.778   6.311  21.412  0.00  0.00    +0.000 HD
ENDBRANCH   6  21
TORSDOF 4
ENDMDL
MODEL 4
REMARK VINA RESULT:      -7.4      3.258      4.554
REMARK  Name = 
REMARK  5 active torsions:
REMARK  status: ('A' for Active; 'I' for Inactive)
REMARK    1  A    between atoms: C_1  and  C_2
REMARK    2  A    between atoms: C_5  and  C_6
REMARK    3  A    between atoms: C_11  and  O_12
REMARK    4  A    between atoms: C_17  and  C_18
REMARK    5  A    between atoms: C_18  and  O_20
REMARK                            x       y       z     vdW  Elec       q    Type
REMARK                         _______ _______ _______ _____ _____    ______ ____
ROOT
ATOM      1  C   UNL     1       2.718   7.184  18.411  0.00  0.00    +0.000 A 
ATOM      2  C   UNL     1       2.442   8.260  17.554  0.00  0.00    +0.000 A 
ATOM      3  C   UNL     1       1.713   9.365  17.992  0.00  0.00    +0.000 A 
ATOM      4  C   UNL     1       1.200   9.410  19.292  0.00  0.00    +0.000 A 
ATOM      5  C   UNL     1       1.489   8.366  20.192  0.00  0.00    +0.000 A 
ATOM      6  C   UNL     1       2.252   7.270  19.739  0.00  0.00    +0.000 A 
ATOM      7  C   UNL     1       0.928   8.389  21.596  0.00  0.00    +0.000 C 
ATOM      8  C   UNL     1       0.428   9.760  22.039  0.00  0.00    +0.000 C 
ATOM      9  C   UNL     1      -0.441  10.380  20.955  0.00  0.00    +0.000 C 
ATOM     10  C   UNL     1       0.389  10.616  19.698  0.00  0.00    +0.000 C 
ENDROOT
BRANCH   1  15
ATOM     11  C   UNL     1       5.314   3.431  15.986  0.00  0.00    +0.000 C 
ATOM     12  C   UNL     1       4.420   4.282  16.811  0.00  0.00    +0.000 A 
ATOM     13  C   UNL     1       3.364   3.808  17.555  0.00  0.00    +0.000 A 
ATOM     14  O   UNL     1       2.713   4.817  18.160  0.00  0.00    +0.000 OA
ATOM     15  C   UNL     1       3.373   5.981  17.880  0.00  0.00    +0.000 A 
ATOM     16  C   UNL     1       4.463   5.710  17.057  0.00  0.00    +0.000 A 
BRANCH  16  17
ATOM     17  C   UNL     1       5.411   6.709  16.589  0.00  0.00    +0.000 C 
ATOM     18  O   UNL     1       6.216   7.287  17.302  0.00  0.00    +0.000 OA
BRANCH  17  19
ATOM     19  O   UNL     1       5.330   6.998  15.262  0.00  0.00    +0.000 OA
ATOM     20  H   UNL     1       4.501   6.680  14.865  0.00  0.00    +0.000 HD
ENDBRANCH  17  19
ENDBRANCH  16  17
ENDBRANCH   1  15
BRANCH   6  21
ATOM     21  O   UNL     1       2.571   6.260  20.614  0.00  0.00    +0.000 OA
ATOM     22  H   UNL     1       3.531   6.244  20.740  0.00  0.00    +0.000 HD
ENDBRANCH   6  21
TORSDOF 4
ENDMDL
MODEL 5
REMARK VINA RESULT:      -7.2      3.669      5.438
REMARK  Name = 
REMARK  5 active torsions:
REMARK  status: ('A' for Active; 'I' for Inactive)
REMARK    1  A    between atoms: C_1  and  C_2
REMARK    2  A    between atoms: C_5  and  C_6
REMARK    3  A    between atoms: C_11  and  O_12
REMARK    4  A    between atoms: C_17  and  C_18
REMARK    5  A    between atoms: C_18  and  O_20
REMARK                            x       y       z     vdW  Elec       q    Type
REMARK                         _______ _______ _______ _____ _____    ______ ____
ROOT
ATOM      1  C   UNL     1       2.545   7.609  18.485  0.00  0.00    +0.000 A 
ATOM      2  C   UNL     1       2.222   8.692  17.656  0.00  0.00    +0.000 A 
ATOM      3  C   UNL     1       1.440   9.750  18.119  0.00  0.00    +0.000 A 
ATOM      4  C   UNL     1       0.922   9.737  19.417  0.00  0.00    +0.000 A 
ATOM      5  C   UNL     1       1.256   8.684  20.291  0.00  0.00    +0.000 A 
ATOM      6  C   UNL     1       2.072   7.637  19.813  0.00  0.00    +0.000 A 
ATOM      7  C   UNL     1       0.691   8.644  21.693  0.00  0.00    +0.000 C 
ATOM      8  C   UNL     1       0.126   9.978  22.169  0.00  0.00    +0.000 C 
ATOM      9  C   UNL     1      -0.768  10.585  21.098  0.00  0.00    +0.000 C 
ATOM     10  C   UNL     1       0.054  10.893  19.851  0.00  0.00    +0.000 C 
ENDROOT
BRANCH   1  15
ATOM     11  C   UNL     1       4.559   3.101  16.960  0.00  0.00    +0.000 C 
ATOM     12  C   UNL     1       4.236   4.511  17.290  0.00  0.00    +0.000 A 
ATOM     13  C   UNL     1       5.115   5.562  17.159  0.00  0.00    +0.000 A 
ATOM     14  O   UNL     1       4.553   6.711  17.574  0.00  0.00    +0.000 OA
ATOM     15  C   UNL     1       3.258   6.452  17.927  0.00  0.00    +0.000 A 
ATOM     16  C   UNL     1       2.992   5.096  17.752  0.00  0.00    +0.000 A 
BRANCH  16  17
ATOM     17  C   UNL     1       1.701   4.471  17.995  0.00  0.00    +0.000 C 
ATOM     18  O   UNL     1       0.894   4.187  17.124  0.00  0.00    +0.000 OA
BRANCH  17  19
ATOM     19  O   UNL     1       1.417   4.235  19.305  0.00  0.00    +0.000 OA
ATOM     20  H   UNL     1       0.812   4.899  19.676  0.00  0.00    +0.000 HD
ENDBRANCH  17  19
ENDBRANCH  16  17
ENDBRANCH   1  15
BRANCH   6  21
ATOM     21  O   UNL     1       2.435   6.621  20.663  0.00  0.00    +0.000 OA
ATOM     22  H   UNL     1       1.814   6.595  21.406  0.00  0.00    +0.000 HD
ENDBRANCH   6  21
TORSDOF 4
ENDMDL
MODEL 6
REMARK VINA RESULT:      -7.2      2.899      4.703
REMARK  Name = 
REMARK  5 active torsions:
REMARK  status: ('A' for Active; 'I' for Inactive)
REMARK    1  A    between atoms: C_1  and  C_2
REMARK    2  A    between atoms: C_5  and  C_6
REMARK    3  A    between atoms: C_11  and  O_12
REMARK    4  A    between atoms: C_17  and  C_18
REMARK    5  A    between atoms: C_18  and  O_20
REMARK                            x       y       z     vdW  Elec       q    Type
REMARK                         _______ _______ _______ _____ _____    ______ ____
ROOT
ATOM      1  C   UNL     1       2.945   6.617  18.452  0.00  0.00    +0.000 A 
ATOM      2  C   UNL     1       2.691   5.950  19.658  0.00  0.00    +0.000 A 
ATOM      3  C   UNL     1       1.936   6.545  20.669  0.00  0.00    +0.000 A 
ATOM      4  C   UNL     1       1.446   7.846  20.520  0.00  0.00    +0.000 A 
ATOM      5  C   UNL     1       1.649   8.532  19.307  0.00  0.00    +0.000 A 
ATOM      6  C   UNL     1       2.391   7.903  18.285  0.00  0.00    +0.000 A 
ATOM      7  C   UNL     1       1.142   9.946  19.134  0.00  0.00    +0.000 C 
ATOM      8  C   UNL     1       0.090  10.355  20.159  0.00  0.00    +0.000 C 
ATOM      9  C   UNL     1       0.540   9.966  21.560  0.00  0.00    +0.000 C 
ATOM     10  C   UNL     1       0.666   8.450  21.661  0.00  0.00    +0.000 C 
ENDROOT
BRANCH   1  15
ATOM     11  C   UNL     1       6.031   3.828  15.385  0.00  0.00    +0.000 C 
ATOM     12  C   UNL     1       5.281   4.864  16.138  0.00  0.00    +0.000 A 
ATOM     13  C   UNL     1       5.561   6.211  16.097  0.00  0.00    +0.000 A 
ATOM     14  O   UNL     1       4.741   6.896  16.914  0.00  0.00    +0.000 OA
ATOM     15  C   UNL     1       3.852   6.015  17.464  0.00  0.00    +0.000 A 
ATOM     16  C   UNL     1       4.124   4.730  17.002  0.00  0.00    +0.000 A 
BRANCH  16  17
ATOM     17  C   UNL     1       3.353   3.547  17.353  0.00  0.00    +0.000 C 
ATOM     18  O   UNL     1       2.171   3.388  17.091  0.00  0.00    +0.000 OA
BRANCH  17  19
ATOM     19  O   UNL     1       4.043   2.599  18.043  0.00  0.00    +0.000 OA
ATOM     20  H   UNL     1       4.232   2.872  18.956  0.00  0.00    +0.000 HD
ENDBRANCH  17  19
ENDBRANCH  16  17
ENDBRANCH   1  15
BRANCH   6  21
ATOM     21  O   UNL     1       2.568   8.546  17.085  0.00  0.00    +0.000 OA
ATOM     22  H   UNL     1       3.245   8.078  16.574  0.00  0.00    +0.000 HD
ENDBRANCH   6  21
TORSDOF 4
ENDMDL
MODEL 7
REMARK VINA RESULT:      -7.2      1.115      1.974
REMARK  Name = 
REMARK  5 active torsions:
REMARK  status: ('A' for Active; 'I' for Inactive)
REMARK    1  A    between atoms: C_1  and  C_2
REMARK    2  A    between atoms: C_5  and  C_6
REMARK    3  A    between atoms: C_11  and  O_12
REMARK    4  A    between atoms: C_17  and  C_18
REMARK    5  A    between atoms: C_18  and  O_20
REMARK                            x       y       z     vdW  Elec       q    Type
REMARK                         _______ _______ _______ _____ _____    ______ ____
ROOT
ATOM      1  C   UNL     1       4.324   3.767  16.893  0.00  0.00    +0.000 A 
ATOM      2  C   UNL     1       3.979   2.439  17.180  0.00  0.00    +0.000 A 
ATOM      3  C   UNL     1       3.176   2.120  18.275  0.00  0.00    +0.000 A 
ATOM      4  C   UNL     1       2.727   3.120  19.143  0.00  0.00    +0.000 A 
ATOM      5  C   UNL     1       3.022   4.469  18.865  0.00  0.00    +0.000 A 
ATOM      6  C   UNL     1       3.811   4.774  17.737  0.00  0.00    +0.000 A 
ATOM      7  C   UNL     1       2.559   5.562  19.802  0.00  0.00    +0.000 C 
ATOM      8  C   UNL     1       1.455   5.129  20.760  0.00  0.00    +0.000 C 
ATOM      9  C   UNL     1       1.807   3.795  21.401  0.00  0.00    +0.000 C 
ATOM     10  C   UNL     1       1.890   2.712  20.331  0.00  0.00    +0.000 C 
ENDROOT
BRANCH   1  15
ATOM     11  C   UNL     1       7.963   5.332  13.575  0.00  0.00    +0.000 C 
ATOM     12  C   UNL     1       6.795   4.755  14.285  0.00  0.00    +0.000 A 
ATOM     13  C   UNL     1       5.734   4.137  13.664  0.00  0.00    +0.000 A 
ATOM     14  O   UNL     1       4.809   3.754  14.562  0.00  0.00    +0.000 OA
ATOM     15  C   UNL     1       5.277   4.054  15.812  0.00  0.00    +0.000 A 
ATOM     16  C   UNL     1       6.525   4.663  15.706  0.00  0.00    +0.000 A 
BRANCH  16  17
ATOM     17  C   UNL     1       7.334   5.084  16.840  0.00  0.00    +0.000 C 
ATOM     18  O   UNL     1       7.327   6.209  17.315  0.00  0.00    +0.000 OA
BRANCH  17  19
ATOM     19  O   UNL     1       8.155   4.124  17.345  0.00  0.00    +0.000 OA
ATOM     20  H   UNL     1       8.369   4.277  18.281  0.00  0.00    +0.000 HD
ENDBRANCH  17  19
ENDBRANCH  16  17
ENDBRANCH   1  15
BRANCH   6  21
ATOM     21  O   UNL     1       4.079   6.086  17.433  0.00  0.00    +0.000 OA
ATOM     22  H   UNL     1       4.651   6.458  18.121  0.00  0.00    +0.000 HD
ENDBRANCH   6  21
TORSDOF 4
ENDMDL
MODEL 8
REMARK VINA RESULT:      -7.0      3.997      5.913
REMARK  Name = 
REMARK  5 active torsions:
REMARK  status: ('A' for Active; 'I' for Inactive)
REMARK    1  A    between atoms: C_1  and  C_2
REMARK    2  A    between atoms: C_5  and  C_6
REMARK    3  A    between atoms: C_11  and  O_12
REMARK    4  A    between atoms: C_17  and  C_18
REMARK    5  A    between atoms: C_18  and  O_20
REMARK                            x       y       z     vdW  Elec       q    Type
REMARK                         _______ _______ _______ _____ _____    ______ ____
ROOT
ATOM      1  C   UNL     1       2.178   7.693  18.968  0.00  0.00    +0.000 A 
ATOM      2  C   UNL     1       1.899   7.290  20.282  0.00  0.00    +0.000 A 
ATOM      3  C   UNL     1       1.189   8.112  21.156  0.00  0.00    +0.000 A 
ATOM      4  C   UNL     1       0.769   9.384  20.754  0.00  0.00    +0.000 A 
ATOM      5  C   UNL     1       0.997   9.807  19.430  0.00  0.00    +0.000 A 
ATOM      6  C   UNL     1       1.692   8.950  18.553  0.00  0.00    +0.000 A 
ATOM      7  C   UNL     1       0.566  11.186  18.983  0.00  0.00    +0.000 C 
ATOM      8  C   UNL     1      -0.452  11.846  19.908  0.00  0.00    +0.000 C 
ATOM      9  C   UNL     1      -0.010  11.714  21.358  0.00  0.00    +0.000 C 
ATOM     10  C   UNL     1       0.034  10.242  21.754  0.00  0.00    +0.000 C 
ENDROOT
BRANCH   1  15
ATOM     11  C   UNL     1       4.942   4.155  16.410  0.00  0.00    +0.000 C 
ATOM     12  C   UNL     1       4.338   5.366  17.019  0.00  0.00    +0.000 A 
ATOM     13  C   UNL     1       4.875   6.630  16.932  0.00  0.00    +0.000 A 
ATOM     14  O   UNL     1       4.130   7.516  17.618  0.00  0.00    +0.000 OA
ATOM     15  C   UNL     1       3.040   6.860  18.119  0.00  0.00    +0.000 A 
ATOM     16  C   UNL     1       3.102   5.515  17.761  0.00  0.00    +0.000 A 
BRANCH  16  17
ATOM     17  C   UNL     1       2.088   4.527  18.094  0.00  0.00    +0.000 C 
ATOM     18  O   UNL     1       1.145   4.232  17.375  0.00  0.00    +0.000 OA
BRANCH  17  19
ATOM     19  O   UNL     1       2.237   3.942  19.313  0.00  0.00    +0.000 OA
ATOM     20  H   UNL     1       2.597   4.556  19.975  0.00  0.00    +0.000 HD
ENDBRANCH  17  19
ENDBRANCH  16  17
ENDBRANCH   1  15
BRANCH   6  21
ATOM     21  O   UNL     1       1.893   9.335  17.249  0.00  0.00    +0.000 OA
ATOM     22  H   UNL     1       2.305  10.211  17.239  0.00  0.00    +0.000 HD
ENDBRANCH   6  21
TORSDOF 4
ENDMDL
MODEL 9
REMARK VINA RESULT:      -7.0      3.092      5.150
REMARK  Name = 
REMARK  5 active torsions:
REMARK  status: ('A' for Active; 'I' for Inactive)
REMARK    1  A    between atoms: C_1  and  C_2
REMARK    2  A    between atoms: C_5  and  C_6
REMARK    3  A    between atoms: C_11  and  O_12
REMARK    4  A    between atoms: C_17  and  C_18
REMARK    5  A    between atoms: C_18  and  O_20
REMARK                            x       y       z     vdW  Elec       q    Type
REMARK                         _______ _______ _______ _____ _____    ______ ____
ROOT
ATOM      1  C   UNL     1       2.552   6.020  18.955  0.00  0.00    +0.000 A 
ATOM      2  C   UNL     1       2.787   6.773  17.796  0.00  0.00    +0.000 A 
ATOM      3  C   UNL     1       2.464   8.128  17.736  0.00  0.00    +0.000 A 
ATOM      4  C   UNL     1       1.855   8.764  18.822  0.00  0.00    +0.000 A 
ATOM      5  C   UNL     1       1.638   8.049  20.017  0.00  0.00    +0.000 A 
ATOM      6  C   UNL     1       1.998   6.686  20.068  0.00  0.00    +0.000 A 
ATOM      7  C   UNL     1       0.965   8.715  21.195  0.00  0.00    +0.000 C 
ATOM      8  C   UNL     1       0.950  10.238  21.119  0.00  0.00    +0.000 C 
ATOM      9  C   UNL     1       0.498  10.692  19.739  0.00  0.00    +0.000 C 
ATOM     10  C   UNL     1       1.497  10.224  18.687  0.00  0.00    +0.000 C 
ENDROOT
BRANCH   1  15
ATOM     11  C   UNL     1       3.994   1.083  18.453  0.00  0.00    +0.000 C 
ATOM     12  C   UNL     1       3.317   2.384  18.682  0.00  0.00    +0.000 A 
ATOM     13  C   UNL     1       1.977   2.524  18.966  0.00  0.00    +0.000 A 
ATOM     14  O   UNL     1       1.645   3.822  19.080  0.00  0.00    +0.000 OA
ATOM     15  C   UNL     1       2.782   4.569  18.939  0.00  0.00    +0.000 A 
ATOM     16  C   UNL     1       3.866   3.725  18.708  0.00  0.00    +0.000 A 
BRANCH  16  17
ATOM     17  C   UNL     1       5.240   4.175  18.546  0.00  0.00    +0.000 C 
ATOM     18  O   UNL     1       5.896   4.723  19.418  0.00  0.00    +0.000 OA
BRANCH  17  19
ATOM     19  O   UNL     1       5.768   3.967  17.310  0.00  0.00    +0.000 OA
ATOM     20  H   UNL     1       6.729   3.825  17.338  0.00  0.00    +0.000 HD
ENDBRANCH  17  19
ENDBRANCH  16  17
ENDBRANCH   1  15
BRANCH   6  21
ATOM     21  O   UNL     1       1.824   5.985  21.236  0.00  0.00    +0.000 OA
ATOM     22  H   UNL     1       2.683   5.652  21.534  0.00  0.00    +0.000 HD
ENDBRANCH   6  21
TORSDOF 4
ENDMDL
