MODEL 1
REMARK VINA RESULT:      -8.6      0.000      0.000
REMARK  Name = 
REMARK  11 active torsions:
REMARK  status: ('A' for Active; 'I' for Inactive)
REMARK    1  A    between atoms: C_1  and  O_2
REMARK    2  A    between atoms: O_2  and  C_3
REMARK    3  A    between atoms: C_3  and  C_5
REMARK    4  A    between atoms: C_5  and  C_6
REMARK    5  A    between atoms: C_5  and  N_15
REMARK    6  A    between atoms: C_6  and  C_7
REMARK    7  A    between atoms: C_10  and  O_11
REMARK    8  A    between atoms: C_12  and  O_13
REMARK    9  A    between atoms: C_16  and  C_18
REMARK   10  A    between atoms: C_19  and  C_20
REMARK   11  A    between atoms: C_23  and  O_24
REMARK                            x       y       z     vdW  Elec       q    Type
REMARK                         _______ _______ _______ _____ _____    ______ ____
ROOT
ATOM      1  C   UNL     1       6.331   5.854  16.435  0.00  0.00    +0.000 C 
ENDROOT
BRANCH   1   2
ATOM      2  N   UNL     1       6.900   7.191  16.652  0.00  0.00    +0.000 N 
ATOM      3  C   UNL     1       7.612   7.468  17.792  0.00  0.00    +0.000 C 
ATOM      4  O   UNL     1       7.851   6.642  18.663  0.00  0.00    +0.000 OA
ATOM      5  H   UNL     1       6.697   7.922  15.984  0.00  0.00    +0.000 HD
BRANCH   3   6
ATOM      6  C   UNL     1       8.044   8.883  17.878  0.00  0.00    +0.000 C 
ATOM      7  C   UNL     1       8.923   9.250  18.825  0.00  0.00    +0.000 C 
BRANCH   7   8
ATOM      8  C   UNL     1       9.395  10.624  19.042  0.00  0.00    +0.000 A 
ATOM      9  C   UNL     1       9.805  11.451  17.982  0.00  0.00    +0.000 A 
ATOM     10  C   UNL     1      10.186  12.777  18.212  0.00  0.00    +0.000 A 
ATOM     11  C   UNL     1      10.144  13.282  19.506  0.00  0.00    +0.000 A 
ATOM     12  C   UNL     1       9.734  12.488  20.569  0.00  0.00    +0.000 A 
ATOM     13  C   UNL     1       9.358  11.163  20.333  0.00  0.00    +0.000 A 
BRANCH  11  14
ATOM     14  O   UNL     1      10.490  14.574  19.775  0.00  0.00    +0.000 OA
ATOM     15  H   UNL     1       9.830  15.161  19.375  0.00  0.00    +0.000 HD
ENDBRANCH  11  14
ENDBRANCH   7   8
ENDBRANCH   3   6
ENDBRANCH   1   2
BRANCH   1  16
ATOM     16  C   UNL     1       6.752   5.206  15.102  0.00  0.00    +0.000 C 
ATOM     17  O   UNL     1       7.858   5.366  14.598  0.00  0.00    +0.000 OA
BRANCH  16  19
ATOM     18  C   UNL     1       6.093   3.671  13.414  0.00  0.00    +0.000 C 
ATOM     19  O   UNL     1       5.748   4.473  14.547  0.00  0.00    +0.000 OA
ENDBRANCH  16  19
ENDBRANCH   1  16
BRANCH   1  20
ATOM     20  C   UNL     1       4.790   5.874  16.536  0.00  0.00    +0.000 C 
BRANCH  20  21
ATOM     21  C   UNL     1       4.292   5.174  17.786  0.00  0.00    +0.000 A 
ATOM     22  C   UNL     1       3.086   5.575  18.391  0.00  0.00    +0.000 A 
ATOM     23  C   UNL     1       2.523   4.829  19.430  0.00  0.00    +0.000 A 
ATOM     24  C   UNL     1       3.184   3.697  19.883  0.00  0.00    +0.000 A 
ATOM     25  C   UNL     1       4.423   3.349  19.356  0.00  0.00    +0.000 A 
ATOM     26  C   UNL     1       4.985   4.076  18.314  0.00  0.00    +0.000 A 
BRANCH  24  27
ATOM     27  O   UNL     1       2.639   2.876  20.831  0.00  0.00    +0.000 OA
ATOM     28  H   UNL     1       2.084   3.426  21.411  0.00  0.00    +0.000 HD
ENDBRANCH  24  27
BRANCH  25  29
ATOM     29  O   UNL     1       5.085   2.255  19.839  0.00  0.00    +0.000 OA
ATOM     30  H   UNL     1       4.650   1.496  19.400  0.00  0.00    +0.000 HD
ENDBRANCH  25  29
ENDBRANCH  20  21
ENDBRANCH   1  20
TORSDOF 10
ENDMDL
MODEL 2
REMARK VINA RESULT:      -8.5      1.340      1.362
REMARK  Name = 
REMARK  11 active torsions:
REMARK  status: ('A' for Active; 'I' for Inactive)
REMARK    1  A    between atoms: C_1  and  O_2
REMARK    2  A    between atoms: O_2  and  C_3
REMARK    3  A    between atoms: C_3  and  C_5
REMARK    4  A    between atoms: C_5  and  C_6
REMARK    5  A    between atoms: C_5  and  N_15
REMARK    6  A    between atoms: C_6  and  C_7
REMARK    7  A    between atoms: C_10  and  O_11
REMARK    8  A    between atoms: C_12  and  O_13
REMARK    9  A    between atoms: C_16  and  C_18
REMARK   10  A    between atoms: C_19  and  C_20
REMARK   11  A    between atoms: C_23  and  O_24
REMARK                            x       y       z     vdW  Elec       q    Type
REMARK                         _______ _______ _______ _____ _____    ______ ____
ROOT
ATOM      1  C   UNL     1       6.035   5.775  17.162  0.00  0.00    +0.000 C 
ENDROOT
BRANCH   1   2
ATOM      2  N   UNL     1       6.664   7.101  17.085  0.00  0.00    +0.000 N 
ATOM      3  C   UNL     1       7.655   7.453  17.965  0.00  0.00    +0.000 C 
ATOM      4  O   UNL     1       8.101   6.705  18.825  0.00  0.00    +0.000 OA
ATOM      5  H   UNL     1       6.304   7.773  16.421  0.00  0.00    +0.000 HD
BRANCH   3   6
ATOM      6  C   UNL     1       8.118   8.851  17.791  0.00  0.00    +0.000 C 
ATOM      7  C   UNL     1       8.863   9.425  18.748  0.00  0.00    +0.000 C 
BRANCH   7   8
ATOM      8  C   UNL     1       9.346  10.813  18.714  0.00  0.00    +0.000 A 
ATOM      9  C   UNL     1       8.825  11.766  17.823  0.00  0.00    +0.000 A 
ATOM     10  C   UNL     1       9.257  13.095  17.859  0.00  0.00    +0.000 A 
ATOM     11  C   UNL     1      10.206  13.476  18.801  0.00  0.00    +0.000 A 
ATOM     12  C   UNL     1      10.729  12.555  19.699  0.00  0.00    +0.000 A 
ATOM     13  C   UNL     1      10.295  11.228  19.655  0.00  0.00    +0.000 A 
BRANCH  11  14
ATOM     14  O   UNL     1      10.644  14.765  18.885  0.00  0.00    +0.000 OA
ATOM     15  H   UNL     1      10.572  15.057  19.807  0.00  0.00    +0.000 HD
ENDBRANCH  11  14
ENDBRANCH   7   8
ENDBRANCH   3   6
ENDBRANCH   1   2
BRANCH   1  16
ATOM     16  C   UNL     1       6.776   4.685  16.362  0.00  0.00    +0.000 C 
ATOM     17  O   UNL     1       7.911   4.310  16.633  0.00  0.00    +0.000 OA
BRANCH  16  19
ATOM     18  C   UNL     1       6.600   4.398  14.012  0.00  0.00    +0.000 C 
ATOM     19  O   UNL     1       6.038   4.225  15.315  0.00  0.00    +0.000 OA
ENDBRANCH  16  19
ENDBRANCH   1  16
BRANCH   1  20
ATOM     20  C   UNL     1       4.557   5.826  16.719  0.00  0.00    +0.000 C 
BRANCH  20  21
ATOM     21  C   UNL     1       3.642   5.124  17.705  0.00  0.00    +0.000 A 
ATOM     22  C   UNL     1       3.120   5.822  18.810  0.00  0.00    +0.000 A 
ATOM     23  C   UNL     1       2.138   5.247  19.622  0.00  0.00    +0.000 A 
ATOM     24  C   UNL     1       1.701   3.960  19.344  0.00  0.00    +0.000 A 
ATOM     25  C   UNL     1       2.283   3.228  18.314  0.00  0.00    +0.000 A 
ATOM     26  C   UNL     1       3.249   3.794  17.493  0.00  0.00    +0.000 A 
BRANCH  24  27
ATOM     27  O   UNL     1       0.681   3.380  20.044  0.00  0.00    +0.000 OA
ATOM     28  H   UNL     1       0.654   2.439  19.798  0.00  0.00    +0.000 HD
ENDBRANCH  24  27
BRANCH  25  29
ATOM     29  O   UNL     1       1.874   1.946  18.076  0.00  0.00    +0.000 OA
ATOM     30  H   UNL     1       1.778   1.554  18.968  0.00  0.00    +0.000 HD
ENDBRANCH  25  29
ENDBRANCH  20  21
ENDBRANCH   1  20
TORSDOF 10
ENDMDL
MODEL 3
REMARK VINA RESULT:      -8.5      1.121      1.866
REMARK  Name = 
REMARK  11 active torsions:
REMARK  status: ('A' for Active; 'I' for Inactive)
REMARK    1  A    between atoms: C_1  and  O_2
REMARK    2  A    between atoms: O_2  and  C_3
REMARK    3  A    between atoms: C_3  and  C_5
REMARK    4  A    between atoms: C_5  and  C_6
REMARK    5  A    between atoms: C_5  and  N_15
REMARK    6  A    between atoms: C_6  and  C_7
REMARK    7  A    between atoms: C_10  and  O_11
REMARK    8  A    between atoms: C_12  and  O_13
REMARK    9  A    between atoms: C_16  and  C_18
REMARK   10  A    between atoms: C_19  and  C_20
REMARK   11  A    between atoms: C_23  and  O_24
REMARK                            x       y       z     vdW  Elec       q    Type
REMARK                         _______ _______ _______ _____ _____    ______ ____
ROOT
ATOM      1  C   UNL     1       6.314   5.764  16.344  0.00  0.00    +0.000 C 
ENDROOT
BRANCH   1   2
ATOM      2  N   UNL     1       6.863   7.101  16.607  0.00  0.00    +0.000 N 
ATOM      3  C   UNL     1       7.597   7.342  17.741  0.00  0.00    +0.000 C 
ATOM      4  O   UNL     1       7.871   6.484  18.570  0.00  0.00    +0.000 OA
ATOM      5  H   UNL     1       6.631   7.856  15.976  0.00  0.00    +0.000 HD
BRANCH   3   6
ATOM      6  C   UNL     1       8.004   8.761  17.880  0.00  0.00    +0.000 C 
ATOM      7  C   UNL     1       8.917   9.099  18.804  0.00  0.00    +0.000 C 
BRANCH   7   8
ATOM      8  C   UNL     1       9.372  10.471  19.069  0.00  0.00    +0.000 A 
ATOM      9  C   UNL     1       9.391  11.017  20.364  0.00  0.00    +0.000 A 
ATOM     10  C   UNL     1       9.892  12.302  20.594  0.00  0.00    +0.000 A 
ATOM     11  C   UNL     1      10.388  13.039  19.526  0.00  0.00    +0.000 A 
ATOM     12  C   UNL     1      10.389  12.519  18.239  0.00  0.00    +0.000 A 
ATOM     13  C   UNL     1       9.884  11.236  18.015  0.00  0.00    +0.000 A 
BRANCH  11  14
ATOM     14  O   UNL     1      10.902  14.290  19.706  0.00  0.00    +0.000 OA
ATOM     15  H   UNL     1      10.197  14.939  19.555  0.00  0.00    +0.000 HD
ENDBRANCH  11  14
ENDBRANCH   7   8
ENDBRANCH   3   6
ENDBRANCH   1   2
BRANCH   1  16
ATOM     16  C   UNL     1       6.964   5.047  15.144  0.00  0.00    +0.000 C 
ATOM     17  O   UNL     1       7.941   5.487  14.550  0.00  0.00    +0.000 OA
BRANCH  16  19
ATOM     18  C   UNL     1       6.071   3.681  13.420  0.00  0.00    +0.000 C 
ATOM     19  O   UNL     1       6.308   3.901  14.813  0.00  0.00    +0.000 OA
ENDBRANCH  16  19
ENDBRANCH   1  16
BRANCH   1  20
ATOM     20  C   UNL     1       4.783   5.811  16.150  0.00  0.00    +0.000 C 
BRANCH  20  21
ATOM     21  C   UNL     1       4.036   5.548  17.444  0.00  0.00    +0.000 A 
ATOM     22  C   UNL     1       4.002   4.252  17.992  0.00  0.00    +0.000 A 
ATOM     23  C   UNL     1       3.476   4.027  19.267  0.00  0.00    +0.000 A 
ATOM     24  C   UNL     1       2.957   5.097  19.981  0.00  0.00    +0.000 A 
ATOM     25  C   UNL     1       2.898   6.363  19.407  0.00  0.00    +0.000 A 
ATOM     26  C   UNL     1       3.430   6.599  18.146  0.00  0.00    +0.000 A 
BRANCH  24  27
ATOM     27  O   UNL     1       2.513   4.957  21.266  0.00  0.00    +0.000 OA
ATOM     28  H   UNL     1       1.541   4.971  21.245  0.00  0.00    +0.000 HD
ENDBRANCH  24  27
BRANCH  25  29
ATOM     29  O   UNL     1       2.346   7.400  20.103  0.00  0.00    +0.000 OA
ATOM     30  H   UNL     1       1.679   6.976  20.681  0.00  0.00    +0.000 HD
ENDBRANCH  25  29
ENDBRANCH  20  21
ENDBRANCH   1  20
TORSDOF 10
ENDMDL
MODEL 4
REMARK VINA RESULT:      -8.5      1.884      2.543
REMARK  Name = 
REMARK  11 active torsions:
REMARK  status: ('A' for Active; 'I' for Inactive)
REMARK    1  A    between atoms: C_1  and  O_2
REMARK    2  A    between atoms: O_2  and  C_3
REMARK    3  A    between atoms: C_3  and  C_5
REMARK    4  A    between atoms: C_5  and  C_6
REMARK    5  A    between atoms: C_5  and  N_15
REMARK    6  A    between atoms: C_6  and  C_7
REMARK    7  A    between atoms: C_10  and  O_11
REMARK    8  A    between atoms: C_12  and  O_13
REMARK    9  A    between atoms: C_16  and  C_18
REMARK   10  A    between atoms: C_19  and  C_20
REMARK   11  A    between atoms: C_23  and  O_24
REMARK                            x       y       z     vdW  Elec       q    Type
REMARK                         _______ _______ _______ _____ _____    ______ ____
ROOT
ATOM      1  C   UNL     1       6.292   6.212  16.883  0.00  0.00    +0.000 C 
ENDROOT
BRANCH   1   2
ATOM      2  N   UNL     1       6.927   7.534  16.972  0.00  0.00    +0.000 N 
ATOM      3  C   UNL     1       7.855   7.796  17.948  0.00  0.00    +0.000 C 
ATOM      4  O   UNL     1       8.239   6.968  18.763  0.00  0.00    +0.000 OA
ATOM      5  H   UNL     1       6.615   8.268  16.350  0.00  0.00    +0.000 HD
BRANCH   3   6
ATOM      6  C   UNL     1       8.331   9.200  17.935  0.00  0.00    +0.000 C 
ATOM      7  C   UNL     1       9.117   9.641  18.930  0.00  0.00    +0.000 C 
BRANCH   7   8
ATOM      8  C   UNL     1       9.618  11.017  19.055  0.00  0.00    +0.000 A 
ATOM      9  C   UNL     1      10.138  11.518  20.260  0.00  0.00    +0.000 A 
ATOM     10  C   UNL     1      10.669  12.810  20.331  0.00  0.00    +0.000 A 
ATOM     11  C   UNL     1      10.693  13.599  19.187  0.00  0.00    +0.000 A 
ATOM     12  C   UNL     1      10.194  13.123  17.982  0.00  0.00    +0.000 A 
ATOM     13  C   UNL     1       9.662  11.833  17.919  0.00  0.00    +0.000 A 
BRANCH  11  14
ATOM     14  O   UNL     1      11.217  14.858  19.205  0.00  0.00    +0.000 OA
ATOM     15  H   UNL     1      10.927  15.302  20.017  0.00  0.00    +0.000 HD
ENDBRANCH  11  14
ENDBRANCH   7   8
ENDBRANCH   3   6
ENDBRANCH   1   2
BRANCH   1  16
ATOM     16  C   UNL     1       7.055   5.212  15.993  0.00  0.00    +0.000 C 
ATOM     17  O   UNL     1       7.861   4.401  16.434  0.00  0.00    +0.000 OA
BRANCH  16  19
ATOM     18  C   UNL     1       6.406   4.173  13.959  0.00  0.00    +0.000 C 
ATOM     19  O   UNL     1       6.752   5.362  14.674  0.00  0.00    +0.000 OA
ENDBRANCH  16  19
ENDBRANCH   1  16
BRANCH   1  20
ATOM     20  C   UNL     1       4.828   6.321  16.401  0.00  0.00    +0.000 C 
BRANCH  20  21
ATOM     21  C   UNL     1       3.858   6.474  17.557  0.00  0.00    +0.000 A 
ATOM     22  C   UNL     1       3.787   5.490  18.560  0.00  0.00    +0.000 A 
ATOM     23  C   UNL     1       3.035   5.700  19.719  0.00  0.00    +0.000 A 
ATOM     24  C   UNL     1       2.328   6.886  19.859  0.00  0.00    +0.000 A 
ATOM     25  C   UNL     1       2.315   7.821  18.829  0.00  0.00    +0.000 A 
ATOM     26  C   UNL     1       3.070   7.628  17.679  0.00  0.00    +0.000 A 
BRANCH  24  27
ATOM     27  O   UNL     1       1.650   7.189  21.006  0.00  0.00    +0.000 OA
ATOM     28  H   UNL     1       1.229   8.057  20.878  0.00  0.00    +0.000 HD
ENDBRANCH  24  27
BRANCH  25  29
ATOM     29  O   UNL     1       1.582   8.967  18.960  0.00  0.00    +0.000 OA
ATOM     30  H   UNL     1       0.992   8.966  18.179  0.00  0.00    +0.000 HD
ENDBRANCH  25  29
ENDBRANCH  20  21
ENDBRANCH   1  20
TORSDOF 10
ENDMDL
MODEL 5
REMARK VINA RESULT:      -8.4      0.558      1.257
REMARK  Name = 
REMARK  11 active torsions:
REMARK  status: ('A' for Active; 'I' for Inactive)
REMARK    1  A    between atoms: C_1  and  O_2
REMARK    2  A    between atoms: O_2  and  C_3
REMARK    3  A    between atoms: C_3  and  C_5
REMARK    4  A    between atoms: C_5  and  C_6
REMARK    5  A    between atoms: C_5  and  N_15
REMARK    6  A    between atoms: C_6  and  C_7
REMARK    7  A    between atoms: C_10  and  O_11
REMARK    8  A    between atoms: C_12  and  O_13
REMARK    9  A    between atoms: C_16  and  C_18
REMARK   10  A    between atoms: C_19  and  C_20
REMARK   11  A    between atoms: C_23  and  O_24
REMARK                            x       y       z     vdW  Elec       q    Type
REMARK                         _______ _______ _______ _____ _____    ______ ____
ROOT
ATOM      1  C   UNL     1       6.122   5.894  16.560  0.00  0.00    +0.000 C 
ENDROOT
BRANCH   1   2
ATOM      2  N   UNL     1       6.794   7.190  16.721  0.00  0.00    +0.000 N 
ATOM      3  C   UNL     1       7.654   7.404  17.769  0.00  0.00    +0.000 C 
ATOM      4  O   UNL     1       7.946   6.550  18.596  0.00  0.00    +0.000 OA
ATOM      5  H   UNL     1       6.557   7.944  16.090  0.00  0.00    +0.000 HD
BRANCH   3   6
ATOM      6  C   UNL     1       8.179   8.789  17.817  0.00  0.00    +0.000 C 
ATOM      7  C   UNL     1       8.847   9.206  18.904  0.00  0.00    +0.000 C 
BRANCH   7   8
ATOM      8  C   UNL     1       9.378  10.563  19.092  0.00  0.00    +0.000 A 
ATOM      9  C   UNL     1       9.784  11.041  20.350  0.00  0.00    +0.000 A 
ATOM     10  C   UNL     1      10.348  12.313  20.487  0.00  0.00    +0.000 A 
ATOM     11  C   UNL     1      10.519  13.106  19.358  0.00  0.00    +0.000 A 
ATOM     12  C   UNL     1      10.135  12.653  18.103  0.00  0.00    +0.000 A 
ATOM     13  C   UNL     1       9.570  11.382  17.974  0.00  0.00    +0.000 A 
BRANCH  11  14
ATOM     14  O   UNL     1      11.080  14.347  19.441  0.00  0.00    +0.000 OA
ATOM     15  H   UNL     1      11.733  14.440  18.729  0.00  0.00    +0.000 HD
ENDBRANCH  11  14
ENDBRANCH   7   8
ENDBRANCH   3   6
ENDBRANCH   1   2
BRANCH   1  16
ATOM     16  C   UNL     1       6.368   5.229  15.192  0.00  0.00    +0.000 C 
ATOM     17  O   UNL     1       5.507   4.595  14.591  0.00  0.00    +0.000 OA
BRANCH  16  19
ATOM     18  C   UNL     1       7.866   5.278  13.351  0.00  0.00    +0.000 C 
ATOM     19  O   UNL     1       7.647   5.400  14.758  0.00  0.00    +0.000 OA
ENDBRANCH  16  19
ENDBRANCH   1  16
BRANCH   1  20
ATOM     20  C   UNL     1       4.603   6.011  16.813  0.00  0.00    +0.000 C 
BRANCH  20  21
ATOM     21  C   UNL     1       4.164   5.217  18.029  0.00  0.00    +0.000 A 
ATOM     22  C   UNL     1       2.970   5.546  18.698  0.00  0.00    +0.000 A 
ATOM     23  C   UNL     1       2.461   4.719  19.702  0.00  0.00    +0.000 A 
ATOM     24  C   UNL     1       3.164   3.578  20.059  0.00  0.00    +0.000 A 
ATOM     25  C   UNL     1       4.394   3.298  19.470  0.00  0.00    +0.000 A 
ATOM     26  C   UNL     1       4.902   4.106  18.462  0.00  0.00    +0.000 A 
BRANCH  24  27
ATOM     27  O   UNL     1       2.672   2.683  20.967  0.00  0.00    +0.000 OA
ATOM     28  H   UNL     1       2.516   1.844  20.499  0.00  0.00    +0.000 HD
ENDBRANCH  24  27
BRANCH  25  29
ATOM     29  O   UNL     1       5.098   2.194  19.859  0.00  0.00    +0.000 OA
ATOM     30  H   UNL     1       6.002   2.351  19.517  0.00  0.00    +0.000 HD
ENDBRANCH  25  29
ENDBRANCH  20  21
ENDBRANCH   1  20
TORSDOF 10
ENDMDL
MODEL 6
REMARK VINA RESULT:      -8.4      1.143      1.527
REMARK  Name = 
REMARK  11 active torsions:
REMARK  status: ('A' for Active; 'I' for Inactive)
REMARK    1  A    between atoms: C_1  and  O_2
REMARK    2  A    between atoms: O_2  and  C_3
REMARK    3  A    between atoms: C_3  and  C_5
REMARK    4  A    between atoms: C_5  and  C_6
REMARK    5  A    between atoms: C_5  and  N_15
REMARK    6  A    between atoms: C_6  and  C_7
REMARK    7  A    between atoms: C_10  and  O_11
REMARK    8  A    between atoms: C_12  and  O_13
REMARK    9  A    between atoms: C_16  and  C_18
REMARK   10  A    between atoms: C_19  and  C_20
REMARK   11  A    between atoms: C_23  and  O_24
REMARK                            x       y       z     vdW  Elec       q    Type
REMARK                         _______ _______ _______ _____ _____    ______ ____
ROOT
ATOM      1  C   UNL     1       5.997   6.483  17.186  0.00  0.00    +0.000 C 
ENDROOT
BRANCH   1   2
ATOM      2  N   UNL     1       6.728   7.757  17.218  0.00  0.00    +0.000 N 
ATOM      3  C   UNL     1       7.831   7.908  18.019  0.00  0.00    +0.000 C 
ATOM      4  O   UNL     1       8.297   7.013  18.712  0.00  0.00    +0.000 OA
ATOM      5  H   UNL     1       6.361   8.543  16.696  0.00  0.00    +0.000 HD
BRANCH   3   6
ATOM      6  C   UNL     1       8.394   9.279  17.983  0.00  0.00    +0.000 C 
ATOM      7  C   UNL     1       9.129   9.720  19.016  0.00  0.00    +0.000 C 
BRANCH   7   8
ATOM      8  C   UNL     1       9.704  11.068  19.120  0.00  0.00    +0.000 A 
ATOM      9  C   UNL     1      10.203  11.578  20.331  0.00  0.00    +0.000 A 
ATOM     10  C   UNL     1      10.806  12.838  20.385  0.00  0.00    +0.000 A 
ATOM     11  C   UNL     1      10.921  13.587  19.219  0.00  0.00    +0.000 A 
ATOM     12  C   UNL     1      10.444  13.101  18.009  0.00  0.00    +0.000 A 
ATOM     13  C   UNL     1       9.841  11.843  17.963  0.00  0.00    +0.000 A 
BRANCH  11  14
ATOM     14  O   UNL     1      11.517  14.814  19.221  0.00  0.00    +0.000 OA
ATOM     15  H   UNL     1      12.335  14.761  19.740  0.00  0.00    +0.000 HD
ENDBRANCH  11  14
ENDBRANCH   7   8
ENDBRANCH   3   6
ENDBRANCH   1   2
BRANCH   1  16
ATOM     16  C   UNL     1       5.959   5.820  15.796  0.00  0.00    +0.000 C 
ATOM     17  O   UNL     1       5.338   6.286  14.847  0.00  0.00    +0.000 OA
BRANCH  16  19
ATOM     18  C   UNL     1       6.012   3.535  15.153  0.00  0.00    +0.000 C 
ATOM     19  O   UNL     1       6.661   4.653  15.763  0.00  0.00    +0.000 OA
ENDBRANCH  16  19
ENDBRANCH   1  16
BRANCH   1  20
ATOM     20  C   UNL     1       4.557   6.645  17.721  0.00  0.00    +0.000 C 
BRANCH  20  21
ATOM     21  C   UNL     1       3.948   5.317  18.129  0.00  0.00    +0.000 A 
ATOM     22  C   UNL     1       2.615   5.015  17.794  0.00  0.00    +0.000 A 
ATOM     23  C   UNL     1       2.097   3.734  18.001  0.00  0.00    +0.000 A 
ATOM     24  C   UNL     1       2.906   2.763  18.572  0.00  0.00    +0.000 A 
ATOM     25  C   UNL     1       4.193   3.080  18.995  0.00  0.00    +0.000 A 
ATOM     26  C   UNL     1       4.722   4.347  18.782  0.00  0.00    +0.000 A 
BRANCH  24  27
ATOM     27  O   UNL     1       2.487   1.470  18.715  0.00  0.00    +0.000 OA
ATOM     28  H   UNL     1       1.666   1.369  18.203  0.00  0.00    +0.000 HD
ENDBRANCH  24  27
BRANCH  25  29
ATOM     29  O   UNL     1       4.966   2.127  19.595  0.00  0.00    +0.000 OA
ATOM     30  H   UNL     1       4.324   1.549  20.055  0.00  0.00    +0.000 HD
ENDBRANCH  25  29
ENDBRANCH  20  21
ENDBRANCH   1  20
TORSDOF 10
ENDMDL
MODEL 7
REMARK VINA RESULT:      -8.4      1.071      1.188
REMARK  Name = 
REMARK  11 active torsions:
REMARK  status: ('A' for Active; 'I' for Inactive)
REMARK    1  A    between atoms: C_1  and  O_2
REMARK    2  A    between atoms: O_2  and  C_3
REMARK    3  A    between atoms: C_3  and  C_5
REMARK    4  A    between atoms: C_5  and  C_6
REMARK    5  A    between atoms: C_5  and  N_15
REMARK    6  A    between atoms: C_6  and  C_7
REMARK    7  A    between atoms: C_10  and  O_11
REMARK    8  A    between atoms: C_12  and  O_13
REMARK    9  A    between atoms: C_16  and  C_18
REMARK   10  A    between atoms: C_19  and  C_20
REMARK   11  A    between atoms: C_23  and  O_24
REMARK                            x       y       z     vdW  Elec       q    Type
REMARK                         _______ _______ _______ _____ _____    ______ ____
ROOT
ATOM      1  C   UNL     1       6.476   5.260  16.177  0.00  0.00    +0.000 C 
ENDROOT
BRANCH   1   2
ATOM      2  N   UNL     1       7.202   6.382  16.785  0.00  0.00    +0.000 N 
ATOM      3  C   UNL     1       7.681   6.290  18.067  0.00  0.00    +0.000 C 
ATOM      4  O   UNL     1       7.576   5.288  18.762  0.00  0.00    +0.000 OA
ATOM      5  H   UNL     1       7.280   7.249  16.269  0.00  0.00    +0.000 HD
BRANCH   3   6
ATOM      6  C   UNL     1       8.317   7.541  18.542  0.00  0.00    +0.000 C 
ATOM      7  C   UNL     1       8.041   8.700  17.924  0.00  0.00    +0.000 C 
BRANCH   7   8
ATOM      8  C   UNL     1       8.637   9.998  18.271  0.00  0.00    +0.000 A 
ATOM      9  C   UNL     1       8.358  11.168  17.545  0.00  0.00    +0.000 A 
ATOM     10  C   UNL     1       8.888  12.401  17.939  0.00  0.00    +0.000 A 
ATOM     11  C   UNL     1       9.690  12.465  19.073  0.00  0.00    +0.000 A 
ATOM     12  C   UNL     1       9.973  11.324  19.812  0.00  0.00    +0.000 A 
ATOM     13  C   UNL     1       9.443  10.096  19.411  0.00  0.00    +0.000 A 
BRANCH  11  14
ATOM     14  O   UNL     1      10.214  13.648  19.504  0.00  0.00    +0.000 OA
ATOM     15  H   UNL     1       9.486  14.263  19.681  0.00  0.00    +0.000 HD
ENDBRANCH  11  14
ENDBRANCH   7   8
ENDBRANCH   3   6
ENDBRANCH   1   2
BRANCH   1  16
ATOM     16  C   UNL     1       6.851   4.996  14.705  0.00  0.00    +0.000 C 
ATOM     17  O   UNL     1       7.855   5.460  14.176  0.00  0.00    +0.000 OA
BRANCH  16  19
ATOM     18  C   UNL     1       6.323   3.657  12.818  0.00  0.00    +0.000 C 
ATOM     19  O   UNL     1       5.928   4.225  14.069  0.00  0.00    +0.000 OA
ENDBRANCH  16  19
ENDBRANCH   1  16
BRANCH   1  20
ATOM     20  C   UNL     1       4.947   5.447  16.294  0.00  0.00    +0.000 C 
BRANCH  20  21
ATOM     21  C   UNL     1       4.367   4.678  17.466  0.00  0.00    +0.000 A 
ATOM     22  C   UNL     1       4.019   5.349  18.652  0.00  0.00    +0.000 A 
ATOM     23  C   UNL     1       3.320   4.693  19.669  0.00  0.00    +0.000 A 
ATOM     24  C   UNL     1       2.995   3.354  19.508  0.00  0.00    +0.000 A 
ATOM     25  C   UNL     1       3.419   2.658  18.381  0.00  0.00    +0.000 A 
ATOM     26  C   UNL     1       4.103   3.305  17.359  0.00  0.00    +0.000 A 
BRANCH  24  27
ATOM     27  O   UNL     1       2.233   2.683  20.424  0.00  0.00    +0.000 OA
ATOM     28  H   UNL     1       2.718   1.878  20.676  0.00  0.00    +0.000 HD
ENDBRANCH  24  27
BRANCH  25  29
ATOM     29  O   UNL     1       3.130   1.329  18.252  0.00  0.00    +0.000 OA
ATOM     30  H   UNL     1       2.208   1.251  18.572  0.00  0.00    +0.000 HD
ENDBRANCH  25  29
ENDBRANCH  20  21
ENDBRANCH   1  20
TORSDOF 10
ENDMDL
MODEL 8
REMARK VINA RESULT:      -8.3      1.163      1.827
REMARK  Name = 
REMARK  11 active torsions:
REMARK  status: ('A' for Active; 'I' for Inactive)
REMARK    1  A    between atoms: C_1  and  O_2
REMARK    2  A    between atoms: O_2  and  C_3
REMARK    3  A    between atoms: C_3  and  C_5
REMARK    4  A    between atoms: C_5  and  C_6
REMARK    5  A    between atoms: C_5  and  N_15
REMARK    6  A    between atoms: C_6  and  C_7
REMARK    7  A    between atoms: C_10  and  O_11
REMARK    8  A    between atoms: C_12  and  O_13
REMARK    9  A    between atoms: C_16  and  C_18
REMARK   10  A    between atoms: C_19  and  C_20
REMARK   11  A    between atoms: C_23  and  O_24
REMARK                            x       y       z     vdW  Elec       q    Type
REMARK                         _______ _______ _______ _____ _____    ______ ____
ROOT
ATOM      1  C   UNL     1       6.441   5.076  15.989  0.00  0.00    +0.000 C 
ENDROOT
BRANCH   1   2
ATOM      2  N   UNL     1       7.059   6.210  16.689  0.00  0.00    +0.000 N 
ATOM      3  C   UNL     1       7.593   6.047  17.942  0.00  0.00    +0.000 C 
ATOM      4  O   UNL     1       7.628   4.976  18.534  0.00  0.00    +0.000 OA
ATOM      5  H   UNL     1       7.020   7.126  16.263  0.00  0.00    +0.000 HD
BRANCH   3   6
ATOM      6  C   UNL     1       8.103   7.311  18.526  0.00  0.00    +0.000 C 
ATOM      7  C   UNL     1       8.020   8.448  17.817  0.00  0.00    +0.000 C 
BRANCH   7   8
ATOM      8  C   UNL     1       8.526   9.753  18.265  0.00  0.00    +0.000 A 
ATOM      9  C   UNL     1       9.337   9.891  19.404  0.00  0.00    +0.000 A 
ATOM     10  C   UNL     1       9.860  11.136  19.767  0.00  0.00    +0.000 A 
ATOM     11  C   UNL     1       9.579  12.247  18.979  0.00  0.00    +0.000 A 
ATOM     12  C   UNL     1       8.788  12.134  17.844  0.00  0.00    +0.000 A 
ATOM     13  C   UNL     1       8.268  10.888  17.488  0.00  0.00    +0.000 A 
BRANCH  11  14
ATOM     14  O   UNL     1      10.081  13.478  19.285  0.00  0.00    +0.000 OA
ATOM     15  H   UNL     1      11.016  13.504  19.029  0.00  0.00    +0.000 HD
ENDBRANCH  11  14
ENDBRANCH   7   8
ENDBRANCH   3   6
ENDBRANCH   1   2
BRANCH   1  16
ATOM     16  C   UNL     1       6.969   4.864  14.557  0.00  0.00    +0.000 C 
ATOM     17  O   UNL     1       7.923   5.481  14.095  0.00  0.00    +0.000 OA
BRANCH  16  19
ATOM     18  C   UNL     1       6.608   3.722  12.507  0.00  0.00    +0.000 C 
ATOM     19  O   UNL     1       6.236   3.946  13.869  0.00  0.00    +0.000 OA
ENDBRANCH  16  19
ENDBRANCH   1  16
BRANCH   1  20
ATOM     20  C   UNL     1       4.902   5.203  15.959  0.00  0.00    +0.000 C 
BRANCH  20  21
ATOM     21  C   UNL     1       4.256   4.605  17.194  0.00  0.00    +0.000 A 
ATOM     22  C   UNL     1       4.106   3.211  17.312  0.00  0.00    +0.000 A 
ATOM     23  C   UNL     1       3.682   2.635  18.513  0.00  0.00    +0.000 A 
ATOM     24  C   UNL     1       3.379   3.459  19.587  0.00  0.00    +0.000 A 
ATOM     25  C   UNL     1       3.431   4.843  19.447  0.00  0.00    +0.000 A 
ATOM     26  C   UNL     1       3.865   5.424  18.263  0.00  0.00    +0.000 A 
BRANCH  24  27
ATOM     27  O   UNL     1       3.049   2.952  20.812  0.00  0.00    +0.000 OA
ATOM     28  H   UNL     1       3.551   3.450  21.481  0.00  0.00    +0.000 HD
ENDBRANCH  24  27
BRANCH  25  29
ATOM     29  O   UNL     1       3.091   5.646  20.499  0.00  0.00    +0.000 OA
ATOM     30  H   UNL     1       2.752   6.462  20.079  0.00  0.00    +0.000 HD
ENDBRANCH  25  29
ENDBRANCH  20  21
ENDBRANCH   1  20
TORSDOF 10
ENDMDL
MODEL 9
REMARK VINA RESULT:      -8.3      1.422      1.825
REMARK  Name = 
REMARK  11 active torsions:
REMARK  status: ('A' for Active; 'I' for Inactive)
REMARK    1  A    between atoms: C_1  and  O_2
REMARK    2  A    between atoms: O_2  and  C_3
REMARK    3  A    between atoms: C_3  and  C_5
REMARK    4  A    between atoms: C_5  and  C_6
REMARK    5  A    between atoms: C_5  and  N_15
REMARK    6  A    between atoms: C_6  and  C_7
REMARK    7  A    between atoms: C_10  and  O_11
REMARK    8  A    between atoms: C_12  and  O_13
REMARK    9  A    between atoms: C_16  and  C_18
REMARK   10  A    between atoms: C_19  and  C_20
REMARK   11  A    between atoms: C_23  and  O_24
REMARK                            x       y       z     vdW  Elec       q    Type
REMARK                         _______ _______ _______ _____ _____    ______ ____
ROOT
ATOM      1  C   UNL     1       5.939   6.094  17.147  0.00  0.00    +0.000 C 
ENDROOT
BRANCH   1   2
ATOM      2  N   UNL     1       6.672   7.367  17.158  0.00  0.00    +0.000 N 
ATOM      3  C   UNL     1       7.722   7.559  18.020  0.00  0.00    +0.000 C 
ATOM      4  O   UNL     1       8.137   6.702  18.789  0.00  0.00    +0.000 OA
ATOM      5  H   UNL     1       6.343   8.123  16.572  0.00  0.00    +0.000 HD
BRANCH   3   6
ATOM      6  C   UNL     1       8.292   8.925  17.947  0.00  0.00    +0.000 C 
ATOM      7  C   UNL     1       9.004   9.401  18.980  0.00  0.00    +0.000 C 
BRANCH   7   8
ATOM      8  C   UNL     1       9.584  10.749  19.049  0.00  0.00    +0.000 A 
ATOM      9  C   UNL     1       9.742  11.436  20.264  0.00  0.00    +0.000 A 
ATOM     10  C   UNL     1      10.358  12.690  20.306  0.00  0.00    +0.000 A 
ATOM     11  C   UNL     1      10.830  13.255  19.126  0.00  0.00    +0.000 A 
ATOM     12  C   UNL     1      10.693  12.593  17.914  0.00  0.00    +0.000 A 
ATOM     13  C   UNL     1      10.074  11.341  17.879  0.00  0.00    +0.000 A 
BRANCH  11  14
ATOM     14  O   UNL     1      11.452  14.469  19.121  0.00  0.00    +0.000 OA
ATOM     15  H   UNL     1      12.335  14.363  18.732  0.00  0.00    +0.000 HD
ENDBRANCH  11  14
ENDBRANCH   7   8
ENDBRANCH   3   6
ENDBRANCH   1   2
BRANCH   1  16
ATOM     16  C   UNL     1       6.505   5.056  16.159  0.00  0.00    +0.000 C 
ATOM     17  O   UNL     1       6.263   3.856  16.235  0.00  0.00    +0.000 OA
BRANCH  16  19
ATOM     18  C   UNL     1       7.297   5.041  13.921  0.00  0.00    +0.000 C 
ATOM     19  O   UNL     1       7.319   5.623  15.227  0.00  0.00    +0.000 OA
ENDBRANCH  16  19
ENDBRANCH   1  16
BRANCH   1  20
ATOM     20  C   UNL     1       4.436   6.310  16.865  0.00  0.00    +0.000 C 
BRANCH  20  21
ATOM     21  C   UNL     1       3.557   5.577  17.861  0.00  0.00    +0.000 A 
ATOM     22  C   UNL     1       3.383   6.084  19.162  0.00  0.00    +0.000 A 
ATOM     23  C   UNL     1       2.441   5.525  20.029  0.00  0.00    +0.000 A 
ATOM     24  C   UNL     1       1.693   4.437  19.602  0.00  0.00    +0.000 A 
ATOM     25  C   UNL     1       1.928   3.870  18.354  0.00  0.00    +0.000 A 
ATOM     26  C   UNL     1       2.853   4.426  17.480  0.00  0.00    +0.000 A 
BRANCH  24  27
ATOM     27  O   UNL     1       0.694   3.906  20.368  0.00  0.00    +0.000 OA
ATOM     28  H   UNL     1      -0.055   3.707  19.779  0.00  0.00    +0.000 HD
ENDBRANCH  24  27
BRANCH  25  29
ATOM     29  O   UNL     1       1.215   2.773  17.961  0.00  0.00    +0.000 OA
ATOM     30  H   UNL     1       0.915   2.991  17.055  0.00  0.00    +0.000 HD
ENDBRANCH  25  29
ENDBRANCH  20  21
ENDBRANCH   1  20
TORSDOF 10
ENDMDL
