MODEL 1
REMARK VINA RESULT:      -7.8      0.000      0.000
REMARK  Name = 
REMARK  8 active torsions:
REMARK  status: ('A' for Active; 'I' for Inactive)
REMARK    1  A    between atoms: C_1  and  O_2
REMARK    2  A    between atoms: O_2  and  C_3
REMARK    3  A    between atoms: C_6  and  C_7
REMARK    4  A    between atoms: C_10  and  N_11
REMARK    5  A    between atoms: C_12  and  C_13
REMARK    6  A    between atoms: C_16  and  O_17
REMARK    7  A    between atoms: C_18  and  O_19
REMARK    8  A    between atoms: O_19  and  C_20
REMARK                            x       y       z     vdW  Elec       q    Type
REMARK                         _______ _______ _______ _____ _____    ______ ____
ROOT
ATOM      1  C   UNL     1       2.249   6.585  19.963  0.00  0.00    +0.000 A 
ATOM      2  C   UNL     1       2.039   5.441  20.722  0.00  0.00    +0.000 A 
ATOM      3  N   UNL     1       2.611   4.243  20.493  0.00  0.00    +0.000 NA
ATOM      4  C   UNL     1       3.482   4.145  19.466  0.00  0.00    +0.000 A 
ATOM      5  C   UNL     1       3.820   5.228  18.632  0.00  0.00    +0.000 A 
ATOM      6  C   UNL     1       3.153   6.441  18.905  0.00  0.00    +0.000 A 
ENDROOT
BRANCH   1  10
ATOM      7  C   UNL     1       0.360  10.316  20.615  0.00  0.00    +0.000 A 
ATOM      8  C   UNL     1       0.303   9.385  21.636  0.00  0.00    +0.000 A 
ATOM      9  C   UNL     1       0.901   8.143  21.425  0.00  0.00    +0.000 A 
ATOM     10  C   UNL     1       1.557   7.859  20.215  0.00  0.00    +0.000 A 
ATOM     11  C   UNL     1       1.544   8.880  19.266  0.00  0.00    +0.000 A 
ATOM     12  N   UNL     1       0.966  10.090  19.433  0.00  0.00    +0.000 NA
BRANCH   7  14
ATOM     13  C   UNL     1      -0.639  11.688  22.204  0.00  0.00    +0.000 C 
ATOM     14  O   UNL     1      -0.250  11.532  20.840  0.00  0.00    +0.000 OA
ENDBRANCH   7  14
ENDBRANCH   1  10
BRANCH   5  15
ATOM     15  C   UNL     1       4.834   5.181  17.544  0.00  0.00    +0.000 A 
ATOM     16  C   UNL     1       4.703   4.286  16.465  0.00  0.00    +0.000 A 
ATOM     17  C   UNL     1       5.630   4.253  15.420  0.00  0.00    +0.000 A 
ATOM     18  C   UNL     1       6.699   5.147  15.405  0.00  0.00    +0.000 A 
ATOM     19  C   UNL     1       6.865   6.053  16.453  0.00  0.00    +0.000 A 
ATOM     20  C   UNL     1       5.955   6.026  17.519  0.00  0.00    +0.000 A 
BRANCH  18  21
ATOM     21  O   UNL     1       7.567   5.101  14.350  0.00  0.00    +0.000 OA
ATOM     22  H   UNL     1       8.140   5.884  14.374  0.00  0.00    +0.000 HD
ENDBRANCH  18  21
BRANCH  19  23
ATOM     23  O   UNL     1       7.815   7.025  16.605  0.00  0.00    +0.000 OA
ATOM     24  C   UNL     1       7.693   7.917  17.699  0.00  0.00    +0.000 C 
ENDBRANCH  19  23
ENDBRANCH   5  15
BRANCH   4  25
ATOM     25  N   UNL     1       3.968   2.856  19.284  0.00  0.00    +0.000 N 
ATOM     26  H   UNL     1       3.233   2.205  19.546  0.00  0.00    +0.000 HD
ATOM     27  H   UNL     1       4.834   2.694  19.782  0.00  0.00    +0.000 HD
ENDBRANCH   4  25
TORSDOF 6
ENDMDL
MODEL 2
REMARK VINA RESULT:      -7.6      0.935      1.256
REMARK  Name = 
REMARK  8 active torsions:
REMARK  status: ('A' for Active; 'I' for Inactive)
REMARK    1  A    between atoms: C_1  and  O_2
REMARK    2  A    between atoms: O_2  and  C_3
REMARK    3  A    between atoms: C_6  and  C_7
REMARK    4  A    between atoms: C_10  and  N_11
REMARK    5  A    between atoms: C_12  and  C_13
REMARK    6  A    between atoms: C_16  and  O_17
REMARK    7  A    between atoms: C_18  and  O_19
REMARK    8  A    between atoms: O_19  and  C_20
REMARK                            x       y       z     vdW  Elec       q    Type
REMARK                         _______ _______ _______ _____ _____    ______ ____
ROOT
ATOM      1  C   UNL     1       2.106   7.124  19.816  0.00  0.00    +0.000 A 
ATOM      2  C   UNL     1       1.882   6.073  20.696  0.00  0.00    +0.000 A 
ATOM      3  N   UNL     1       2.463   4.860  20.620  0.00  0.00    +0.000 NA
ATOM      4  C   UNL     1       3.359   4.651  19.631  0.00  0.00    +0.000 A 
ATOM      5  C   UNL     1       3.713   5.633  18.686  0.00  0.00    +0.000 A 
ATOM      6  C   UNL     1       3.035   6.865  18.802  0.00  0.00    +0.000 A 
ENDROOT
BRANCH   1  10
ATOM      7  C   UNL     1      -0.014  10.772  20.149  0.00  0.00    +0.000 A 
ATOM      8  C   UNL     1       0.613  10.506  18.945  0.00  0.00    +0.000 A 
ATOM      9  C   UNL     1       1.335   9.318  18.831  0.00  0.00    +0.000 A 
ATOM     10  C   UNL     1       1.403   8.414  19.904  0.00  0.00    +0.000 A 
ATOM     11  C   UNL     1       0.729   8.798  21.062  0.00  0.00    +0.000 A 
ATOM     12  N   UNL     1       0.030   9.945  21.211  0.00  0.00    +0.000 NA
BRANCH   7  14
ATOM     13  C   UNL     1      -1.978  11.887  19.595  0.00  0.00    +0.000 C 
ATOM     14  O   UNL     1      -0.709  11.959  20.245  0.00  0.00    +0.000 OA
ENDBRANCH   7  14
ENDBRANCH   1  10
BRANCH   5  15
ATOM     15  C   UNL     1       4.752   5.468  17.634  0.00  0.00    +0.000 A 
ATOM     16  C   UNL     1       4.612   4.504  16.617  0.00  0.00    +0.000 A 
ATOM     17  C   UNL     1       5.565   4.359  15.605  0.00  0.00    +0.000 A 
ATOM     18  C   UNL     1       6.672   5.205  15.560  0.00  0.00    +0.000 A 
ATOM     19  C   UNL     1       6.848   6.176  16.546  0.00  0.00    +0.000 A 
ATOM     20  C   UNL     1       5.909   6.262  17.584  0.00  0.00    +0.000 A 
BRANCH  18  21
ATOM     21  O   UNL     1       7.564   5.049  14.537  0.00  0.00    +0.000 OA
ATOM     22  H   UNL     1       8.431   5.384  14.816  0.00  0.00    +0.000 HD
ENDBRANCH  18  21
BRANCH  19  23
ATOM     23  O   UNL     1       7.834   7.117  16.659  0.00  0.00    +0.000 OA
ATOM     24  C   UNL     1       7.741   8.064  17.709  0.00  0.00    +0.000 C 
ENDBRANCH  19  23
ENDBRANCH   5  15
BRANCH   4  25
ATOM     25  N   UNL     1       3.853   3.352  19.610  0.00  0.00    +0.000 N 
ATOM     26  H   UNL     1       3.218   2.785  19.056  0.00  0.00    +0.000 HD
ATOM     27  H   UNL     1       4.007   2.980  20.539  0.00  0.00    +0.000 HD
ENDBRANCH   4  25
TORSDOF 6
ENDMDL
MODEL 3
REMARK VINA RESULT:      -7.6      1.858      7.815
REMARK  Name = 
REMARK  8 active torsions:
REMARK  status: ('A' for Active; 'I' for Inactive)
REMARK    1  A    between atoms: C_1  and  O_2
REMARK    2  A    between atoms: O_2  and  C_3
REMARK    3  A    between atoms: C_6  and  C_7
REMARK    4  A    between atoms: C_10  and  N_11
REMARK    5  A    between atoms: C_12  and  C_13
REMARK    6  A    between atoms: C_16  and  O_17
REMARK    7  A    between atoms: C_18  and  O_19
REMARK    8  A    between atoms: O_19  and  C_20
REMARK                            x       y       z     vdW  Elec       q    Type
REMARK                         _______ _______ _______ _____ _____    ______ ____
ROOT
ATOM      1  C   UNL     1       4.581   4.987  17.639  0.00  0.00    +0.000 A 
ATOM      2  C   UNL     1       4.475   3.940  18.543  0.00  0.00    +0.000 A 
ATOM      3  N   UNL     1       3.761   3.970  19.685  0.00  0.00    +0.000 NA
ATOM      4  C   UNL     1       3.066   5.094  19.965  0.00  0.00    +0.000 A 
ATOM      5  C   UNL     1       3.049   6.224  19.125  0.00  0.00    +0.000 A 
ATOM      6  C   UNL     1       3.851   6.136  17.967  0.00  0.00    +0.000 A 
ENDROOT
BRANCH   1  10
ATOM      7  C   UNL     1       7.028   4.958  14.185  0.00  0.00    +0.000 A 
ATOM      8  C   UNL     1       5.874   4.196  14.156  0.00  0.00    +0.000 A 
ATOM      9  C   UNL     1       5.071   4.179  15.297  0.00  0.00    +0.000 A 
ATOM     10  C   UNL     1       5.421   4.929  16.431  0.00  0.00    +0.000 A 
ATOM     11  C   UNL     1       6.607   5.655  16.335  0.00  0.00    +0.000 A 
ATOM     12  N   UNL     1       7.414   5.686  15.251  0.00  0.00    +0.000 NA
BRANCH   7  14
ATOM     13  C   UNL     1       7.210   4.213  11.991  0.00  0.00    +0.000 C 
ATOM     14  O   UNL     1       7.815   4.949  13.053  0.00  0.00    +0.000 OA
ENDBRANCH   7  14
ENDBRANCH   1  10
BRANCH   5  15
ATOM     15  C   UNL     1       2.234   7.446  19.356  0.00  0.00    +0.000 A 
ATOM     16  C   UNL     1       2.134   8.452  18.376  0.00  0.00    +0.000 A 
ATOM     17  C   UNL     1       1.347   9.591  18.568  0.00  0.00    +0.000 A 
ATOM     18  C   UNL     1       0.602   9.737  19.737  0.00  0.00    +0.000 A 
ATOM     19  C   UNL     1       0.669   8.762  20.733  0.00  0.00    +0.000 A 
ATOM     20  C   UNL     1       1.512   7.659  20.542  0.00  0.00    +0.000 A 
BRANCH  18  21
ATOM     21  O   UNL     1      -0.178  10.851  19.872  0.00  0.00    +0.000 OA
ATOM     22  H   UNL     1      -1.091  10.633  19.625  0.00  0.00    +0.000 HD
ENDBRANCH  18  21
BRANCH  19  23
ATOM     23  O   UNL     1      -0.005   8.702  21.921  0.00  0.00    +0.000 OA
ATOM     24  C   UNL     1       0.434   9.531  22.984  0.00  0.00    +0.000 C 
ENDBRANCH  19  23
ENDBRANCH   5  15
BRANCH   4  25
ATOM     25  N   UNL     1       2.413   5.040  21.191  0.00  0.00    +0.000 N 
ATOM     26  H   UNL     1       1.508   5.489  21.082  0.00  0.00    +0.000 HD
ATOM     27  H   UNL     1       2.963   5.437  21.941  0.00  0.00    +0.000 HD
ENDBRANCH   4  25
TORSDOF 6
ENDMDL
MODEL 4
REMARK VINA RESULT:      -7.6      1.402      1.616
REMARK  Name = 
REMARK  8 active torsions:
REMARK  status: ('A' for Active; 'I' for Inactive)
REMARK    1  A    between atoms: C_1  and  O_2
REMARK    2  A    between atoms: O_2  and  C_3
REMARK    3  A    between atoms: C_6  and  C_7
REMARK    4  A    between atoms: C_10  and  N_11
REMARK    5  A    between atoms: C_12  and  C_13
REMARK    6  A    between atoms: C_16  and  O_17
REMARK    7  A    between atoms: C_18  and  O_19
REMARK    8  A    between atoms: O_19  and  C_20
REMARK                            x       y       z     vdW  Elec       q    Type
REMARK                         _______ _______ _______ _____ _____    ______ ____
ROOT
ATOM      1  C   UNL     1       1.833   6.861  20.278  0.00  0.00    +0.000 A 
ATOM      2  C   UNL     1       1.164   5.757  20.789  0.00  0.00    +0.000 A 
ATOM      3  N   UNL     1       1.431   4.475  20.475  0.00  0.00    +0.000 NA
ATOM      4  C   UNL     1       2.448   4.233  19.621  0.00  0.00    +0.000 A 
ATOM      5  C   UNL     1       3.239   5.250  19.050  0.00  0.00    +0.000 A 
ATOM      6  C   UNL     1       2.876   6.570  19.392  0.00  0.00    +0.000 A 
ENDROOT
BRANCH   1  10
ATOM      7  C   UNL     1       0.716  10.805  21.336  0.00  0.00    +0.000 A 
ATOM      8  C   UNL     1       0.740  10.487  19.990  0.00  0.00    +0.000 A 
ATOM      9  C   UNL     1       1.129   9.198  19.627  0.00  0.00    +0.000 A 
ATOM     10  C   UNL     1       1.468   8.249  20.606  0.00  0.00    +0.000 A 
ATOM     11  C   UNL     1       1.405   8.692  21.926  0.00  0.00    +0.000 A 
ATOM     12  N   UNL     1       1.043   9.936  22.312  0.00  0.00    +0.000 NA
BRANCH   7  14
ATOM     13  C   UNL     1      -0.859  12.110  22.441  0.00  0.00    +0.000 C 
ATOM     14  O   UNL     1       0.343  12.089  21.671  0.00  0.00    +0.000 OA
ENDBRANCH   7  14
ENDBRANCH   1  10
BRANCH   5  15
ATOM     15  C   UNL     1       4.417   5.021  18.171  0.00  0.00    +0.000 A 
ATOM     16  C   UNL     1       4.278   4.946  16.772  0.00  0.00    +0.000 A 
ATOM     17  C   UNL     1       5.380   4.762  15.932  0.00  0.00    +0.000 A 
ATOM     18  C   UNL     1       6.664   4.688  16.469  0.00  0.00    +0.000 A 
ATOM     19  C   UNL     1       6.847   4.761  17.850  0.00  0.00    +0.000 A 
ATOM     20  C   UNL     1       5.720   4.884  18.675  0.00  0.00    +0.000 A 
BRANCH  18  21
ATOM     21  O   UNL     1       7.716   4.538  15.610  0.00  0.00    +0.000 OA
ATOM     22  H   UNL     1       7.962   3.600  15.568  0.00  0.00    +0.000 HD
ENDBRANCH  18  21
BRANCH  19  23
ATOM     23  O   UNL     1       8.014   4.745  18.563  0.00  0.00    +0.000 OA
ATOM     24  C   UNL     1       8.172   5.686  19.611  0.00  0.00    +0.000 C 
ENDBRANCH  19  23
ENDBRANCH   5  15
BRANCH   4  25
ATOM     25  N   UNL     1       2.600   2.884  19.321  0.00  0.00    +0.000 N 
ATOM     26  H   UNL     1       1.711   2.540  18.971  0.00  0.00    +0.000 HD
ATOM     27  H   UNL     1       2.949   2.350  20.107  0.00  0.00    +0.000 HD
ENDBRANCH   4  25
TORSDOF 6
ENDMDL
MODEL 5
REMARK VINA RESULT:      -7.5      3.213      4.331
REMARK  Name = 
REMARK  8 active torsions:
REMARK  status: ('A' for Active; 'I' for Inactive)
REMARK    1  A    between atoms: C_1  and  O_2
REMARK    2  A    between atoms: O_2  and  C_3
REMARK    3  A    between atoms: C_6  and  C_7
REMARK    4  A    between atoms: C_10  and  N_11
REMARK    5  A    between atoms: C_12  and  C_13
REMARK    6  A    between atoms: C_16  and  O_17
REMARK    7  A    between atoms: C_18  and  O_19
REMARK    8  A    between atoms: O_19  and  C_20
REMARK                            x       y       z     vdW  Elec       q    Type
REMARK                         _______ _______ _______ _____ _____    ______ ____
ROOT
ATOM      1  C   UNL     1       1.466   8.759  19.600  0.00  0.00    +0.000 A 
ATOM      2  C   UNL     1       1.751   9.351  18.377  0.00  0.00    +0.000 A 
ATOM      3  N   UNL     1       2.557   8.830  17.432  0.00  0.00    +0.000 NA
ATOM      4  C   UNL     1       3.111   7.622  17.671  0.00  0.00    +0.000 A 
ATOM      5  C   UNL     1       2.884   6.886  18.850  0.00  0.00    +0.000 A 
ATOM      6  C   UNL     1       2.063   7.511  19.812  0.00  0.00    +0.000 A 
ENDROOT
BRANCH   1  10
ATOM      7  C   UNL     1      -0.928  10.710  22.494  0.00  0.00    +0.000 A 
ATOM      8  C   UNL     1      -0.171   9.632  22.914  0.00  0.00    +0.000 A 
ATOM      9  C   UNL     1       0.604   8.965  21.965  0.00  0.00    +0.000 A 
ATOM     10  C   UNL     1       0.624   9.393  20.628  0.00  0.00    +0.000 A 
ATOM     11  C   UNL     1      -0.183  10.491  20.331  0.00  0.00    +0.000 A 
ATOM     12  N   UNL     1      -0.953  11.153  21.222  0.00  0.00    +0.000 NA
BRANCH   7  14
ATOM     13  C   UNL     1      -1.781  12.750  23.212  0.00  0.00    +0.000 C 
ATOM     14  O   UNL     1      -1.698  11.344  23.446  0.00  0.00    +0.000 OA
ENDBRANCH   7  14
ENDBRANCH   1  10
BRANCH   5  15
ATOM     15  C   UNL     1       3.409   5.519  19.116  0.00  0.00    +0.000 A 
ATOM     16  C   UNL     1       4.781   5.228  18.987  0.00  0.00    +0.000 A 
ATOM     17  C   UNL     1       5.292   3.957  19.263  0.00  0.00    +0.000 A 
ATOM     18  C   UNL     1       4.446   2.947  19.717  0.00  0.00    +0.000 A 
ATOM     19  C   UNL     1       3.081   3.193  19.863  0.00  0.00    +0.000 A 
ATOM     20  C   UNL     1       2.583   4.459  19.522  0.00  0.00    +0.000 A 
BRANCH  18  21
ATOM     21  O   UNL     1       4.992   1.727  20.005  0.00  0.00    +0.000 OA
ATOM     22  H   UNL     1       5.875   1.671  19.606  0.00  0.00    +0.000 HD
ENDBRANCH  18  21
BRANCH  19  23
ATOM     23  O   UNL     1       2.102   2.357  20.324  0.00  0.00    +0.000 OA
ATOM     24  C   UNL     1       1.369   2.751  21.471  0.00  0.00    +0.000 C 
ENDBRANCH  19  23
ENDBRANCH   5  15
BRANCH   4  25
ATOM     25  N   UNL     1       3.967   7.204  16.659  0.00  0.00    +0.000 N 
ATOM     26  H   UNL     1       4.913   7.212  17.028  0.00  0.00    +0.000 HD
ATOM     27  H   UNL     1       3.868   7.754  15.816  0.00  0.00    +0.000 HD
ENDBRANCH   4  25
TORSDOF 6
ENDMDL
MODEL 6
REMARK VINA RESULT:      -7.4      2.528      3.700
REMARK  Name = 
REMARK  8 active torsions:
REMARK  status: ('A' for Active; 'I' for Inactive)
REMARK    1  A    between atoms: C_1  and  O_2
REMARK    2  A    between atoms: O_2  and  C_3
REMARK    3  A    between atoms: C_6  and  C_7
REMARK    4  A    between atoms: C_10  and  N_11
REMARK    5  A    between atoms: C_12  and  C_13
REMARK    6  A    between atoms: C_16  and  O_17
REMARK    7  A    between atoms: C_18  and  O_19
REMARK    8  A    between atoms: O_19  and  C_20
REMARK                            x       y       z     vdW  Elec       q    Type
REMARK                         _______ _______ _______ _____ _____    ______ ____
ROOT
ATOM      1  C   UNL     1       1.268   8.979  19.675  0.00  0.00    +0.000 A 
ATOM      2  C   UNL     1       1.485   9.544  18.426  0.00  0.00    +0.000 A 
ATOM      3  N   UNL     1       2.281   9.029  17.469  0.00  0.00    +0.000 NA
ATOM      4  C   UNL     1       2.896   7.855  17.724  0.00  0.00    +0.000 A 
ATOM      5  C   UNL     1       2.744   7.148  18.932  0.00  0.00    +0.000 A 
ATOM      6  C   UNL     1       1.928   7.766  19.903  0.00  0.00    +0.000 A 
ENDROOT
BRANCH   1  10
ATOM      7  C   UNL     1      -1.101  10.914  22.601  0.00  0.00    +0.000 A 
ATOM      8  C   UNL     1      -0.378   9.803  22.997  0.00  0.00    +0.000 A 
ATOM      9  C   UNL     1       0.387   9.142  22.036  0.00  0.00    +0.000 A 
ATOM     10  C   UNL     1       0.434   9.607  20.712  0.00  0.00    +0.000 A 
ATOM     11  C   UNL     1      -0.338  10.736  20.439  0.00  0.00    +0.000 A 
ATOM     12  N   UNL     1      -1.099  11.394  21.342  0.00  0.00    +0.000 NA
BRANCH   7  14
ATOM     13  C   UNL     1      -1.952  12.949  23.335  0.00  0.00    +0.000 C 
ATOM     14  O   UNL     1      -1.862  11.543  23.562  0.00  0.00    +0.000 OA
ENDBRANCH   7  14
ENDBRANCH   1  10
BRANCH   5  15
ATOM     15  C   UNL     1       3.339   5.815  19.220  0.00  0.00    +0.000 A 
ATOM     16  C   UNL     1       2.547   4.751  19.693  0.00  0.00    +0.000 A 
ATOM     17  C   UNL     1       3.087   3.485  19.938  0.00  0.00    +0.000 A 
ATOM     18  C   UNL     1       4.433   3.236  19.677  0.00  0.00    +0.000 A 
ATOM     19  C   UNL     1       5.253   4.261  19.204  0.00  0.00    +0.000 A 
ATOM     20  C   UNL     1       4.701   5.538  19.024  0.00  0.00    +0.000 A 
BRANCH  18  21
ATOM     21  O   UNL     1       4.914   1.976  19.902  0.00  0.00    +0.000 OA
ATOM     22  H   UNL     1       4.209   1.331  19.729  0.00  0.00    +0.000 HD
ENDBRANCH  18  21
BRANCH  19  23
ATOM     23  O   UNL     1       6.574   4.212  18.856  0.00  0.00    +0.000 OA
ATOM     24  C   UNL     1       6.961   4.770  17.612  0.00  0.00    +0.000 C 
ENDBRANCH  19  23
ENDBRANCH   5  15
BRANCH   4  25
ATOM     25  N   UNL     1       3.736   7.444  16.696  0.00  0.00    +0.000 N 
ATOM     26  H   UNL     1       3.159   7.040  15.964  0.00  0.00    +0.000 HD
ATOM     27  H   UNL     1       4.464   6.818  17.016  0.00  0.00    +0.000 HD
ENDBRANCH   4  25
TORSDOF 6
ENDMDL
MODEL 7
REMARK VINA RESULT:      -7.3      1.862      7.567
REMARK  Name = 
REMARK  8 active torsions:
REMARK  status: ('A' for Active; 'I' for Inactive)
REMARK    1  A    between atoms: C_1  and  O_2
REMARK    2  A    between atoms: O_2  and  C_3
REMARK    3  A    between atoms: C_6  and  C_7
REMARK    4  A    between atoms: C_10  and  N_11
REMARK    5  A    between atoms: C_12  and  C_13
REMARK    6  A    between atoms: C_16  and  O_17
REMARK    7  A    between atoms: C_18  and  O_19
REMARK    8  A    between atoms: O_19  and  C_20
REMARK                            x       y       z     vdW  Elec       q    Type
REMARK                         _______ _______ _______ _____ _____    ______ ____
ROOT
ATOM      1  C   UNL     1       4.555   4.918  17.786  0.00  0.00    +0.000 A 
ATOM      2  C   UNL     1       4.426   3.810  18.613  0.00  0.00    +0.000 A 
ATOM      3  N   UNL     1       3.696   3.767  19.744  0.00  0.00    +0.000 NA
ATOM      4  C   UNL     1       3.007   4.874  20.093  0.00  0.00    +0.000 A 
ATOM      5  C   UNL     1       3.012   6.061  19.334  0.00  0.00    +0.000 A 
ATOM      6  C   UNL     1       3.830   6.047  18.184  0.00  0.00    +0.000 A 
ENDROOT
BRANCH   1  10
ATOM      7  C   UNL     1       7.044   5.111  14.368  0.00  0.00    +0.000 A 
ATOM      8  C   UNL     1       5.923   4.305  14.296  0.00  0.00    +0.000 A 
ATOM      9  C   UNL     1       5.107   4.214  15.424  0.00  0.00    +0.000 A 
ATOM     10  C   UNL     1       5.411   4.937  16.589  0.00  0.00    +0.000 A 
ATOM     11  C   UNL     1       6.568   5.713  16.535  0.00  0.00    +0.000 A 
ATOM     12  N   UNL     1       7.386   5.816  15.464  0.00  0.00    +0.000 NA
BRANCH   7  14
ATOM     13  C   UNL     1       7.290   4.442  12.156  0.00  0.00    +0.000 C 
ATOM     14  O   UNL     1       7.845   5.175  13.248  0.00  0.00    +0.000 OA
ENDBRANCH   7  14
ENDBRANCH   1  10
BRANCH   5  15
ATOM     15  C   UNL     1       2.204   7.272  19.640  0.00  0.00    +0.000 A 
ATOM     16  C   UNL     1       1.584   7.436  20.894  0.00  0.00    +0.000 A 
ATOM     17  C   UNL     1       0.848   8.582  21.207  0.00  0.00    +0.000 A 
ATOM     18  C   UNL     1       0.744   9.619  20.282  0.00  0.00    +0.000 A 
ATOM     19  C   UNL     1       1.346   9.500  19.029  0.00  0.00    +0.000 A 
ATOM     20  C   UNL     1       2.027   8.315  18.717  0.00  0.00    +0.000 A 
BRANCH  18  21
ATOM     21  O   UNL     1       0.040  10.736  20.639  0.00  0.00    +0.000 OA
ATOM     22  H   UNL     1      -0.465  11.052  19.872  0.00  0.00    +0.000 HD
ENDBRANCH  18  21
BRANCH  19  23
ATOM     23  O   UNL     1       1.390  10.409  18.008  0.00  0.00    +0.000 OA
ATOM     24  C   UNL     1       2.213  11.553  18.164  0.00  0.00    +0.000 C 
ENDBRANCH  19  23
ENDBRANCH   5  15
BRANCH   4  25
ATOM     25  N   UNL     1       2.336   4.740  21.302  0.00  0.00    +0.000 N 
ATOM     26  H   UNL     1       1.942   3.805  21.339  0.00  0.00    +0.000 HD
ATOM     27  H   UNL     1       1.645   5.466  21.445  0.00  0.00    +0.000 HD
ENDBRANCH   4  25
TORSDOF 6
ENDMDL
MODEL 8
REMARK VINA RESULT:      -7.2      2.515      7.986
REMARK  Name = 
REMARK  8 active torsions:
REMARK  status: ('A' for Active; 'I' for Inactive)
REMARK    1  A    between atoms: C_1  and  O_2
REMARK    2  A    between atoms: O_2  and  C_3
REMARK    3  A    between atoms: C_6  and  C_7
REMARK    4  A    between atoms: C_10  and  N_11
REMARK    5  A    between atoms: C_12  and  C_13
REMARK    6  A    between atoms: C_16  and  O_17
REMARK    7  A    between atoms: C_18  and  O_19
REMARK    8  A    between atoms: O_19  and  C_20
REMARK                            x       y       z     vdW  Elec       q    Type
REMARK                         _______ _______ _______ _____ _____    ______ ____
ROOT
ATOM      1  C   UNL     1       2.980   6.872  18.504  0.00  0.00    +0.000 A 
ATOM      2  C   UNL     1       2.642   6.221  19.683  0.00  0.00    +0.000 A 
ATOM      3  N   UNL     1       1.835   6.719  20.640  0.00  0.00    +0.000 NA
ATOM      4  C   UNL     1       1.283   7.933  20.431  0.00  0.00    +0.000 A 
ATOM      5  C   UNL     1       1.506   8.695  19.267  0.00  0.00    +0.000 A 
ATOM      6  C   UNL     1       2.393   8.130  18.327  0.00  0.00    +0.000 A 
ENDROOT
BRANCH   1  10
ATOM      7  C   UNL     1       5.632   5.372  15.566  0.00  0.00    +0.000 A 
ATOM      8  C   UNL     1       4.929   4.451  16.321  0.00  0.00    +0.000 A 
ATOM      9  C   UNL     1       4.070   4.932  17.309  0.00  0.00    +0.000 A 
ATOM     10  C   UNL     1       3.914   6.312  17.513  0.00  0.00    +0.000 A 
ATOM     11  C   UNL     1       4.678   7.137  16.688  0.00  0.00    +0.000 A 
ATOM     12  N   UNL     1       5.527   6.705  15.729  0.00  0.00    +0.000 NA
BRANCH   7  14
ATOM     13  C   UNL     1       5.840   3.927  13.757  0.00  0.00    +0.000 C 
ATOM     14  O   UNL     1       6.487   4.874  14.606  0.00  0.00    +0.000 OA
ENDBRANCH   7  14
ENDBRANCH   1  10
BRANCH   5  15
ATOM     15  C   UNL     1       0.854   9.998  18.964  0.00  0.00    +0.000 A 
ATOM     16  C   UNL     1       1.543  11.214  19.133  0.00  0.00    +0.000 A 
ATOM     17  C   UNL     1       0.953  12.443  18.822  0.00  0.00    +0.000 A 
ATOM     18  C   UNL     1      -0.335  12.486  18.293  0.00  0.00    +0.000 A 
ATOM     19  C   UNL     1      -1.052  11.304  18.106  0.00  0.00    +0.000 A 
ATOM     20  C   UNL     1      -0.462  10.089  18.482  0.00  0.00    +0.000 A 
BRANCH  18  21
ATOM     21  O   UNL     1      -0.863  13.706  17.975  0.00  0.00    +0.000 OA
ATOM     22  H   UNL     1      -0.505  13.995  17.120  0.00  0.00    +0.000 HD
ENDBRANCH  18  21
BRANCH  19  23
ATOM     23  O   UNL     1      -2.300  11.132  17.572  0.00  0.00    +0.000 OA
ATOM     24  C   UNL     1      -2.442  10.255  16.468  0.00  0.00    +0.000 C 
ENDBRANCH  19  23
ENDBRANCH   5  15
BRANCH   4  25
ATOM     25  N   UNL     1       0.516   8.376  21.502  0.00  0.00    +0.000 N 
ATOM     26  H   UNL     1       0.972   9.194  21.896  0.00  0.00    +0.000 HD
ATOM     27  H   UNL     1       0.349   7.649  22.186  0.00  0.00    +0.000 HD
ENDBRANCH   4  25
TORSDOF 6
ENDMDL
MODEL 9
REMARK VINA RESULT:      -7.1      2.390      8.042
REMARK  Name = 
REMARK  8 active torsions:
REMARK  status: ('A' for Active; 'I' for Inactive)
REMARK    1  A    between atoms: C_1  and  O_2
REMARK    2  A    between atoms: O_2  and  C_3
REMARK    3  A    between atoms: C_6  and  C_7
REMARK    4  A    between atoms: C_10  and  N_11
REMARK    5  A    between atoms: C_12  and  C_13
REMARK    6  A    between atoms: C_16  and  O_17
REMARK    7  A    between atoms: C_18  and  O_19
REMARK    8  A    between atoms: O_19  and  C_20
REMARK                            x       y       z     vdW  Elec       q    Type
REMARK                         _______ _______ _______ _____ _____    ______ ____
ROOT
ATOM      1  C   UNL     1       2.687   6.888  18.764  0.00  0.00    +0.000 A 
ATOM      2  C   UNL     1       2.405   6.360  20.017  0.00  0.00    +0.000 A 
ATOM      3  N   UNL     1       1.701   6.985  20.981  0.00  0.00    +0.000 NA
ATOM      4  C   UNL     1       1.200   8.207  20.705  0.00  0.00    +0.000 A 
ATOM      5  C   UNL     1       1.374   8.854  19.466  0.00  0.00    +0.000 A 
ATOM      6  C   UNL     1       2.155   8.159  18.518  0.00  0.00    +0.000 A 
ENDROOT
BRANCH   1  10
ATOM      7  C   UNL     1       5.069   4.779  15.972  0.00  0.00    +0.000 A 
ATOM      8  C   UNL     1       5.220   6.152  16.031  0.00  0.00    +0.000 A 
ATOM      9  C   UNL     1       4.424   6.861  16.931  0.00  0.00    +0.000 A 
ATOM     10  C   UNL     1       3.511   6.192  17.762  0.00  0.00    +0.000 A 
ATOM     11  C   UNL     1       3.453   4.808  17.607  0.00  0.00    +0.000 A 
ATOM     12  N   UNL     1       4.201   4.091  16.739  0.00  0.00    +0.000 NA
BRANCH   7  14
ATOM     13  C   UNL     1       7.031   4.833  14.726  0.00  0.00    +0.000 C 
ATOM     14  O   UNL     1       5.855   4.099  15.067  0.00  0.00    +0.000 OA
ENDBRANCH   7  14
ENDBRANCH   1  10
BRANCH   5  15
ATOM     15  C   UNL     1       0.770  10.162  19.095  0.00  0.00    +0.000 A 
ATOM     16  C   UNL     1       1.535  11.345  19.101  0.00  0.00    +0.000 A 
ATOM     17  C   UNL     1       0.989  12.575  18.725  0.00  0.00    +0.000 A 
ATOM     18  C   UNL     1      -0.334  12.651  18.293  0.00  0.00    +0.000 A 
ATOM     19  C   UNL     1      -1.126  11.503  18.268  0.00  0.00    +0.000 A 
ATOM     20  C   UNL     1      -0.573  10.291  18.707  0.00  0.00    +0.000 A 
BRANCH  18  21
ATOM     21  O   UNL     1      -0.819  13.868  17.906  0.00  0.00    +0.000 OA
ATOM     22  H   UNL     1      -0.935  14.429  18.690  0.00  0.00    +0.000 HD
ENDBRANCH  18  21
BRANCH  19  23
ATOM     23  O   UNL     1      -2.419  11.361  17.847  0.00  0.00    +0.000 OA
ATOM     24  C   UNL     1      -2.651  11.050  16.484  0.00  0.00    +0.000 C 
ENDBRANCH  19  23
ENDBRANCH   5  15
BRANCH   4  25
ATOM     25  N   UNL     1       0.542   8.784  21.785  0.00  0.00    +0.000 N 
ATOM     26  H   UNL     1       0.362   8.053  22.466  0.00  0.00    +0.000 HD
ATOM     27  H   UNL     1      -0.295   9.281  21.508  0.00  0.00    +0.000 HD
ENDBRANCH   4  25
TORSDOF 6
ENDMDL
