MODEL 1
REMARK VINA RESULT:      -7.9      0.000      0.000
REMARK  Name = 
REMARK  7 active torsions:
REMARK  status: ('A' for Active; 'I' for Inactive)
REMARK    1  A    between atoms: C_2  and  C_9
REMARK    2  A    between atoms: N_3  and  C_4
REMARK    3  A    between atoms: C_4  and  C_5
REMARK    4  A    between atoms: C_5  and  O_6
REMARK    5  A    between atoms: C_5  and  C_7
REMARK    6  A    between atoms: C_20  and  C_21
REMARK    7  A    between atoms: C_21  and  C_22
REMARK                            x       y       z     vdW  Elec       q    Type
REMARK                         _______ _______ _______ _____ _____    ______ ____
ROOT
ATOM      1  C   UNL     1       2.373   6.607  19.542  0.00  0.00    +0.000 A 
ATOM      2  C   UNL     1       1.758   6.353  20.776  0.00  0.00    +0.000 A 
ATOM      3  C   UNL     1       0.969   7.332  21.391  0.00  0.00    +0.000 A 
ATOM      4  C   UNL     1       0.779   8.573  20.776  0.00  0.00    +0.000 A 
ATOM      5  C   UNL     1       1.368   8.822  19.545  0.00  0.00    +0.000 A 
ATOM      6  C   UNL     1       2.189   7.853  18.952  0.00  0.00    +0.000 A 
ATOM      7  C   UNL     1       2.704   8.372  17.648  0.00  0.00    +0.000 C 
ATOM      8  C   UNL     1       2.320   9.864  17.728  0.00  0.00    +0.000 C 
ATOM      9  N   UNL     1       1.274   9.985  18.753  0.00  0.00    +0.000 N 
ATOM     10  C   UNL     1       0.675  11.227  18.955  0.00  0.00    +0.000 A 
ATOM     11  C   UNL     1      -0.585  11.322  19.552  0.00  0.00    +0.000 A 
ATOM     12  C   UNL     1      -1.199  12.568  19.739  0.00  0.00    +0.000 A 
ATOM     13  C   UNL     1      -0.512  13.703  19.322  0.00  0.00    +0.000 A 
ATOM     14  C   UNL     1       0.726  13.540  18.729  0.00  0.00    +0.000 A 
ATOM     15  N   UNL     1       1.311  12.340  18.521  0.00  0.00    +0.000 NA
ENDROOT
BRANCH   1  17
ATOM     16  O   UNL     1       4.406   5.466  19.120  0.00  0.00    +0.000 OA
ATOM     17  C   UNL     1       3.204   5.554  18.903  0.00  0.00    +0.000 C 
ATOM     18  N   UNL     1       2.515   4.717  18.050  0.00  0.00    +0.000 N 
ATOM     19  H   UNL     1       1.621   5.030  17.690  0.00  0.00    +0.000 HD
BRANCH  18  20
ATOM     20  C   UNL     1       3.192   3.682  17.291  0.00  0.00    +0.000 C 
BRANCH  20  21
ATOM     21  C   UNL     1       3.154   2.351  18.048  0.00  0.00    +0.000 C 
BRANCH  21  22
ATOM     22  O   UNL     1       4.271   2.289  18.952  0.00  0.00    +0.000 OA
ATOM     23  H   UNL     1       3.935   1.894  19.780  0.00  0.00    +0.000 HD
ENDBRANCH  21  22
BRANCH  21  24
ATOM     24  C   UNL     1       1.855   2.190  18.824  0.00  0.00    +0.000 C 
ATOM     25  F   UNL     1       2.117   2.357  20.152  0.00  0.00    +0.000 F 
ENDBRANCH  21  24
ENDBRANCH  20  21
ENDBRANCH  18  20
ENDBRANCH   1  17
BRANCH  12  26
ATOM     26  C   UNL     1      -2.554  12.672  20.395  0.00  0.00    +0.000 C 
BRANCH  26  27
ATOM     27  C   UNL     1      -3.680  12.199  19.507  0.00  0.00    +0.000 A 
ATOM     28  C   UNL     1      -3.416  11.711  18.220  0.00  0.00    +0.000 A 
ATOM     29  C   UNL     1      -4.465  11.331  17.387  0.00  0.00    +0.000 A 
ATOM     30  F   UNL     1      -4.194  10.876  16.157  0.00  0.00    +0.000 F 
ATOM     31  C   UNL     1      -5.786  11.421  17.805  0.00  0.00    +0.000 A 
ATOM     32  C   UNL     1      -6.054  11.894  19.085  0.00  0.00    +0.000 A 
ATOM     33 CL   UNL     1      -7.684  12.010  19.628  0.00  0.00    +0.000 Cl
ATOM     34  C   UNL     1      -5.015  12.281  19.934  0.00  0.00    +0.000 A 
ENDBRANCH  26  27
ENDBRANCH  12  26
TORSDOF 7
ENDMDL
MODEL 2
REMARK VINA RESULT:      -7.8      2.085      2.369
REMARK  Name = 
REMARK  7 active torsions:
REMARK  status: ('A' for Active; 'I' for Inactive)
REMARK    1  A    between atoms: C_2  and  C_9
REMARK    2  A    between atoms: N_3  and  C_4
REMARK    3  A    between atoms: C_4  and  C_5
REMARK    4  A    between atoms: C_5  and  O_6
REMARK    5  A    between atoms: C_5  and  C_7
REMARK    6  A    between atoms: C_20  and  C_21
REMARK    7  A    between atoms: C_21  and  C_22
REMARK                            x       y       z     vdW  Elec       q    Type
REMARK                         _______ _______ _______ _____ _____    ______ ____
ROOT
ATOM      1  C   UNL     1       2.605   6.209  19.381  0.00  0.00    +0.000 A 
ATOM      2  C   UNL     1       1.961   5.922  20.593  0.00  0.00    +0.000 A 
ATOM      3  C   UNL     1       1.159   6.885  21.216  0.00  0.00    +0.000 A 
ATOM      4  C   UNL     1       0.985   8.143  20.632  0.00  0.00    +0.000 A 
ATOM      5  C   UNL     1       1.602   8.425  19.422  0.00  0.00    +0.000 A 
ATOM      6  C   UNL     1       2.435   7.471  18.821  0.00  0.00    +0.000 A 
ATOM      7  C   UNL     1       2.980   8.025  17.544  0.00  0.00    +0.000 C 
ATOM      8  C   UNL     1       2.596   9.515  17.657  0.00  0.00    +0.000 C 
ATOM      9  N   UNL     1       1.527   9.609  18.660  0.00  0.00    +0.000 N 
ATOM     10  C   UNL     1       0.925  10.846  18.883  0.00  0.00    +0.000 A 
ATOM     11  C   UNL     1      -0.348  10.927  19.453  0.00  0.00    +0.000 A 
ATOM     12  C   UNL     1      -0.965  12.168  19.660  0.00  0.00    +0.000 A 
ATOM     13  C   UNL     1      -0.268  13.313  19.291  0.00  0.00    +0.000 A 
ATOM     14  C   UNL     1       0.984  13.164  18.721  0.00  0.00    +0.000 A 
ATOM     15  N   UNL     1       1.572  11.969  18.494  0.00  0.00    +0.000 NA
ENDROOT
BRANCH   1  17
ATOM     16  O   UNL     1       2.956   4.221  18.142  0.00  0.00    +0.000 OA
ATOM     17  C   UNL     1       3.449   5.173  18.732  0.00  0.00    +0.000 C 
ATOM     18  N   UNL     1       4.807   5.369  18.871  0.00  0.00    +0.000 N 
ATOM     19  H   UNL     1       5.130   5.983  19.610  0.00  0.00    +0.000 HD
BRANCH  18  20
ATOM     20  C   UNL     1       5.770   4.410  18.359  0.00  0.00    +0.000 C 
BRANCH  20  21
ATOM     21  C   UNL     1       7.172   5.026  18.321  0.00  0.00    +0.000 C 
BRANCH  21  22
ATOM     22  O   UNL     1       7.965   4.334  17.342  0.00  0.00    +0.000 OA
ATOM     23  H   UNL     1       8.824   4.143  17.767  0.00  0.00    +0.000 HD
ENDBRANCH  21  22
BRANCH  21  24
ATOM     24  C   UNL     1       7.118   6.510  17.985  0.00  0.00    +0.000 C 
ATOM     25  F   UNL     1       8.276   7.094  18.402  0.00  0.00    +0.000 F 
ENDBRANCH  21  24
ENDBRANCH  20  21
ENDBRANCH  18  20
ENDBRANCH   1  17
BRANCH  12  26
ATOM     26  C   UNL     1      -2.334  12.256  20.287  0.00  0.00    +0.000 C 
BRANCH  26  27
ATOM     27  C   UNL     1      -3.455  12.062  19.294  0.00  0.00    +0.000 A 
ATOM     28  C   UNL     1      -3.183  11.628  17.989  0.00  0.00    +0.000 A 
ATOM     29  C   UNL     1      -4.216  11.508  17.063  0.00  0.00    +0.000 A 
ATOM     30  F   UNL     1      -3.936  11.101  15.818  0.00  0.00    +0.000 F 
ATOM     31  C   UNL     1      -5.529  11.808  17.404  0.00  0.00    +0.000 A 
ATOM     32  C   UNL     1      -5.806  12.228  18.700  0.00  0.00    +0.000 A 
ATOM     33 CL   UNL     1      -7.426  12.601  19.148  0.00  0.00    +0.000 Cl
ATOM     34  C   UNL     1      -4.783  12.357  19.642  0.00  0.00    +0.000 A 
ENDBRANCH  26  27
ENDBRANCH  12  26
TORSDOF 7
ENDMDL
MODEL 3
REMARK VINA RESULT:      -7.8      1.274      1.530
REMARK  Name = 
REMARK  7 active torsions:
REMARK  status: ('A' for Active; 'I' for Inactive)
REMARK    1  A    between atoms: C_2  and  C_9
REMARK    2  A    between atoms: N_3  and  C_4
REMARK    3  A    between atoms: C_4  and  C_5
REMARK    4  A    between atoms: C_5  and  O_6
REMARK    5  A    between atoms: C_5  and  C_7
REMARK    6  A    between atoms: C_20  and  C_21
REMARK    7  A    between atoms: C_21  and  C_22
REMARK                            x       y       z     vdW  Elec       q    Type
REMARK                         _______ _______ _______ _____ _____    ______ ____
ROOT
ATOM      1  C   UNL     1       2.418   6.579  19.522  0.00  0.00    +0.000 A 
ATOM      2  C   UNL     1       1.789   6.287  20.741  0.00  0.00    +0.000 A 
ATOM      3  C   UNL     1       0.977   7.240  21.367  0.00  0.00    +0.000 A 
ATOM      4  C   UNL     1       0.780   8.492  20.781  0.00  0.00    +0.000 A 
ATOM      5  C   UNL     1       1.383   8.780  19.564  0.00  0.00    +0.000 A 
ATOM      6  C   UNL     1       2.225   7.836  18.960  0.00  0.00    +0.000 A 
ATOM      7  C   UNL     1       2.752   8.395  17.677  0.00  0.00    +0.000 C 
ATOM      8  C   UNL     1       2.346   9.878  17.788  0.00  0.00    +0.000 C 
ATOM      9  N   UNL     1       1.284   9.960  18.800  0.00  0.00    +0.000 N 
ATOM     10  C   UNL     1       0.665  11.189  19.023  0.00  0.00    +0.000 A 
ATOM     11  C   UNL     1      -0.604  11.252  19.604  0.00  0.00    +0.000 A 
ATOM     12  C   UNL     1      -1.238  12.485  19.811  0.00  0.00    +0.000 A 
ATOM     13  C   UNL     1      -0.561  13.639  19.433  0.00  0.00    +0.000 A 
ATOM     14  C   UNL     1       0.688  13.507  18.854  0.00  0.00    +0.000 A 
ATOM     15  N   UNL     1       1.292  12.320  18.626  0.00  0.00    +0.000 NA
ENDROOT
BRANCH   1  17
ATOM     16  O   UNL     1       4.486   5.533  19.031  0.00  0.00    +0.000 OA
ATOM     17  C   UNL     1       3.273   5.553  18.871  0.00  0.00    +0.000 C 
ATOM     18  N   UNL     1       2.590   4.659  18.073  0.00  0.00    +0.000 N 
ATOM     19  H   UNL     1       1.665   4.915  17.749  0.00  0.00    +0.000 HD
BRANCH  18  20
ATOM     20  C   UNL     1       3.284   3.639  17.308  0.00  0.00    +0.000 C 
BRANCH  20  21
ATOM     21  C   UNL     1       2.996   2.249  17.883  0.00  0.00    +0.000 C 
BRANCH  21  22
ATOM     22  O   UNL     1       4.086   1.854  18.734  0.00  0.00    +0.000 OA
ATOM     23  H   UNL     1       4.632   1.233  18.212  0.00  0.00    +0.000 HD
ENDBRANCH  21  22
BRANCH  21  24
ATOM     24  C   UNL     1       1.695   2.233  18.673  0.00  0.00    +0.000 C 
ATOM     25  F   UNL     1       1.993   2.184  20.002  0.00  0.00    +0.000 F 
ENDBRANCH  21  24
ENDBRANCH  20  21
ENDBRANCH  18  20
ENDBRANCH   1  17
BRANCH  12  26
ATOM     26  C   UNL     1      -2.604  12.554  20.449  0.00  0.00    +0.000 C 
BRANCH  26  27
ATOM     27  C   UNL     1      -3.725  12.255  19.484  0.00  0.00    +0.000 A 
ATOM     28  C   UNL     1      -5.060  12.481  19.850  0.00  0.00    +0.000 A 
ATOM     29  C   UNL     1      -6.091  12.147  18.975  0.00  0.00    +0.000 A 
ATOM     30  F   UNL     1      -7.360  12.362  19.346  0.00  0.00    +0.000 F 
ATOM     31  C   UNL     1      -5.828  11.591  17.730  0.00  0.00    +0.000 A 
ATOM     32  C   UNL     1      -4.506  11.375  17.357  0.00  0.00    +0.000 A 
ATOM     33 CL   UNL     1      -4.156  10.691  15.817  0.00  0.00    +0.000 Cl
ATOM     34  C   UNL     1      -3.459  11.701  18.221  0.00  0.00    +0.000 A 
ENDBRANCH  26  27
ENDBRANCH  12  26
TORSDOF 7
ENDMDL
MODEL 4
REMARK VINA RESULT:      -7.8      2.176      2.524
REMARK  Name = 
REMARK  7 active torsions:
REMARK  status: ('A' for Active; 'I' for Inactive)
REMARK    1  A    between atoms: C_2  and  C_9
REMARK    2  A    between atoms: N_3  and  C_4
REMARK    3  A    between atoms: C_4  and  C_5
REMARK    4  A    between atoms: C_5  and  O_6
REMARK    5  A    between atoms: C_5  and  C_7
REMARK    6  A    between atoms: C_20  and  C_21
REMARK    7  A    between atoms: C_21  and  C_22
REMARK                            x       y       z     vdW  Elec       q    Type
REMARK                         _______ _______ _______ _____ _____    ______ ____
ROOT
ATOM      1  C   UNL     1       2.560   6.227  19.418  0.00  0.00    +0.000 A 
ATOM      2  C   UNL     1       1.922   5.953  20.636  0.00  0.00    +0.000 A 
ATOM      3  C   UNL     1       1.136   6.928  21.262  0.00  0.00    +0.000 A 
ATOM      4  C   UNL     1       0.973   8.185  20.674  0.00  0.00    +0.000 A 
ATOM      5  C   UNL     1       1.585   8.456  19.458  0.00  0.00    +0.000 A 
ATOM      6  C   UNL     1       2.402   7.489  18.855  0.00  0.00    +0.000 A 
ATOM      7  C   UNL     1       2.945   8.032  17.573  0.00  0.00    +0.000 C 
ATOM      8  C   UNL     1       2.580   9.527  17.682  0.00  0.00    +0.000 C 
ATOM      9  N   UNL     1       1.519   9.638  18.693  0.00  0.00    +0.000 N 
ATOM     10  C   UNL     1       0.934  10.883  18.915  0.00  0.00    +0.000 A 
ATOM     11  C   UNL     1      -0.333  10.982  19.494  0.00  0.00    +0.000 A 
ATOM     12  C   UNL     1      -0.934  12.232  19.700  0.00  0.00    +0.000 A 
ATOM     13  C   UNL     1      -0.225  13.366  19.322  0.00  0.00    +0.000 A 
ATOM     14  C   UNL     1       1.021  13.200  18.744  0.00  0.00    +0.000 A 
ATOM     15  N   UNL     1       1.592  11.997  18.518  0.00  0.00    +0.000 NA
ENDROOT
BRANCH   1  17
ATOM     16  O   UNL     1       2.881   4.280  18.108  0.00  0.00    +0.000 OA
ATOM     17  C   UNL     1       3.387   5.178  18.768  0.00  0.00    +0.000 C 
ATOM     18  N   UNL     1       4.743   5.298  18.988  0.00  0.00    +0.000 N 
ATOM     19  H   UNL     1       5.055   5.861  19.770  0.00  0.00    +0.000 HD
BRANCH  18  20
ATOM     20  C   UNL     1       5.684   4.314  18.483  0.00  0.00    +0.000 C 
BRANCH  20  21
ATOM     21  C   UNL     1       6.521   4.907  17.346  0.00  0.00    +0.000 C 
BRANCH  21  22
ATOM     22  O   UNL     1       7.818   4.285  17.340  0.00  0.00    +0.000 OA
ATOM     23  H   UNL     1       8.431   4.920  17.760  0.00  0.00    +0.000 HD
ENDBRANCH  21  22
BRANCH  21  24
ATOM     24  C   UNL     1       5.848   4.705  15.996  0.00  0.00    +0.000 C 
ATOM     25  F   UNL     1       4.966   5.724  15.793  0.00  0.00    +0.000 F 
ENDBRANCH  21  24
ENDBRANCH  20  21
ENDBRANCH  18  20
ENDBRANCH   1  17
BRANCH  12  26
ATOM     26  C   UNL     1      -2.298  12.339  20.337  0.00  0.00    +0.000 C 
BRANCH  26  27
ATOM     27  C   UNL     1      -3.427  12.127  19.358  0.00  0.00    +0.000 A 
ATOM     28  C   UNL     1      -4.750  12.413  19.724  0.00  0.00    +0.000 A 
ATOM     29  C   UNL     1      -5.792  12.160  18.836  0.00  0.00    +0.000 A 
ATOM     30  F   UNL     1      -7.050  12.431  19.207  0.00  0.00    +0.000 F 
ATOM     31  C   UNL     1      -5.551  11.626  17.576  0.00  0.00    +0.000 A 
ATOM     32  C   UNL     1      -4.240  11.351  17.203  0.00  0.00    +0.000 A 
ATOM     33 CL   UNL     1      -3.917  10.694  15.645  0.00  0.00    +0.000 Cl
ATOM     34  C   UNL     1      -3.182  11.596  18.082  0.00  0.00    +0.000 A 
ENDBRANCH  26  27
ENDBRANCH  12  26
TORSDOF 7
ENDMDL
MODEL 5
REMARK VINA RESULT:      -7.6      3.382      5.312
REMARK  Name = 
REMARK  7 active torsions:
REMARK  status: ('A' for Active; 'I' for Inactive)
REMARK    1  A    between atoms: C_2  and  C_9
REMARK    2  A    between atoms: N_3  and  C_4
REMARK    3  A    between atoms: C_4  and  C_5
REMARK    4  A    between atoms: C_5  and  O_6
REMARK    5  A    between atoms: C_5  and  C_7
REMARK    6  A    between atoms: C_20  and  C_21
REMARK    7  A    between atoms: C_21  and  C_22
REMARK                            x       y       z     vdW  Elec       q    Type
REMARK                         _______ _______ _______ _____ _____    ______ ____
ROOT
ATOM      1  C   UNL     1       0.255  10.593  18.925  0.00  0.00    +0.000 A 
ATOM      2  C   UNL     1       0.494  11.424  20.028  0.00  0.00    +0.000 A 
ATOM      3  C   UNL     1      -0.527  12.233  20.543  0.00  0.00    +0.000 A 
ATOM      4  C   UNL     1      -1.799  12.214  19.965  0.00  0.00    +0.000 A 
ATOM      5  C   UNL     1      -2.047  11.378  18.886  0.00  0.00    +0.000 A 
ATOM      6  C   UNL     1      -1.011  10.599  18.351  0.00  0.00    +0.000 A 
ATOM      7  C   UNL     1      -1.536   9.805  17.198  0.00  0.00    +0.000 C 
ATOM      8  C   UNL     1      -2.911  10.462  16.960  0.00  0.00    +0.000 C 
ATOM      9  N   UNL     1      -3.258  11.190  18.189  0.00  0.00    +0.000 N 
ATOM     10  C   UNL     1      -4.509  11.797  18.276  0.00  0.00    +0.000 A 
ATOM     11  C   UNL     1      -5.071  12.097  19.520  0.00  0.00    +0.000 A 
ATOM     12  C   UNL     1      -6.338  12.688  19.613  0.00  0.00    +0.000 A 
ATOM     13  C   UNL     1      -7.011  12.977  18.431  0.00  0.00    +0.000 A 
ATOM     14  C   UNL     1      -6.405  12.646  17.233  0.00  0.00    +0.000 A 
ATOM     15  N   UNL     1      -5.197  12.050  17.138  0.00  0.00    +0.000 NA
ENDROOT
BRANCH   1  17
ATOM     16  O   UNL     1       2.028  10.087  17.439  0.00  0.00    +0.000 OA
ATOM     17  C   UNL     1       1.350   9.739  18.396  0.00  0.00    +0.000 C 
ATOM     18  N   UNL     1       1.514   8.540  19.058  0.00  0.00    +0.000 N 
ATOM     19  H   UNL     1       0.745   8.193  19.620  0.00  0.00    +0.000 HD
BRANCH  18  20
ATOM     20  C   UNL     1       2.492   7.559  18.622  0.00  0.00    +0.000 C 
BRANCH  20  21
ATOM     21  C   UNL     1       2.618   6.434  19.653  0.00  0.00    +0.000 C 
BRANCH  21  22
ATOM     22  O   UNL     1       1.900   6.802  20.844  0.00  0.00    +0.000 OA
ATOM     23  H   UNL     1       2.453   6.516  21.599  0.00  0.00    +0.000 HD
ENDBRANCH  21  22
BRANCH  21  24
ATOM     24  C   UNL     1       2.075   5.120  19.111  0.00  0.00    +0.000 C 
ATOM     25  F   UNL     1       1.808   5.273  17.783  0.00  0.00    +0.000 F 
ENDBRANCH  21  24
ENDBRANCH  20  21
ENDBRANCH  18  20
ENDBRANCH   1  17
BRANCH  12  26
ATOM     26  C   UNL     1      -6.939  13.023  20.955  0.00  0.00    +0.000 C 
BRANCH  26  27
ATOM     27  C   UNL     1      -5.911  13.442  21.978  0.00  0.00    +0.000 A 
ATOM     28  C   UNL     1      -5.665  12.649  23.107  0.00  0.00    +0.000 A 
ATOM     29  C   UNL     1      -4.756  13.072  24.074  0.00  0.00    +0.000 A 
ATOM     30  F   UNL     1      -4.541  12.305  25.151  0.00  0.00    +0.000 F 
ATOM     31  C   UNL     1      -4.075  14.275  23.946  0.00  0.00    +0.000 A 
ATOM     32  C   UNL     1      -4.306  15.061  22.822  0.00  0.00    +0.000 A 
ATOM     33 CL   UNL     1      -3.470  16.554  22.639  0.00  0.00    +0.000 Cl
ATOM     34  C   UNL     1      -5.215  14.654  21.843  0.00  0.00    +0.000 A 
ENDBRANCH  26  27
ENDBRANCH  12  26
TORSDOF 7
ENDMDL
MODEL 6
REMARK VINA RESULT:      -7.6      3.327      5.275
REMARK  Name = 
REMARK  7 active torsions:
REMARK  status: ('A' for Active; 'I' for Inactive)
REMARK    1  A    between atoms: C_2  and  C_9
REMARK    2  A    between atoms: N_3  and  C_4
REMARK    3  A    between atoms: C_4  and  C_5
REMARK    4  A    between atoms: C_5  and  O_6
REMARK    5  A    between atoms: C_5  and  C_7
REMARK    6  A    between atoms: C_20  and  C_21
REMARK    7  A    between atoms: C_21  and  C_22
REMARK                            x       y       z     vdW  Elec       q    Type
REMARK                         _______ _______ _______ _____ _____    ______ ____
ROOT
ATOM      1  C   UNL     1       0.080  10.487  18.961  0.00  0.00    +0.000 A 
ATOM      2  C   UNL     1       0.239  11.206  20.153  0.00  0.00    +0.000 A 
ATOM      3  C   UNL     1      -0.818  11.964  20.672  0.00  0.00    +0.000 A 
ATOM      4  C   UNL     1      -2.046  12.006  20.008  0.00  0.00    +0.000 A 
ATOM      5  C   UNL     1      -2.216  11.279  18.838  0.00  0.00    +0.000 A 
ATOM      6  C   UNL     1      -1.143  10.553  18.303  0.00  0.00    +0.000 A 
ATOM      7  C   UNL     1      -1.584   9.876  17.045  0.00  0.00    +0.000 C 
ATOM      8  C   UNL     1      -2.941  10.559  16.777  0.00  0.00    +0.000 C 
ATOM      9  N   UNL     1      -3.376  11.164  18.044  0.00  0.00    +0.000 N 
ATOM     10  C   UNL     1      -4.632  11.764  18.103  0.00  0.00    +0.000 A 
ATOM     11  C   UNL     1      -5.279  11.943  19.328  0.00  0.00    +0.000 A 
ATOM     12  C   UNL     1      -6.552  12.527  19.389  0.00  0.00    +0.000 A 
ATOM     13  C   UNL     1      -7.142  12.932  18.197  0.00  0.00    +0.000 A 
ATOM     14  C   UNL     1      -6.453  12.716  17.017  0.00  0.00    +0.000 A 
ATOM     15  N   UNL     1      -5.239  12.129  16.950  0.00  0.00    +0.000 NA
ENDROOT
BRANCH   1  17
ATOM     16  O   UNL     1       1.847  10.045  17.446  0.00  0.00    +0.000 OA
ATOM     17  C   UNL     1       1.213   9.685  18.428  0.00  0.00    +0.000 C 
ATOM     18  N   UNL     1       1.463   8.517  19.119  0.00  0.00    +0.000 N 
ATOM     19  H   UNL     1       0.730   8.142  19.708  0.00  0.00    +0.000 HD
BRANCH  18  20
ATOM     20  C   UNL     1       2.488   7.584  18.685  0.00  0.00    +0.000 C 
BRANCH  20  21
ATOM     21  C   UNL     1       2.634   6.442  19.696  0.00  0.00    +0.000 C 
BRANCH  21  22
ATOM     22  O   UNL     1       1.840   6.737  20.859  0.00  0.00    +0.000 OA
ATOM     23  H   UNL     1       2.177   6.163  21.575  0.00  0.00    +0.000 HD
ENDBRANCH  21  22
BRANCH  21  24
ATOM     24  C   UNL     1       2.197   5.112  19.098  0.00  0.00    +0.000 C 
ATOM     25  F   UNL     1       1.757   5.330  17.827  0.00  0.00    +0.000 F 
ENDBRANCH  21  24
ENDBRANCH  20  21
ENDBRANCH  18  20
ENDBRANCH   1  17
BRANCH  12  26
ATOM     26  C   UNL     1      -7.246  12.732  20.713  0.00  0.00    +0.000 C 
BRANCH  26  27
ATOM     27  C   UNL     1      -6.385  13.439  21.731  0.00  0.00    +0.000 A 
ATOM     28  C   UNL     1      -6.101  14.806  21.598  0.00  0.00    +0.000 A 
ATOM     29  C   UNL     1      -5.258  15.437  22.509  0.00  0.00    +0.000 A 
ATOM     30  F   UNL     1      -4.992  16.741  22.361  0.00  0.00    +0.000 F 
ATOM     31  C   UNL     1      -4.685  14.739  23.564  0.00  0.00    +0.000 A 
ATOM     32  C   UNL     1      -4.972  13.386  23.708  0.00  0.00    +0.000 A 
ATOM     33 CL   UNL     1      -4.276  12.501  25.011  0.00  0.00    +0.000 Cl
ATOM     34  C   UNL     1      -5.813  12.735  22.803  0.00  0.00    +0.000 A 
ENDBRANCH  26  27
ENDBRANCH  12  26
TORSDOF 7
ENDMDL
MODEL 7
REMARK VINA RESULT:      -7.6      4.582      9.820
REMARK  Name = 
REMARK  7 active torsions:
REMARK  status: ('A' for Active; 'I' for Inactive)
REMARK    1  A    between atoms: C_2  and  C_9
REMARK    2  A    between atoms: N_3  and  C_4
REMARK    3  A    between atoms: C_4  and  C_5
REMARK    4  A    between atoms: C_5  and  O_6
REMARK    5  A    between atoms: C_5  and  C_7
REMARK    6  A    between atoms: C_20  and  C_21
REMARK    7  A    between atoms: C_21  and  C_22
REMARK                            x       y       z     vdW  Elec       q    Type
REMARK                         _______ _______ _______ _____ _____    ______ ____
ROOT
ATOM      1  C   UNL     1       0.701  10.718  19.624  0.00  0.00    +0.000 A 
ATOM      2  C   UNL     1       1.479  11.057  18.508  0.00  0.00    +0.000 A 
ATOM      3  C   UNL     1       2.311  10.106  17.906  0.00  0.00    +0.000 A 
ATOM      4  C   UNL     1       2.369   8.803  18.407  0.00  0.00    +0.000 A 
ATOM      5  C   UNL     1       1.585   8.455  19.498  0.00  0.00    +0.000 A 
ATOM      6  C   UNL     1       0.783   9.422  20.121  0.00  0.00    +0.000 A 
ATOM      7  C   UNL     1       0.057   8.797  21.268  0.00  0.00    +0.000 C 
ATOM      8  C   UNL     1       0.782   7.442  21.401  0.00  0.00    +0.000 C 
ATOM      9  N   UNL     1       1.476   7.199  20.129  0.00  0.00    +0.000 N 
ATOM     10  C   UNL     1       2.133   5.984  19.946  0.00  0.00    +0.000 A 
ATOM     11  C   UNL     1       2.409   5.509  18.661  0.00  0.00    +0.000 A 
ATOM     12  C   UNL     1       3.051   4.277  18.473  0.00  0.00    +0.000 A 
ATOM     13  C   UNL     1       3.413   3.551  19.602  0.00  0.00    +0.000 A 
ATOM     14  C   UNL     1       3.102   4.071  20.845  0.00  0.00    +0.000 A 
ATOM     15  N   UNL     1       2.458   5.244  21.032  0.00  0.00    +0.000 NA
ENDROOT
BRANCH   1  17
ATOM     16  O   UNL     1       0.180  12.386  21.222  0.00  0.00    +0.000 OA
ATOM     17  C   UNL     1      -0.179  11.741  20.246  0.00  0.00    +0.000 C 
ATOM     18  N   UNL     1      -1.413  11.879  19.647  0.00  0.00    +0.000 N 
ATOM     19  H   UNL     1      -1.749  11.123  19.061  0.00  0.00    +0.000 HD
BRANCH  18  20
ATOM     20  C   UNL     1      -2.418  12.783  20.176  0.00  0.00    +0.000 C 
BRANCH  20  21
ATOM     21  C   UNL     1      -3.819  12.337  19.746  0.00  0.00    +0.000 C 
BRANCH  21  22
ATOM     22  O   UNL     1      -4.671  13.492  19.643  0.00  0.00    +0.000 OA
ATOM     23  H   UNL     1      -4.577  13.823  18.728  0.00  0.00    +0.000 HD
ENDBRANCH  21  22
BRANCH  21  24
ATOM     24  C   UNL     1      -3.784  11.603  18.413  0.00  0.00    +0.000 C 
ATOM     25  F   UNL     1      -4.889  10.809  18.324  0.00  0.00    +0.000 F 
ENDBRANCH  21  24
ENDBRANCH  20  21
ENDBRANCH  18  20
ENDBRANCH   1  17
BRANCH  12  26
ATOM     26  C   UNL     1       3.360   3.770  17.086  0.00  0.00    +0.000 C 
BRANCH  26  27
ATOM     27  C   UNL     1       4.647   4.326  16.525  0.00  0.00    +0.000 A 
ATOM     28  C   UNL     1       5.118   3.906  15.273  0.00  0.00    +0.000 A 
ATOM     29  C   UNL     1       6.335   4.380  14.789  0.00  0.00    +0.000 A 
ATOM     30  F   UNL     1       6.773   3.960  13.594  0.00  0.00    +0.000 F 
ATOM     31  C   UNL     1       7.104   5.272  15.523  0.00  0.00    +0.000 A 
ATOM     32  C   UNL     1       6.637   5.701  16.761  0.00  0.00    +0.000 A 
ATOM     33 CL   UNL     1       7.571   6.811  17.687  0.00  0.00    +0.000 Cl
ATOM     34  C   UNL     1       5.420   5.236  17.264  0.00  0.00    +0.000 A 
ENDBRANCH  26  27
ENDBRANCH  12  26
TORSDOF 7
ENDMDL
MODEL 8
REMARK VINA RESULT:      -7.6      3.260      3.914
REMARK  Name = 
REMARK  7 active torsions:
REMARK  status: ('A' for Active; 'I' for Inactive)
REMARK    1  A    between atoms: C_2  and  C_9
REMARK    2  A    between atoms: N_3  and  C_4
REMARK    3  A    between atoms: C_4  and  C_5
REMARK    4  A    between atoms: C_5  and  O_6
REMARK    5  A    between atoms: C_5  and  C_7
REMARK    6  A    between atoms: C_20  and  C_21
REMARK    7  A    between atoms: C_21  and  C_22
REMARK                            x       y       z     vdW  Elec       q    Type
REMARK                         _______ _______ _______ _____ _____    ______ ____
ROOT
ATOM      1  C   UNL     1       2.524   6.489  18.929  0.00  0.00    +0.000 A 
ATOM      2  C   UNL     1       2.292   5.830  20.145  0.00  0.00    +0.000 A 
ATOM      3  C   UNL     1       1.711   6.509  21.222  0.00  0.00    +0.000 A 
ATOM      4  C   UNL     1       1.348   7.852  21.094  0.00  0.00    +0.000 A 
ATOM      5  C   UNL     1       1.555   8.505  19.887  0.00  0.00    +0.000 A 
ATOM      6  C   UNL     1       2.173   7.831  18.824  0.00  0.00    +0.000 A 
ATOM      7  C   UNL     1       2.288   8.754  17.654  0.00  0.00    +0.000 C 
ATOM      8  C   UNL     1       1.940  10.115  18.290  0.00  0.00    +0.000 C 
ATOM      9  N   UNL     1       1.233   9.835  19.548  0.00  0.00    +0.000 N 
ATOM     10  C   UNL     1       0.715  10.903  20.277  0.00  0.00    +0.000 A 
ATOM     11  C   UNL     1      -0.319  10.703  21.195  0.00  0.00    +0.000 A 
ATOM     12  C   UNL     1      -0.858  11.778  21.916  0.00  0.00    +0.000 A 
ATOM     13  C   UNL     1      -0.324  13.043  21.697  0.00  0.00    +0.000 A 
ATOM     14  C   UNL     1       0.691  13.175  20.766  0.00  0.00    +0.000 A 
ATOM     15  N   UNL     1       1.194  12.147  20.049  0.00  0.00    +0.000 NA
ENDROOT
BRANCH   1  17
ATOM     16  O   UNL     1       2.603   4.764  17.308  0.00  0.00    +0.000 OA
ATOM     17  C   UNL     1       3.139   5.750  17.796  0.00  0.00    +0.000 C 
ATOM     18  N   UNL     1       4.349   6.255  17.370  0.00  0.00    +0.000 N 
ATOM     19  H   UNL     1       4.865   6.860  17.999  0.00  0.00    +0.000 HD
BRANCH  18  20
ATOM     20  C   UNL     1       5.116   5.607  16.322  0.00  0.00    +0.000 C 
BRANCH  20  21
ATOM     21  C   UNL     1       6.614   5.669  16.637  0.00  0.00    +0.000 C 
BRANCH  21  22
ATOM     22  O   UNL     1       7.358   5.612  15.408  0.00  0.00    +0.000 OA
ATOM     23  H   UNL     1       8.024   4.905  15.521  0.00  0.00    +0.000 HD
ENDBRANCH  21  22
BRANCH  21  24
ATOM     24  C   UNL     1       6.970   6.940  17.396  0.00  0.00    +0.000 C 
ATOM     25  F   UNL     1       7.972   6.656  18.275  0.00  0.00    +0.000 F 
ENDBRANCH  21  24
ENDBRANCH  20  21
ENDBRANCH  18  20
ENDBRANCH   1  17
BRANCH  12  26
ATOM     26  C   UNL     1      -1.966  11.561  22.916  0.00  0.00    +0.000 C 
BRANCH  26  27
ATOM     27  C   UNL     1      -2.989  12.672  22.919  0.00  0.00    +0.000 A 
ATOM     28  C   UNL     1      -3.008  13.620  23.952  0.00  0.00    +0.000 A 
ATOM     29  C   UNL     1      -3.990  14.606  23.977  0.00  0.00    +0.000 A 
ATOM     30  F   UNL     1      -3.998  15.498  24.977  0.00  0.00    +0.000 F 
ATOM     31  C   UNL     1      -4.965  14.679  22.990  0.00  0.00    +0.000 A 
ATOM     32  C   UNL     1      -4.944  13.748  21.957  0.00  0.00    +0.000 A 
ATOM     33 CL   UNL     1      -6.139  13.821  20.720  0.00  0.00    +0.000 Cl
ATOM     34  C   UNL     1      -3.968  12.750  21.916  0.00  0.00    +0.000 A 
ENDBRANCH  26  27
ENDBRANCH  12  26
TORSDOF 7
ENDMDL
MODEL 9
REMARK VINA RESULT:      -7.5      2.416      2.917
REMARK  Name = 
REMARK  7 active torsions:
REMARK  status: ('A' for Active; 'I' for Inactive)
REMARK    1  A    between atoms: C_2  and  C_9
REMARK    2  A    between atoms: N_3  and  C_4
REMARK    3  A    between atoms: C_4  and  C_5
REMARK    4  A    between atoms: C_5  and  O_6
REMARK    5  A    between atoms: C_5  and  C_7
REMARK    6  A    between atoms: C_20  and  C_21
REMARK    7  A    between atoms: C_21  and  C_22
REMARK                            x       y       z     vdW  Elec       q    Type
REMARK                         _______ _______ _______ _____ _____    ______ ____
ROOT
ATOM      1  C   UNL     1       3.640   5.284  18.909  0.00  0.00    +0.000 A 
ATOM      2  C   UNL     1       2.855   4.879  19.998  0.00  0.00    +0.000 A 
ATOM      3  C   UNL     1       1.915   5.751  20.559  0.00  0.00    +0.000 A 
ATOM      4  C   UNL     1       1.744   7.035  20.035  0.00  0.00    +0.000 A 
ATOM      5  C   UNL     1       2.503   7.434  18.944  0.00  0.00    +0.000 A 
ATOM      6  C   UNL     1       3.470   6.571  18.410  0.00  0.00    +0.000 A 
ATOM      7  C   UNL     1       4.150   7.242  17.260  0.00  0.00    +0.000 C 
ATOM      8  C   UNL     1       3.660   8.697  17.409  0.00  0.00    +0.000 C 
ATOM      9  N   UNL     1       2.459   8.663  18.255  0.00  0.00    +0.000 N 
ATOM     10  C   UNL     1       1.755   9.847  18.466  0.00  0.00    +0.000 A 
ATOM     11  C   UNL     1       0.413   9.819  18.854  0.00  0.00    +0.000 A 
ATOM     12  C   UNL     1      -0.304  11.008  19.047  0.00  0.00    +0.000 A 
ATOM     13  C   UNL     1       0.364  12.211  18.852  0.00  0.00    +0.000 A 
ATOM     14  C   UNL     1       1.689  12.170  18.458  0.00  0.00    +0.000 A 
ATOM     15  N   UNL     1       2.377  11.028  18.243  0.00  0.00    +0.000 NA
ENDROOT
BRANCH   1  17
ATOM     16  O   UNL     1       5.402   3.705  19.028  0.00  0.00    +0.000 OA
ATOM     17  C   UNL     1       4.630   4.342  18.324  0.00  0.00    +0.000 C 
ATOM     18  N   UNL     1       4.609   4.270  16.947  0.00  0.00    +0.000 N 
ATOM     19  H   UNL     1       4.175   5.028  16.433  0.00  0.00    +0.000 HD
BRANCH  18  20
ATOM     20  C   UNL     1       5.560   3.453  16.215  0.00  0.00    +0.000 C 
BRANCH  20  21
ATOM     21  C   UNL     1       6.394   4.321  15.268  0.00  0.00    +0.000 C 
BRANCH  21  22
ATOM     22  O   UNL     1       7.729   4.440  15.789  0.00  0.00    +0.000 OA
ATOM     23  H   UNL     1       7.642   4.815  16.688  0.00  0.00    +0.000 HD
ENDBRANCH  21  22
BRANCH  21  24
ATOM     24  C   UNL     1       6.440   3.727  13.866  0.00  0.00    +0.000 C 
ATOM     25  F   UNL     1       5.222   3.901  13.280  0.00  0.00    +0.000 F 
ENDBRANCH  21  24
ENDBRANCH  20  21
ENDBRANCH  18  20
ENDBRANCH   1  17
BRANCH  12  26
ATOM     26  C   UNL     1      -1.750  10.977  19.478  0.00  0.00    +0.000 C 
BRANCH  26  27
ATOM     27  C   UNL     1      -2.714  10.940  18.317  0.00  0.00    +0.000 A 
ATOM     28  C   UNL     1      -2.394  10.236  17.148  0.00  0.00    +0.000 A 
ATOM     29  C   UNL     1      -3.264  10.255  16.060  0.00  0.00    +0.000 A 
ATOM     30  F   UNL     1      -2.937   9.584  14.948  0.00  0.00    +0.000 F 
ATOM     31  C   UNL     1      -4.459  10.961  16.105  0.00  0.00    +0.000 A 
ATOM     32  C   UNL     1      -4.787  11.652  17.266  0.00  0.00    +0.000 A 
ATOM     33 CL   UNL     1      -6.265  12.531  17.347  0.00  0.00    +0.000 Cl
ATOM     34  C   UNL     1      -3.927  11.646  18.367  0.00  0.00    +0.000 A 
ENDBRANCH  26  27
ENDBRANCH  12  26
TORSDOF 7
ENDMDL
