MODEL 1
REMARK VINA RESULT:      -6.7      0.000      0.000
REMARK  Name = 
REMARK  7 active torsions:
REMARK  status: ('A' for Active; 'I' for Inactive)
REMARK    1  A    between atoms: C_1  and  C_2
REMARK    2  A    between atoms: C_2  and  N_3
REMARK    3  A    between atoms: N_3  and  C_4
REMARK    4  A    between atoms: N_3  and  C_6
REMARK    5  A    between atoms: C_4  and  C_5
REMARK    6  A    between atoms: C_9  and  C_10
REMARK    7  A    between atoms: N_11  and  N_12
REMARK                            x       y       z     vdW  Elec       q    Type
REMARK                         _______ _______ _______ _____ _____    ______ ____
ROOT
ATOM      1  C   UNL     1       1.200   9.059  19.894  0.00  0.00    +0.000 A 
ATOM      2  C   UNL     1       1.748   7.860  20.381  0.00  0.00    +0.000 A 
ATOM      3  C   UNL     1       2.544   7.039  19.581  0.00  0.00    +0.000 A 
ATOM      4  C   UNL     1       2.809   7.399  18.261  0.00  0.00    +0.000 A 
ATOM      5  C   UNL     1       2.265   8.570  17.738  0.00  0.00    +0.000 A 
ATOM      6  C   UNL     1       1.470   9.387  18.553  0.00  0.00    +0.000 A 
ENDROOT
BRANCH   4   7
ATOM      7  C   UNL     1       3.690   6.556  17.430  0.00  0.00    +0.000 C 
ATOM      8  N   UNL     1       3.676   5.266  17.554  0.00  0.00    +0.000 NA
BRANCH   8   9
ATOM      9  N   UNL     1       4.580   4.578  16.799  0.00  0.00    +0.000 N 
ATOM     10  C   UNL     1       5.883   4.487  17.146  0.00  0.00    +0.000 A 
ATOM     11  N   UNL     1       6.314   4.679  18.439  0.00  0.00    +0.000 NA
ATOM     12  N   UNL     1       7.633   4.549  18.426  0.00  0.00    +0.000 NA
ATOM     13  N   UNL     1       7.926   4.302  17.148  0.00  0.00    +0.000 N 
ATOM     14  N   UNL     1       6.888   4.221  16.301  0.00  0.00    +0.000 NA
ATOM     15  H   UNL     1       4.401   4.479  15.801  0.00  0.00    +0.000 HD
ATOM     16  H   UNL     1       8.886   4.191  16.837  0.00  0.00    +0.000 HD
ENDBRANCH   8   9
ENDBRANCH   4   7
BRANCH   1  17
ATOM     17  N   UNL     1       0.432   9.915  20.698  0.00  0.00    +0.000 N 
BRANCH  17  19
ATOM     18  C   UNL     1      -0.056   9.574  23.115  0.00  0.00    +0.000 C 
ATOM     19  C   UNL     1      -0.474   9.294  21.678  0.00  0.00    +0.000 C 
ENDBRANCH  17  19
BRANCH  17  20
ATOM     20  C   UNL     1       0.039  11.203  20.096  0.00  0.00    +0.000 C 
ATOM     21  C   UNL     1      -1.468  11.427  20.082  0.00  0.00    +0.000 C 
ENDBRANCH  17  20
ENDBRANCH   1  17
TORSDOF 5
ENDMDL
MODEL 2
REMARK VINA RESULT:      -6.5      0.446      1.214
REMARK  Name = 
REMARK  7 active torsions:
REMARK  status: ('A' for Active; 'I' for Inactive)
REMARK    1  A    between atoms: C_1  and  C_2
REMARK    2  A    between atoms: C_2  and  N_3
REMARK    3  A    between atoms: N_3  and  C_4
REMARK    4  A    between atoms: N_3  and  C_6
REMARK    5  A    between atoms: C_4  and  C_5
REMARK    6  A    between atoms: C_9  and  C_10
REMARK    7  A    between atoms: N_11  and  N_12
REMARK                            x       y       z     vdW  Elec       q    Type
REMARK                         _______ _______ _______ _____ _____    ______ ____
ROOT
ATOM      1  C   UNL     1       1.110   9.219  19.996  0.00  0.00    +0.000 A 
ATOM      2  C   UNL     1       1.407   9.575  18.670  0.00  0.00    +0.000 A 
ATOM      3  C   UNL     1       2.185   8.758  17.847  0.00  0.00    +0.000 A 
ATOM      4  C   UNL     1       2.693   7.557  18.340  0.00  0.00    +0.000 A 
ATOM      5  C   UNL     1       2.435   7.183  19.656  0.00  0.00    +0.000 A 
ATOM      6  C   UNL     1       1.650   8.011  20.470  0.00  0.00    +0.000 A 
ENDROOT
BRANCH   4   7
ATOM      7  C   UNL     1       3.474   6.671  17.456  0.00  0.00    +0.000 C 
ATOM      8  N   UNL     1       3.877   5.513  17.874  0.00  0.00    +0.000 NA
BRANCH   8   9
ATOM      9  N   UNL     1       4.657   4.799  17.012  0.00  0.00    +0.000 N 
ATOM     10  C   UNL     1       5.976   4.603  17.233  0.00  0.00    +0.000 A 
ATOM     11  N   UNL     1       6.535   4.708  18.486  0.00  0.00    +0.000 NA
ATOM     12  N   UNL     1       7.835   4.489  18.345  0.00  0.00    +0.000 NA
ATOM     13  N   UNL     1       7.992   4.279  17.037  0.00  0.00    +0.000 N 
ATOM     14  N   UNL     1       6.879   4.307  16.288  0.00  0.00    +0.000 NA
ATOM     15  H   UNL     1       4.382   4.757  16.033  0.00  0.00    +0.000 HD
ATOM     16  H   UNL     1       8.910   4.116  16.634  0.00  0.00    +0.000 HD
ENDBRANCH   8   9
ENDBRANCH   4   7
BRANCH   1  17
ATOM     17  N   UNL     1       0.295  10.010  20.821  0.00  0.00    +0.000 N 
BRANCH  17  19
ATOM     18  C   UNL     1       0.004   9.467  23.232  0.00  0.00    +0.000 C 
ATOM     19  C   UNL     1      -0.536   9.316  21.818  0.00  0.00    +0.000 C 
ENDBRANCH  17  19
BRANCH  17  20
ATOM     20  C   UNL     1      -0.214  11.264  20.233  0.00  0.00    +0.000 C 
ATOM     21  C   UNL     1      -0.198  12.436  21.206  0.00  0.00    +0.000 C 
ENDBRANCH  17  20
ENDBRANCH   1  17
TORSDOF 5
ENDMDL
MODEL 3
REMARK VINA RESULT:      -6.4      0.922      1.689
REMARK  Name = 
REMARK  7 active torsions:
REMARK  status: ('A' for Active; 'I' for Inactive)
REMARK    1  A    between atoms: C_1  and  C_2
REMARK    2  A    between atoms: C_2  and  N_3
REMARK    3  A    between atoms: N_3  and  C_4
REMARK    4  A    between atoms: N_3  and  C_6
REMARK    5  A    between atoms: C_4  and  C_5
REMARK    6  A    between atoms: C_9  and  C_10
REMARK    7  A    between atoms: N_11  and  N_12
REMARK                            x       y       z     vdW  Elec       q    Type
REMARK                         _______ _______ _______ _____ _____    ______ ____
ROOT
ATOM      1  C   UNL     1       0.764   9.208  19.771  0.00  0.00    +0.000 A 
ATOM      2  C   UNL     1       1.297   8.120  20.480  0.00  0.00    +0.000 A 
ATOM      3  C   UNL     1       2.235   7.258  19.908  0.00  0.00    +0.000 A 
ATOM      4  C   UNL     1       2.660   7.466  18.597  0.00  0.00    +0.000 A 
ATOM      5  C   UNL     1       2.138   8.523  17.857  0.00  0.00    +0.000 A 
ATOM      6  C   UNL     1       1.199   9.382  18.445  0.00  0.00    +0.000 A 
ENDROOT
BRANCH   4   7
ATOM      7  C   UNL     1       3.687   6.585  18.008  0.00  0.00    +0.000 C 
ATOM      8  N   UNL     1       3.822   5.364  18.419  0.00  0.00    +0.000 NA
BRANCH   8   9
ATOM      9  N   UNL     1       4.847   4.652  17.869  0.00  0.00    +0.000 N 
ATOM     10  C   UNL     1       6.116   4.754  18.324  0.00  0.00    +0.000 A 
ATOM     11  N   UNL     1       6.408   5.208  19.590  0.00  0.00    +0.000 NA
ATOM     12  N   UNL     1       7.729   5.212  19.699  0.00  0.00    +0.000 NA
ATOM     13  N   UNL     1       8.159   4.781  18.512  0.00  0.00    +0.000 N 
ATOM     14  N   UNL     1       7.214   4.452  17.618  0.00  0.00    +0.000 NA
ATOM     15  H   UNL     1       4.770   4.367  16.894  0.00  0.00    +0.000 HD
ATOM     16  H   UNL     1       9.149   4.717  18.299  0.00  0.00    +0.000 HD
ENDBRANCH   8   9
ENDBRANCH   4   7
BRANCH   1  17
ATOM     17  N   UNL     1      -0.148  10.107  20.347  0.00  0.00    +0.000 N 
BRANCH  17  19
ATOM     18  C   UNL     1      -0.745  12.393  19.564  0.00  0.00    +0.000 C 
ATOM     19  C   UNL     1      -0.991  10.896  19.435  0.00  0.00    +0.000 C 
ENDBRANCH  17  19
BRANCH  17  20
ATOM     20  C   UNL     1       0.250  10.709  21.634  0.00  0.00    +0.000 C 
ATOM     21  C   UNL     1      -0.609  10.250  22.806  0.00  0.00    +0.000 C 
ENDBRANCH  17  20
ENDBRANCH   1  17
TORSDOF 5
ENDMDL
MODEL 4
REMARK VINA RESULT:      -6.4      1.194      1.362
REMARK  Name = 
REMARK  7 active torsions:
REMARK  status: ('A' for Active; 'I' for Inactive)
REMARK    1  A    between atoms: C_1  and  C_2
REMARK    2  A    between atoms: C_2  and  N_3
REMARK    3  A    between atoms: N_3  and  C_4
REMARK    4  A    between atoms: N_3  and  C_6
REMARK    5  A    between atoms: C_4  and  C_5
REMARK    6  A    between atoms: C_9  and  C_10
REMARK    7  A    between atoms: N_11  and  N_12
REMARK                            x       y       z     vdW  Elec       q    Type
REMARK                         _______ _______ _______ _____ _____    ______ ____
ROOT
ATOM      1  C   UNL     1       0.923   9.877  19.557  0.00  0.00    +0.000 A 
ATOM      2  C   UNL     1       1.198   8.745  20.343  0.00  0.00    +0.000 A 
ATOM      3  C   UNL     1       1.965   7.683  19.859  0.00  0.00    +0.000 A 
ATOM      4  C   UNL     1       2.474   7.729  18.562  0.00  0.00    +0.000 A 
ATOM      5  C   UNL     1       2.205   8.826  17.748  0.00  0.00    +0.000 A 
ATOM      6  C   UNL     1       1.436   9.886  18.248  0.00  0.00    +0.000 A 
ENDROOT
BRANCH   4   7
ATOM      7  C   UNL     1       3.325   6.629  18.067  0.00  0.00    +0.000 C 
ATOM      8  N   UNL     1       3.889   5.808  18.895  0.00  0.00    +0.000 NA
BRANCH   8   9
ATOM      9  N   UNL     1       4.716   4.873  18.347  0.00  0.00    +0.000 N 
ATOM     10  C   UNL     1       6.044   4.852  18.604  0.00  0.00    +0.000 A 
ATOM     11  N   UNL     1       6.586   5.448  19.719  0.00  0.00    +0.000 NA
ATOM     12  N   UNL     1       7.898   5.269  19.648  0.00  0.00    +0.000 NA
ATOM     13  N   UNL     1       8.077   4.598  18.509  0.00  0.00    +0.000 N 
ATOM     14  N   UNL     1       6.970   4.280  17.822  0.00  0.00    +0.000 NA
ATOM     15  H   UNL     1       4.452   4.454  17.458  0.00  0.00    +0.000 HD
ATOM     16  H   UNL     1       9.006   4.353  18.180  0.00  0.00    +0.000 HD
ENDBRANCH   8   9
ENDBRANCH   4   7
BRANCH   1  17
ATOM     17  N   UNL     1       0.190  10.970  20.045  0.00  0.00    +0.000 N 
BRANCH  17  19
ATOM     18  C   UNL     1      -0.508  12.158  22.118  0.00  0.00    +0.000 C 
ATOM     19  C   UNL     1      -0.428  10.833  21.373  0.00  0.00    +0.000 C 
ENDBRANCH  17  19
BRANCH  17  20
ATOM     20  C   UNL     1      -0.489  11.806  19.037  0.00  0.00    +0.000 C 
ATOM     21  C   UNL     1      -1.935  11.395  18.788  0.00  0.00    +0.000 C 
ENDBRANCH  17  20
ENDBRANCH   1  17
TORSDOF 5
ENDMDL
MODEL 5
REMARK VINA RESULT:      -6.4      0.794      1.923
REMARK  Name = 
REMARK  7 active torsions:
REMARK  status: ('A' for Active; 'I' for Inactive)
REMARK    1  A    between atoms: C_1  and  C_2
REMARK    2  A    between atoms: C_2  and  N_3
REMARK    3  A    between atoms: N_3  and  C_4
REMARK    4  A    between atoms: N_3  and  C_6
REMARK    5  A    between atoms: C_4  and  C_5
REMARK    6  A    between atoms: C_9  and  C_10
REMARK    7  A    between atoms: N_11  and  N_12
REMARK                            x       y       z     vdW  Elec       q    Type
REMARK                         _______ _______ _______ _____ _____    ______ ____
ROOT
ATOM      1  C   UNL     1       0.752   9.336  19.773  0.00  0.00    +0.000 A 
ATOM      2  C   UNL     1       1.115   9.495  18.426  0.00  0.00    +0.000 A 
ATOM      3  C   UNL     1       2.012   8.629  17.799  0.00  0.00    +0.000 A 
ATOM      4  C   UNL     1       2.576   7.575  18.516  0.00  0.00    +0.000 A 
ATOM      5  C   UNL     1       2.255   7.398  19.860  0.00  0.00    +0.000 A 
ATOM      6  C   UNL     1       1.350   8.274  20.475  0.00  0.00    +0.000 A 
ENDROOT
BRANCH   4   7
ATOM      7  C   UNL     1       3.487   6.630  17.842  0.00  0.00    +0.000 C 
ATOM      8  N   UNL     1       3.532   5.386  18.203  0.00  0.00    +0.000 NA
BRANCH   8   9
ATOM      9  N   UNL     1       4.458   4.609  17.573  0.00  0.00    +0.000 N 
ATOM     10  C   UNL     1       5.762   4.614  17.931  0.00  0.00    +0.000 A 
ATOM     11  N   UNL     1       6.182   5.033  19.173  0.00  0.00    +0.000 NA
ATOM     12  N   UNL     1       7.504   4.941  19.181  0.00  0.00    +0.000 NA
ATOM     13  N   UNL     1       7.810   4.492  17.963  0.00  0.00    +0.000 N 
ATOM     14  N   UNL     1       6.779   4.241  17.142  0.00  0.00    +0.000 NA
ATOM     15  H   UNL     1       4.287   4.340  16.606  0.00  0.00    +0.000 HD
ATOM     16  H   UNL     1       8.774   4.359  17.674  0.00  0.00    +0.000 HD
ENDBRANCH   8   9
ENDBRANCH   4   7
BRANCH   1  17
ATOM     17  N   UNL     1      -0.180  10.174  20.405  0.00  0.00    +0.000 N 
BRANCH  17  19
ATOM     18  C   UNL     1      -0.858  12.462  19.696  0.00  0.00    +0.000 C 
ATOM     19  C   UNL     1      -1.075  10.964  19.543  0.00  0.00    +0.000 C 
ENDBRANCH  17  19
BRANCH  17  20
ATOM     20  C   UNL     1       0.223  10.742  21.705  0.00  0.00    +0.000 C 
ATOM     21  C   UNL     1      -0.674  10.308  22.857  0.00  0.00    +0.000 C 
ENDBRANCH  17  20
ENDBRANCH   1  17
TORSDOF 5
ENDMDL
MODEL 6
REMARK VINA RESULT:      -6.4      1.361      2.241
REMARK  Name = 
REMARK  7 active torsions:
REMARK  status: ('A' for Active; 'I' for Inactive)
REMARK    1  A    between atoms: C_1  and  C_2
REMARK    2  A    between atoms: C_2  and  N_3
REMARK    3  A    between atoms: N_3  and  C_4
REMARK    4  A    between atoms: N_3  and  C_6
REMARK    5  A    between atoms: C_4  and  C_5
REMARK    6  A    between atoms: C_9  and  C_10
REMARK    7  A    between atoms: N_11  and  N_12
REMARK                            x       y       z     vdW  Elec       q    Type
REMARK                         _______ _______ _______ _____ _____    ______ ____
ROOT
ATOM      1  C   UNL     1       1.475   8.316  20.041  0.00  0.00    +0.000 A 
ATOM      2  C   UNL     1       1.609   7.026  20.581  0.00  0.00    +0.000 A 
ATOM      3  C   UNL     1       2.208   5.989  19.864  0.00  0.00    +0.000 A 
ATOM      4  C   UNL     1       2.686   6.220  18.575  0.00  0.00    +0.000 A 
ATOM      5  C   UNL     1       2.551   7.481  18.000  0.00  0.00    +0.000 A 
ATOM      6  C   UNL     1       1.951   8.514  18.733  0.00  0.00    +0.000 A 
ENDROOT
BRANCH   4   7
ATOM      7  C   UNL     1       3.362   5.137  17.835  0.00  0.00    +0.000 C 
ATOM      8  N   UNL     1       4.629   5.210  17.573  0.00  0.00    +0.000 NA
BRANCH   8   9
ATOM      9  N   UNL     1       5.147   4.198  16.820  0.00  0.00    +0.000 N 
ATOM     10  C   UNL     1       5.983   4.432  15.782  0.00  0.00    +0.000 A 
ATOM     11  N   UNL     1       6.705   5.597  15.669  0.00  0.00    +0.000 NA
ATOM     12  N   UNL     1       7.389   5.515  14.536  0.00  0.00    +0.000 NA
ATOM     13  N   UNL     1       7.041   4.332  14.028  0.00  0.00    +0.000 N 
ATOM     14  N   UNL     1       6.193   3.592  14.759  0.00  0.00    +0.000 NA
ATOM     15  H   UNL     1       4.623   3.328  16.752  0.00  0.00    +0.000 HD
ATOM     16  H   UNL     1       7.395   4.017  13.130  0.00  0.00    +0.000 HD
ENDBRANCH   8   9
ENDBRANCH   4   7
BRANCH   1  17
ATOM     17  N   UNL     1       0.913   9.379  20.766  0.00  0.00    +0.000 N 
BRANCH  17  19
ATOM     18  C   UNL     1      -0.757  10.820  19.614  0.00  0.00    +0.000 C 
ATOM     19  C   UNL     1       0.690  10.645  20.049  0.00  0.00    +0.000 C 
ENDBRANCH  17  19
BRANCH  17  20
ATOM     20  C   UNL     1       1.233   9.433  22.205  0.00  0.00    +0.000 C 
ATOM     21  C   UNL     1      -0.001   9.456  23.097  0.00  0.00    +0.000 C 
ENDBRANCH  17  20
ENDBRANCH   1  17
TORSDOF 5
ENDMDL
MODEL 7
REMARK VINA RESULT:      -6.4      1.381      2.237
REMARK  Name = 
REMARK  7 active torsions:
REMARK  status: ('A' for Active; 'I' for Inactive)
REMARK    1  A    between atoms: C_1  and  C_2
REMARK    2  A    between atoms: C_2  and  N_3
REMARK    3  A    between atoms: N_3  and  C_4
REMARK    4  A    between atoms: N_3  and  C_6
REMARK    5  A    between atoms: C_4  and  C_5
REMARK    6  A    between atoms: C_9  and  C_10
REMARK    7  A    between atoms: N_11  and  N_12
REMARK                            x       y       z     vdW  Elec       q    Type
REMARK                         _______ _______ _______ _____ _____    ______ ____
ROOT
ATOM      1  C   UNL     1       0.831   9.612  19.660  0.00  0.00    +0.000 A 
ATOM      2  C   UNL     1       1.410   9.530  18.382  0.00  0.00    +0.000 A 
ATOM      3  C   UNL     1       2.247   8.472  18.021  0.00  0.00    +0.000 A 
ATOM      4  C   UNL     1       2.529   7.464  18.941  0.00  0.00    +0.000 A 
ATOM      5  C   UNL     1       1.989   7.523  20.223  0.00  0.00    +0.000 A 
ATOM      6  C   UNL     1       1.149   8.589  20.572  0.00  0.00    +0.000 A 
ENDROOT
BRANCH   4   7
ATOM      7  C   UNL     1       3.374   6.321  18.544  0.00  0.00    +0.000 C 
ATOM      8  N   UNL     1       3.729   6.162  17.309  0.00  0.00    +0.000 NA
BRANCH   8   9
ATOM      9  N   UNL     1       4.444   5.036  17.027  0.00  0.00    +0.000 N 
ATOM     10  C   UNL     1       5.653   5.086  16.423  0.00  0.00    +0.000 A 
ATOM     11  N   UNL     1       6.435   6.218  16.438  0.00  0.00    +0.000 NA
ATOM     12  N   UNL     1       7.525   5.940  15.737  0.00  0.00    +0.000 NA
ATOM     13  N   UNL     1       7.342   4.681  15.332  0.00  0.00    +0.000 N 
ATOM     14  N   UNL     1       6.216   4.079  15.743  0.00  0.00    +0.000 NA
ATOM     15  H   UNL     1       3.938   4.163  16.887  0.00  0.00    +0.000 HD
ATOM     16  H   UNL     1       8.019   4.214  14.737  0.00  0.00    +0.000 HD
ENDBRANCH   8   9
ENDBRANCH   4   7
BRANCH   1  17
ATOM     17  N   UNL     1      -0.045  10.647  20.023  0.00  0.00    +0.000 N 
BRANCH  17  19
ATOM     18  C   UNL     1      -2.024  10.806  18.523  0.00  0.00    +0.000 C 
ATOM     19  C   UNL     1      -0.687  11.404  18.937  0.00  0.00    +0.000 C 
ENDBRANCH  17  19
BRANCH  17  20
ATOM     20  C   UNL     1       0.257  11.348  21.285  0.00  0.00    +0.000 C 
ATOM     21  C   UNL     1      -0.822  11.172  22.346  0.00  0.00    +0.000 C 
ENDBRANCH  17  20
ENDBRANCH   1  17
TORSDOF 5
ENDMDL
MODEL 8
REMARK VINA RESULT:      -6.3      1.096      1.356
REMARK  Name = 
REMARK  7 active torsions:
REMARK  status: ('A' for Active; 'I' for Inactive)
REMARK    1  A    between atoms: C_1  and  C_2
REMARK    2  A    between atoms: C_2  and  N_3
REMARK    3  A    between atoms: N_3  and  C_4
REMARK    4  A    between atoms: N_3  and  C_6
REMARK    5  A    between atoms: C_4  and  C_5
REMARK    6  A    between atoms: C_9  and  C_10
REMARK    7  A    between atoms: N_11  and  N_12
REMARK                            x       y       z     vdW  Elec       q    Type
REMARK                         _______ _______ _______ _____ _____    ______ ____
ROOT
ATOM      1  C   UNL     1       1.232   9.213  19.833  0.00  0.00    +0.000 A 
ATOM      2  C   UNL     1       1.525   8.029  20.530  0.00  0.00    +0.000 A 
ATOM      3  C   UNL     1       2.187   6.962  19.919  0.00  0.00    +0.000 A 
ATOM      4  C   UNL     1       2.569   7.055  18.582  0.00  0.00    +0.000 A 
ATOM      5  C   UNL     1       2.278   8.205  17.855  0.00  0.00    +0.000 A 
ATOM      6  C   UNL     1       1.616   9.270  18.481  0.00  0.00    +0.000 A 
ENDROOT
BRANCH   4   7
ATOM      7  C   UNL     1       3.312   5.947  17.951  0.00  0.00    +0.000 C 
ATOM      8  N   UNL     1       4.417   5.514  18.469  0.00  0.00    +0.000 NA
BRANCH   8   9
ATOM      9  N   UNL     1       5.069   4.539  17.773  0.00  0.00    +0.000 N 
ATOM     10  C   UNL     1       6.035   4.827  16.871  0.00  0.00    +0.000 A 
ATOM     11  N   UNL     1       6.728   6.015  16.891  0.00  0.00    +0.000 NA
ATOM     12  N   UNL     1       7.568   5.985  15.865  0.00  0.00    +0.000 NA
ATOM     13  N   UNL     1       7.334   4.807  15.283  0.00  0.00    +0.000 N 
ATOM     14  N   UNL     1       6.415   4.023  15.868  0.00  0.00    +0.000 NA
ATOM     15  H   UNL     1       4.588   3.657  17.609  0.00  0.00    +0.000 HD
ATOM     16  H   UNL     1       7.821   4.529  14.437  0.00  0.00    +0.000 HD
ENDBRANCH   8   9
ENDBRANCH   4   7
BRANCH   1  17
ATOM     17  N   UNL     1       0.605  10.310  20.445  0.00  0.00    +0.000 N 
BRANCH  17  19
ATOM     18  C   UNL     1      -0.329  10.307  22.751  0.00  0.00    +0.000 C 
ATOM     19  C   UNL     1      -0.579  10.037  21.275  0.00  0.00    +0.000 C 
ENDBRANCH  17  19
BRANCH  17  20
ATOM     20  C   UNL     1       0.675  11.593  19.721  0.00  0.00    +0.000 C 
ATOM     21  C   UNL     1       1.523  12.641  20.431  0.00  0.00    +0.000 C 
ENDBRANCH  17  20
ENDBRANCH   1  17
TORSDOF 5
ENDMDL
MODEL 9
REMARK VINA RESULT:      -6.3      1.437      1.897
REMARK  Name = 
REMARK  7 active torsions:
REMARK  status: ('A' for Active; 'I' for Inactive)
REMARK    1  A    between atoms: C_1  and  C_2
REMARK    2  A    between atoms: C_2  and  N_3
REMARK    3  A    between atoms: N_3  and  C_4
REMARK    4  A    between atoms: N_3  and  C_6
REMARK    5  A    between atoms: C_4  and  C_5
REMARK    6  A    between atoms: C_9  and  C_10
REMARK    7  A    between atoms: N_11  and  N_12
REMARK                            x       y       z     vdW  Elec       q    Type
REMARK                         _______ _______ _______ _____ _____    ______ ____
ROOT
ATOM      1  C   UNL     1       0.734   9.903  19.405  0.00  0.00    +0.000 A 
ATOM      2  C   UNL     1       1.043   8.970  20.408  0.00  0.00    +0.000 A 
ATOM      3  C   UNL     1       1.781   7.816  20.136  0.00  0.00    +0.000 A 
ATOM      4  C   UNL     1       2.226   7.565  18.839  0.00  0.00    +0.000 A 
ATOM      5  C   UNL     1       1.922   8.459  17.816  0.00  0.00    +0.000 A 
ATOM      6  C   UNL     1       1.183   9.614  18.103  0.00  0.00    +0.000 A 
ENDROOT
BRANCH   4   7
ATOM      7  C   UNL     1       3.047   6.371  18.561  0.00  0.00    +0.000 C 
ATOM      8  N   UNL     1       4.108   6.458  17.822  0.00  0.00    +0.000 NA
BRANCH   8   9
ATOM      9  N   UNL     1       4.758   5.288  17.560  0.00  0.00    +0.000 N 
ATOM     10  C   UNL     1       5.852   5.238  16.768  0.00  0.00    +0.000 A 
ATOM     11  N   UNL     1       6.637   6.342  16.528  0.00  0.00    +0.000 NA
ATOM     12  N   UNL     1       7.596   5.958  15.697  0.00  0.00    +0.000 NA
ATOM     13  N   UNL     1       7.337   4.668  15.472  0.00  0.00    +0.000 N 
ATOM     14  N   UNL     1       6.287   4.146  16.124  0.00  0.00    +0.000 NA
ATOM     15  H   UNL     1       4.227   4.420  17.603  0.00  0.00    +0.000 HD
ATOM     16  H   UNL     1       7.903   4.118  14.833  0.00  0.00    +0.000 HD
ENDBRANCH   8   9
ENDBRANCH   4   7
BRANCH   1  17
ATOM     17  N   UNL     1       0.030  11.087  19.671  0.00  0.00    +0.000 N 
BRANCH  17  19
ATOM     18  C   UNL     1       1.272  13.032  20.603  0.00  0.00    +0.000 C 
ATOM     19  C   UNL     1       0.387  11.828  20.892  0.00  0.00    +0.000 C 
ENDBRANCH  17  19
BRANCH  17  20
ATOM     20  C   UNL     1      -1.368  11.139  19.202  0.00  0.00    +0.000 C 
ATOM     21  C   UNL     1      -1.562  12.030  17.982  0.00  0.00    +0.000 C 
ENDBRANCH  17  20
ENDBRANCH   1  17
TORSDOF 5
ENDMDL
