MODEL 1
REMARK VINA RESULT:      -7.7      0.000      0.000
REMARK  Name = 
REMARK  4 active torsions:
REMARK  status: ('A' for Active; 'I' for Inactive)
REMARK    1  A    between atoms: C_2  and  C_3
REMARK    2  A    between atoms: C_5  and  C_6
REMARK    3  A    between atoms: C_14  and  S_15
REMARK    4  A    between atoms: S_15  and  C_16
REMARK                            x       y       z     vdW  Elec       q    Type
REMARK                         _______ _______ _______ _____ _____    ______ ____
ROOT
ATOM      1  C   UNL     1       2.377   4.792  20.640  0.00  0.00    +0.000 A 
ATOM      2  C   UNL     1       1.640   5.962  20.872  0.00  0.00    +0.000 A 
ATOM      3  C   UNL     1       1.947   7.123  20.176  0.00  0.00    +0.000 A 
ATOM      4  N   UNL     1       2.923   7.093  19.245  0.00  0.00    +0.000 NA
ATOM      5  N   UNL     1       3.645   5.935  19.003  0.00  0.00    +0.000 NA
ATOM      6  C   UNL     1       3.389   4.805  19.692  0.00  0.00    +0.000 A 
ENDROOT
BRANCH   3   7
ATOM      7  C   UNL     1       1.283   8.422  20.413  0.00  0.00    +0.000 A 
ATOM      8  C   UNL     1       0.837   8.806  21.694  0.00  0.00    +0.000 A 
ATOM      9  C   UNL     1       0.214  10.039  21.914  0.00  0.00    +0.000 A 
ATOM     10  C   UNL     1       0.026  10.925  20.859  0.00  0.00    +0.000 A 
ATOM     11  C   UNL     1       0.466  10.576  19.584  0.00  0.00    +0.000 A 
ATOM     12  C   UNL     1       1.090   9.344  19.367  0.00  0.00    +0.000 A 
ENDBRANCH   3   7
BRANCH   1  14
ATOM     13  N   UNL     1       1.772   2.694  22.032  0.00  0.00    +0.000 NA
ATOM     14  C   UNL     1       2.069   3.628  21.412  0.00  0.00    +0.000 C 
ENDBRANCH   1  14
BRANCH   6  15
ATOM     15  S   UNL     1       4.454   3.420  19.337  0.00  0.00    +0.000 S 
BRANCH  15  16
ATOM     16  C   UNL     1       5.233   3.959  17.826  0.00  0.00    +0.000 A 
ATOM     17  C   UNL     1       4.573   3.878  16.594  0.00  0.00    +0.000 A 
ATOM     18  C   UNL     1       5.223   4.266  15.419  0.00  0.00    +0.000 A 
ATOM     19  C   UNL     1       6.527   4.753  15.476  0.00  0.00    +0.000 A 
ATOM     20 CL   UNL     1       7.344   5.186  14.026  0.00  0.00    +0.000 Cl
ATOM     21  C   UNL     1       7.177   4.883  16.703  0.00  0.00    +0.000 A 
ATOM     22  C   UNL     1       6.528   4.490  17.876  0.00  0.00    +0.000 A 
ENDBRANCH  15  16
ENDBRANCH   6  15
TORSDOF 4
ENDMDL
MODEL 2
REMARK VINA RESULT:      -7.7      0.088      1.027
REMARK  Name = 
REMARK  4 active torsions:
REMARK  status: ('A' for Active; 'I' for Inactive)
REMARK    1  A    between atoms: C_2  and  C_3
REMARK    2  A    between atoms: C_5  and  C_6
REMARK    3  A    between atoms: C_14  and  S_15
REMARK    4  A    between atoms: S_15  and  C_16
REMARK                            x       y       z     vdW  Elec       q    Type
REMARK                         _______ _______ _______ _____ _____    ______ ____
ROOT
ATOM      1  C   UNL     1       2.361   4.817  20.650  0.00  0.00    +0.000 A 
ATOM      2  C   UNL     1       1.609   5.982  20.857  0.00  0.00    +0.000 A 
ATOM      3  C   UNL     1       1.904   7.134  20.142  0.00  0.00    +0.000 A 
ATOM      4  N   UNL     1       2.887   7.100  19.217  0.00  0.00    +0.000 NA
ATOM      5  N   UNL     1       3.625   5.948  19.001  0.00  0.00    +0.000 NA
ATOM      6  C   UNL     1       3.379   4.826  19.708  0.00  0.00    +0.000 A 
ENDROOT
BRANCH   3   7
ATOM      7  C   UNL     1       1.223   8.428  20.351  0.00  0.00    +0.000 A 
ATOM      8  C   UNL     1       1.079   9.368  19.310  0.00  0.00    +0.000 A 
ATOM      9  C   UNL     1       0.428  10.590  19.510  0.00  0.00    +0.000 A 
ATOM     10  C   UNL     1      -0.101  10.903  20.757  0.00  0.00    +0.000 A 
ATOM     11  C   UNL     1       0.018   9.990  21.802  0.00  0.00    +0.000 A 
ATOM     12  C   UNL     1       0.667   8.768  21.599  0.00  0.00    +0.000 A 
ENDBRANCH   3   7
BRANCH   1  14
ATOM     13  N   UNL     1       1.850   2.701  22.052  0.00  0.00    +0.000 NA
ATOM     14  C   UNL     1       2.065   3.664  21.441  0.00  0.00    +0.000 C 
ENDBRANCH   1  14
BRANCH   6  15
ATOM     15  S   UNL     1       4.465   3.450  19.385  0.00  0.00    +0.000 S 
BRANCH  15  16
ATOM     16  C   UNL     1       5.237   3.965  17.863  0.00  0.00    +0.000 A 
ATOM     17  C   UNL     1       4.576   3.855  16.634  0.00  0.00    +0.000 A 
ATOM     18  C   UNL     1       5.221   4.225  15.450  0.00  0.00    +0.000 A 
ATOM     19  C   UNL     1       6.521   4.725  15.496  0.00  0.00    +0.000 A 
ATOM     20 CL   UNL     1       7.332   5.137  14.037  0.00  0.00    +0.000 Cl
ATOM     21  C   UNL     1       7.171   4.884  16.718  0.00  0.00    +0.000 A 
ATOM     22  C   UNL     1       6.527   4.509  17.901  0.00  0.00    +0.000 A 
ENDBRANCH  15  16
ENDBRANCH   6  15
TORSDOF 4
ENDMDL
MODEL 3
REMARK VINA RESULT:      -7.7      2.967      7.426
REMARK  Name = 
REMARK  4 active torsions:
REMARK  status: ('A' for Active; 'I' for Inactive)
REMARK    1  A    between atoms: C_2  and  C_3
REMARK    2  A    between atoms: C_5  and  C_6
REMARK    3  A    between atoms: C_14  and  S_15
REMARK    4  A    between atoms: S_15  and  C_16
REMARK                            x       y       z     vdW  Elec       q    Type
REMARK                         _______ _______ _______ _____ _____    ______ ____
ROOT
ATOM      1  C   UNL     1       3.569   4.011  17.443  0.00  0.00    +0.000 A 
ATOM      2  C   UNL     1       4.205   3.798  16.212  0.00  0.00    +0.000 A 
ATOM      3  C   UNL     1       5.303   4.570  15.857  0.00  0.00    +0.000 A 
ATOM      4  N   UNL     1       5.774   5.485  16.731  0.00  0.00    +0.000 NA
ATOM      5  N   UNL     1       5.155   5.690  17.953  0.00  0.00    +0.000 NA
ATOM      6  C   UNL     1       4.066   4.977  18.305  0.00  0.00    +0.000 A 
ENDROOT
BRANCH   3   7
ATOM      7  C   UNL     1       5.986   4.476  14.550  0.00  0.00    +0.000 A 
ATOM      8  C   UNL     1       7.158   5.208  14.271  0.00  0.00    +0.000 A 
ATOM      9  C   UNL     1       7.805   5.112  13.033  0.00  0.00    +0.000 A 
ATOM     10  C   UNL     1       7.299   4.277  12.044  0.00  0.00    +0.000 A 
ATOM     11  C   UNL     1       6.147   3.535  12.295  0.00  0.00    +0.000 A 
ATOM     12  C   UNL     1       5.504   3.631  13.533  0.00  0.00    +0.000 A 
ENDBRANCH   3   7
BRANCH   1  14
ATOM     13  N   UNL     1       1.478   2.610  18.053  0.00  0.00    +0.000 NA
ATOM     14  C   UNL     1       2.409   3.235  17.753  0.00  0.00    +0.000 C 
ENDBRANCH   1  14
BRANCH   6  15
ATOM     15  S   UNL     1       3.325   5.409  19.868  0.00  0.00    +0.000 S 
BRANCH  15  16
ATOM     16  C   UNL     1       2.502   6.934  19.453  0.00  0.00    +0.000 A 
ATOM     17  C   UNL     1       2.514   7.440  18.148  0.00  0.00    +0.000 A 
ATOM     18  C   UNL     1       1.898   8.661  17.859  0.00  0.00    +0.000 A 
ATOM     19  C   UNL     1       1.253   9.370  18.871  0.00  0.00    +0.000 A 
ATOM     20 CL   UNL     1       0.536  10.894  18.527  0.00  0.00    +0.000 Cl
ATOM     21  C   UNL     1       1.194   8.852  20.164  0.00  0.00    +0.000 A 
ATOM     22  C   UNL     1       1.815   7.634  20.453  0.00  0.00    +0.000 A 
ENDBRANCH  15  16
ENDBRANCH   6  15
TORSDOF 4
ENDMDL
MODEL 4
REMARK VINA RESULT:      -7.7      2.978      7.448
REMARK  Name = 
REMARK  4 active torsions:
REMARK  status: ('A' for Active; 'I' for Inactive)
REMARK    1  A    between atoms: C_2  and  C_3
REMARK    2  A    between atoms: C_5  and  C_6
REMARK    3  A    between atoms: C_14  and  S_15
REMARK    4  A    between atoms: S_15  and  C_16
REMARK                            x       y       z     vdW  Elec       q    Type
REMARK                         _______ _______ _______ _____ _____    ______ ____
ROOT
ATOM      1  C   UNL     1       3.662   3.949  17.426  0.00  0.00    +0.000 A 
ATOM      2  C   UNL     1       4.282   3.735  16.187  0.00  0.00    +0.000 A 
ATOM      3  C   UNL     1       5.361   4.521  15.808  0.00  0.00    +0.000 A 
ATOM      4  N   UNL     1       5.830   5.453  16.665  0.00  0.00    +0.000 NA
ATOM      5  N   UNL     1       5.227   5.660  17.895  0.00  0.00    +0.000 NA
ATOM      6  C   UNL     1       4.156   4.932  18.271  0.00  0.00    +0.000 A 
ENDROOT
BRANCH   3   7
ATOM      7  C   UNL     1       6.025   4.426  14.491  0.00  0.00    +0.000 A 
ATOM      8  C   UNL     1       5.526   3.595  13.467  0.00  0.00    +0.000 A 
ATOM      9  C   UNL     1       6.154   3.512  12.219  0.00  0.00    +0.000 A 
ATOM     10  C   UNL     1       7.297   4.261  11.962  0.00  0.00    +0.000 A 
ATOM     11  C   UNL     1       7.807   5.097  12.952  0.00  0.00    +0.000 A 
ATOM     12  C   UNL     1       7.176   5.181  14.197  0.00  0.00    +0.000 A 
ENDBRANCH   3   7
BRANCH   1  14
ATOM     13  N   UNL     1       1.584   2.510  17.988  0.00  0.00    +0.000 NA
ATOM     14  C   UNL     1       2.521   3.158  17.763  0.00  0.00    +0.000 C 
ENDBRANCH   1  14
BRANCH   6  15
ATOM     15  S   UNL     1       3.434   5.368  19.841  0.00  0.00    +0.000 S 
BRANCH  15  16
ATOM     16  C   UNL     1       2.583   6.878  19.426  0.00  0.00    +0.000 A 
ATOM     17  C   UNL     1       2.610   7.399  18.127  0.00  0.00    +0.000 A 
ATOM     18  C   UNL     1       1.971   8.608  17.839  0.00  0.00    +0.000 A 
ATOM     19  C   UNL     1       1.288   9.290  18.845  0.00  0.00    +0.000 A 
ATOM     20 CL   UNL     1       0.542  10.800  18.502  0.00  0.00    +0.000 Cl
ATOM     21  C   UNL     1       1.215   8.756  20.130  0.00  0.00    +0.000 A 
ATOM     22  C   UNL     1       1.858   7.549  20.419  0.00  0.00    +0.000 A 
ENDBRANCH  15  16
ENDBRANCH   6  15
TORSDOF 4
ENDMDL
MODEL 5
REMARK VINA RESULT:      -7.6      2.962      7.430
REMARK  Name = 
REMARK  4 active torsions:
REMARK  status: ('A' for Active; 'I' for Inactive)
REMARK    1  A    between atoms: C_2  and  C_3
REMARK    2  A    between atoms: C_5  and  C_6
REMARK    3  A    between atoms: C_14  and  S_15
REMARK    4  A    between atoms: S_15  and  C_16
REMARK                            x       y       z     vdW  Elec       q    Type
REMARK                         _______ _______ _______ _____ _____    ______ ____
ROOT
ATOM      1  C   UNL     1       3.436   4.156  17.480  0.00  0.00    +0.000 A 
ATOM      2  C   UNL     1       4.054   3.913  16.245  0.00  0.00    +0.000 A 
ATOM      3  C   UNL     1       5.232   4.569  15.919  0.00  0.00    +0.000 A 
ATOM      4  N   UNL     1       5.796   5.399  16.823  0.00  0.00    +0.000 NA
ATOM      5  N   UNL     1       5.195   5.632  18.050  0.00  0.00    +0.000 NA
ATOM      6  C   UNL     1       4.032   5.033  18.375  0.00  0.00    +0.000 A 
ENDROOT
BRANCH   3   7
ATOM      7  C   UNL     1       5.910   4.441  14.612  0.00  0.00    +0.000 A 
ATOM      8  C   UNL     1       5.390   3.630  13.583  0.00  0.00    +0.000 A 
ATOM      9  C   UNL     1       6.032   3.516  12.344  0.00  0.00    +0.000 A 
ATOM     10  C   UNL     1       7.208   4.215  12.101  0.00  0.00    +0.000 A 
ATOM     11  C   UNL     1       7.739   5.033  13.096  0.00  0.00    +0.000 A 
ATOM     12  C   UNL     1       7.095   5.146  14.332  0.00  0.00    +0.000 A 
ENDBRANCH   3   7
BRANCH   1  14
ATOM     13  N   UNL     1       1.196   2.947  17.951  0.00  0.00    +0.000 NA
ATOM     14  C   UNL     1       2.196   3.504  17.762  0.00  0.00    +0.000 C 
ENDBRANCH   1  14
BRANCH   6  15
ATOM     15  S   UNL     1       3.333   5.496  19.948  0.00  0.00    +0.000 S 
BRANCH  15  16
ATOM     16  C   UNL     1       2.501   7.014  19.527  0.00  0.00    +0.000 A 
ATOM     17  C   UNL     1       1.788   7.747  20.483  0.00  0.00    +0.000 A 
ATOM     18  C   UNL     1       1.107   8.912  20.117  0.00  0.00    +0.000 A 
ATOM     19  C   UNL     1       1.154   9.356  18.796  0.00  0.00    +0.000 A 
ATOM     20 CL   UNL     1       0.279  10.762  18.334  0.00  0.00    +0.000 Cl
ATOM     21  C   UNL     1       1.900   8.660  17.847  0.00  0.00    +0.000 A 
ATOM     22  C   UNL     1       2.576   7.493  18.214  0.00  0.00    +0.000 A 
ENDBRANCH  15  16
ENDBRANCH   6  15
TORSDOF 4
ENDMDL
MODEL 6
REMARK VINA RESULT:      -7.6      2.981      7.464
REMARK  Name = 
REMARK  4 active torsions:
REMARK  status: ('A' for Active; 'I' for Inactive)
REMARK    1  A    between atoms: C_2  and  C_3
REMARK    2  A    between atoms: C_5  and  C_6
REMARK    3  A    between atoms: C_14  and  S_15
REMARK    4  A    between atoms: S_15  and  C_16
REMARK                            x       y       z     vdW  Elec       q    Type
REMARK                         _______ _______ _______ _____ _____    ______ ____
ROOT
ATOM      1  C   UNL     1       3.527   4.232  17.391  0.00  0.00    +0.000 A 
ATOM      2  C   UNL     1       4.136   4.000  16.150  0.00  0.00    +0.000 A 
ATOM      3  C   UNL     1       5.342   4.615  15.844  0.00  0.00    +0.000 A 
ATOM      4  N   UNL     1       5.938   5.393  16.773  0.00  0.00    +0.000 NA
ATOM      5  N   UNL     1       5.346   5.615  18.005  0.00  0.00    +0.000 NA
ATOM      6  C   UNL     1       4.157   5.056  18.312  0.00  0.00    +0.000 A 
ENDROOT
BRANCH   3   7
ATOM      7  C   UNL     1       6.016   4.497  14.534  0.00  0.00    +0.000 A 
ATOM      8  C   UNL     1       7.185   5.225  14.232  0.00  0.00    +0.000 A 
ATOM      9  C   UNL     1       7.822   5.107  12.993  0.00  0.00    +0.000 A 
ATOM     10  C   UNL     1       7.310   4.253  12.023  0.00  0.00    +0.000 A 
ATOM     11  C   UNL     1       6.162   3.514  12.296  0.00  0.00    +0.000 A 
ATOM     12  C   UNL     1       5.527   3.632  13.537  0.00  0.00    +0.000 A 
ENDBRANCH   3   7
BRANCH   1  14
ATOM     13  N   UNL     1       1.216   3.145  17.819  0.00  0.00    +0.000 NA
ATOM     14  C   UNL     1       2.260   3.625  17.653  0.00  0.00    +0.000 C 
ENDBRANCH   1  14
BRANCH   6  15
ATOM     15  S   UNL     1       3.476   5.501  19.898  0.00  0.00    +0.000 S 
BRANCH  15  16
ATOM     16  C   UNL     1       2.590   6.992  19.491  0.00  0.00    +0.000 A 
ATOM     17  C   UNL     1       1.843   7.685  20.451  0.00  0.00    +0.000 A 
ATOM     18  C   UNL     1       1.121   8.828  20.094  0.00  0.00    +0.000 A 
ATOM     19  C   UNL     1       1.161   9.292  18.780  0.00  0.00    +0.000 A 
ATOM     20 CL   UNL     1       0.237  10.670  18.330  0.00  0.00    +0.000 Cl
ATOM     21  C   UNL     1       1.939   8.637  17.827  0.00  0.00    +0.000 A 
ATOM     22  C   UNL     1       2.656   7.492  18.184  0.00  0.00    +0.000 A 
ENDBRANCH  15  16
ENDBRANCH   6  15
TORSDOF 4
ENDMDL
MODEL 7
REMARK VINA RESULT:      -7.5      0.413      1.509
REMARK  Name = 
REMARK  4 active torsions:
REMARK  status: ('A' for Active; 'I' for Inactive)
REMARK    1  A    between atoms: C_2  and  C_3
REMARK    2  A    between atoms: C_5  and  C_6
REMARK    3  A    between atoms: C_14  and  S_15
REMARK    4  A    between atoms: S_15  and  C_16
REMARK                            x       y       z     vdW  Elec       q    Type
REMARK                         _______ _______ _______ _____ _____    ______ ____
ROOT
ATOM      1  C   UNL     1       2.470   5.022  20.472  0.00  0.00    +0.000 A 
ATOM      2  C   UNL     1       1.730   6.206  20.594  0.00  0.00    +0.000 A 
ATOM      3  C   UNL     1       2.039   7.301  19.798  0.00  0.00    +0.000 A 
ATOM      4  N   UNL     1       3.021   7.189  18.878  0.00  0.00    +0.000 NA
ATOM      5  N   UNL     1       3.746   6.016  18.746  0.00  0.00    +0.000 NA
ATOM      6  C   UNL     1       3.487   4.951  19.532  0.00  0.00    +0.000 A 
ENDROOT
BRANCH   3   7
ATOM      7  C   UNL     1       1.373   8.615  19.913  0.00  0.00    +0.000 A 
ATOM      8  C   UNL     1       1.206   9.463  18.799  0.00  0.00    +0.000 A 
ATOM      9  C   UNL     1       0.569  10.703  18.911  0.00  0.00    +0.000 A 
ATOM     10  C   UNL     1       0.078  11.128  20.140  0.00  0.00    +0.000 A 
ATOM     11  C   UNL     1       0.220  10.307  21.256  0.00  0.00    +0.000 A 
ATOM     12  C   UNL     1       0.855   9.066  21.142  0.00  0.00    +0.000 A 
ENDBRANCH   3   7
BRANCH   1  14
ATOM     13  N   UNL     1       1.956   3.040  22.058  0.00  0.00    +0.000 NA
ATOM     14  C   UNL     1       2.160   3.932  21.344  0.00  0.00    +0.000 C 
ENDBRANCH   1  14
BRANCH   6  15
ATOM     15  S   UNL     1       4.557   3.543  19.309  0.00  0.00    +0.000 S 
BRANCH  15  16
ATOM     16  C   UNL     1       5.380   3.968  17.787  0.00  0.00    +0.000 A 
ATOM     17  C   UNL     1       6.685   4.475  17.778  0.00  0.00    +0.000 A 
ATOM     18  C   UNL     1       7.292   4.842  16.574  0.00  0.00    +0.000 A 
ATOM     19  C   UNL     1       6.601   4.686  15.373  0.00  0.00    +0.000 A 
ATOM     20 CL   UNL     1       7.328   5.181  13.896  0.00  0.00    +0.000 Cl
ATOM     21  C   UNL     1       5.319   4.138  15.366  0.00  0.00    +0.000 A 
ATOM     22  C   UNL     1       4.712   3.776  16.572  0.00  0.00    +0.000 A 
ENDBRANCH  15  16
ENDBRANCH   6  15
TORSDOF 4
ENDMDL
MODEL 8
REMARK VINA RESULT:      -7.5      0.131      1.038
REMARK  Name = 
REMARK  4 active torsions:
REMARK  status: ('A' for Active; 'I' for Inactive)
REMARK    1  A    between atoms: C_2  and  C_3
REMARK    2  A    between atoms: C_5  and  C_6
REMARK    3  A    between atoms: C_14  and  S_15
REMARK    4  A    between atoms: S_15  and  C_16
REMARK                            x       y       z     vdW  Elec       q    Type
REMARK                         _______ _______ _______ _____ _____    ______ ____
ROOT
ATOM      1  C   UNL     1       2.354   4.805  20.637  0.00  0.00    +0.000 A 
ATOM      2  C   UNL     1       1.616   5.983  20.819  0.00  0.00    +0.000 A 
ATOM      3  C   UNL     1       1.956   7.130  20.115  0.00  0.00    +0.000 A 
ATOM      4  N   UNL     1       2.969   7.078  19.224  0.00  0.00    +0.000 NA
ATOM      5  N   UNL     1       3.693   5.913  19.032  0.00  0.00    +0.000 NA
ATOM      6  C   UNL     1       3.403   4.796  19.730  0.00  0.00    +0.000 A 
ENDROOT
BRANCH   3   7
ATOM      7  C   UNL     1       1.292   8.436  20.302  0.00  0.00    +0.000 A 
ATOM      8  C   UNL     1       0.781   8.838  21.553  0.00  0.00    +0.000 A 
ATOM      9  C   UNL     1       0.158  10.078  21.726  0.00  0.00    +0.000 A 
ATOM     10  C   UNL     1       0.033  10.953  20.653  0.00  0.00    +0.000 A 
ATOM     11  C   UNL     1       0.537  10.587  19.407  0.00  0.00    +0.000 A 
ATOM     12  C   UNL     1       1.161   9.347  19.236  0.00  0.00    +0.000 A 
ENDBRANCH   3   7
BRANCH   1  14
ATOM     13  N   UNL     1       1.747   2.749  22.090  0.00  0.00    +0.000 NA
ATOM     14  C   UNL     1       2.010   3.658  21.416  0.00  0.00    +0.000 C 
ENDBRANCH   1  14
BRANCH   6  15
ATOM     15  S   UNL     1       4.474   3.400  19.442  0.00  0.00    +0.000 S 
BRANCH  15  16
ATOM     16  C   UNL     1       5.301   3.898  17.944  0.00  0.00    +0.000 A 
ATOM     17  C   UNL     1       6.585   4.456  17.969  0.00  0.00    +0.000 A 
ATOM     18  C   UNL     1       7.193   4.879  16.783  0.00  0.00    +0.000 A 
ATOM     19  C   UNL     1       6.527   4.728  15.569  0.00  0.00    +0.000 A 
ATOM     20 CL   UNL     1       7.254   5.291  14.116  0.00  0.00    +0.000 Cl
ATOM     21  C   UNL     1       5.268   4.131  15.528  0.00  0.00    +0.000 A 
ATOM     22  C   UNL     1       4.659   3.713  16.714  0.00  0.00    +0.000 A 
ENDBRANCH  15  16
ENDBRANCH   6  15
TORSDOF 4
ENDMDL
MODEL 9
REMARK VINA RESULT:      -7.4      4.351      8.131
REMARK  Name = 
REMARK  4 active torsions:
REMARK  status: ('A' for Active; 'I' for Inactive)
REMARK    1  A    between atoms: C_2  and  C_3
REMARK    2  A    between atoms: C_5  and  C_6
REMARK    3  A    between atoms: C_14  and  S_15
REMARK    4  A    between atoms: S_15  and  C_16
REMARK                            x       y       z     vdW  Elec       q    Type
REMARK                         _______ _______ _______ _____ _____    ______ ____
ROOT
ATOM      1  C   UNL     1       1.397   8.994  19.876  0.00  0.00    +0.000 A 
ATOM      2  C   UNL     1       1.913   7.726  19.576  0.00  0.00    +0.000 A 
ATOM      3  C   UNL     1       2.435   7.471  18.315  0.00  0.00    +0.000 A 
ATOM      4  N   UNL     1       2.483   8.471  17.409  0.00  0.00    +0.000 NA
ATOM      5  N   UNL     1       1.985   9.729  17.706  0.00  0.00    +0.000 NA
ATOM      6  C   UNL     1       1.441   9.990  18.912  0.00  0.00    +0.000 A 
ENDROOT
BRANCH   3   7
ATOM      7  C   UNL     1       2.924   6.147  17.879  0.00  0.00    +0.000 A 
ATOM      8  C   UNL     1       4.220   5.970  17.352  0.00  0.00    +0.000 A 
ATOM      9  C   UNL     1       4.680   4.713  16.946  0.00  0.00    +0.000 A 
ATOM     10  C   UNL     1       3.859   3.597  17.061  0.00  0.00    +0.000 A 
ATOM     11  C   UNL     1       2.577   3.740  17.587  0.00  0.00    +0.000 A 
ATOM     12  C   UNL     1       2.119   4.998  17.994  0.00  0.00    +0.000 A 
ENDBRANCH   3   7
BRANCH   1  14
ATOM     13  N   UNL     1       0.374   9.338  22.230  0.00  0.00    +0.000 NA
ATOM     14  C   UNL     1       0.819   9.206  21.166  0.00  0.00    +0.000 C 
ENDBRANCH   1  14
BRANCH   6  15
ATOM     15  S   UNL     1       0.763  11.625  19.122  0.00  0.00    +0.000 S 
BRANCH  15  16
ATOM     16  C   UNL     1      -0.953  11.343  18.735  0.00  0.00    +0.000 A 
ATOM     17  C   UNL     1      -1.351  10.299  17.892  0.00  0.00    +0.000 A 
ATOM     18  C   UNL     1      -2.700  10.126  17.570  0.00  0.00    +0.000 A 
ATOM     19  C   UNL     1      -3.657  10.986  18.106  0.00  0.00    +0.000 A 
ATOM     20 CL   UNL     1      -5.311  10.805  17.673  0.00  0.00    +0.000 Cl
ATOM     21  C   UNL     1      -3.277  12.000  18.984  0.00  0.00    +0.000 A 
ATOM     22  C   UNL     1      -1.927  12.175  19.301  0.00  0.00    +0.000 A 
ENDBRANCH  15  16
ENDBRANCH   6  15
TORSDOF 4
ENDMDL
