MODEL 1
REMARK VINA RESULT:      -8.2      0.000      0.000
REMARK  Name = 
REMARK  8 active torsions:
REMARK  status: ('A' for Active; 'I' for Inactive)
REMARK    1  A    between atoms: C_1  and  C_2
REMARK    2  A    between atoms: C_2  and  C_3
REMARK    3  A    between atoms: C_4  and  C_5
REMARK    4  A    between atoms: C_7  and  C_8
REMARK    5  A    between atoms: C_12  and  C_13
REMARK    6  A    between atoms: C_16  and  N_17
REMARK    7  A    between atoms: C_21  and  C_23
REMARK    8  A    between atoms: C_26  and  C_27
REMARK                            x       y       z     vdW  Elec       q    Type
REMARK                         _______ _______ _______ _____ _____    ______ ____
ROOT
ATOM      1  C   UNL     1       2.156   4.030  18.893  0.00  0.00    +0.000 A 
ATOM      2  C   UNL     1       2.665   2.968  18.154  0.00  0.00    +0.000 A 
ATOM      3  C   UNL     1       2.130   1.567  18.226  0.00  0.00    +0.000 C 
ATOM      4  N   UNL     1       3.658   3.115  17.256  0.00  0.00    +0.000 NA
ATOM      5  C   UNL     1       4.173   4.343  17.090  0.00  0.00    +0.000 A 
ATOM      6  N   UNL     1       3.796   5.415  17.804  0.00  0.00    +0.000 NA
ATOM      7  C   UNL     1       2.815   5.260  18.721  0.00  0.00    +0.000 A 
ENDROOT
BRANCH   7   8
ATOM      8  N   UNL     1       2.413   6.387  19.413  0.00  0.00    +0.000 N 
ATOM      9  C   UNL     1       2.910   7.692  18.974  0.00  0.00    +0.000 C 
ATOM     10  C   UNL     1       1.772   8.703  19.193  0.00  0.00    +0.000 C 
ATOM     11  N   UNL     1       1.172   8.669  20.549  0.00  0.00    +0.000 N 
ATOM     12  C   UNL     1       0.464   9.733  21.121  0.00  0.00    +0.000 C 
ATOM     13  O   UNL     1      -0.027   9.690  22.245  0.00  0.00    +0.000 OA
ATOM     14  C   UNL     1       0.964   7.332  21.128  0.00  0.00    +0.000 C 
ATOM     15  C   UNL     1       2.147   6.373  20.863  0.00  0.00    +0.000 C 
BRANCH  12  16
ATOM     16  C   UNL     1       0.313  10.982  20.336  0.00  0.00    +0.000 A 
ATOM     17  C   UNL     1       1.286  11.985  20.407  0.00  0.00    +0.000 A 
ATOM     18  C   UNL     1       1.050  13.228  19.827  0.00  0.00    +0.000 A 
ATOM     19  C   UNL     1      -0.119  13.449  19.094  0.00  0.00    +0.000 A 
ATOM     20  C   UNL     1      -0.381  14.792  18.482  0.00  0.00    +0.000 C 
ATOM     21  C   UNL     1      -1.031  12.397  18.918  0.00  0.00    +0.000 A 
ATOM     22  C   UNL     1      -0.821  11.165  19.544  0.00  0.00    +0.000 A 
ENDBRANCH  12  16
ENDBRANCH   7   8
BRANCH   5  23
ATOM     23  C   UNL     1       5.180   4.490  16.009  0.00  0.00    +0.000 A 
ATOM     24  C   UNL     1       6.367   5.222  16.234  0.00  0.00    +0.000 A 
ATOM     25  C   UNL     1       7.348   5.362  15.247  0.00  0.00    +0.000 A 
ATOM     26  C   UNL     1       7.169   4.769  14.005  0.00  0.00    +0.000 A 
ATOM     27  C   UNL     1       6.009   4.035  13.739  0.00  0.00    +0.000 A 
ATOM     28  C   UNL     1       5.809   3.396  12.396  0.00  0.00    +0.000 C 
ATOM     29  C   UNL     1       5.026   3.904  14.741  0.00  0.00    +0.000 A 
ENDBRANCH   5  23
BRANCH   1  31
ATOM     30  C   UNL     1       1.174   3.115  21.067  0.00  0.00    +0.000 C 
ATOM     31  C   UNL     1       0.931   3.863  19.762  0.00  0.00    +0.000 C 
ENDBRANCH   1  31
TORSDOF 4
ENDMDL
MODEL 2
REMARK VINA RESULT:      -7.9      3.409     10.421
REMARK  Name = 
REMARK  8 active torsions:
REMARK  status: ('A' for Active; 'I' for Inactive)
REMARK    1  A    between atoms: C_1  and  C_2
REMARK    2  A    between atoms: C_2  and  C_3
REMARK    3  A    between atoms: C_4  and  C_5
REMARK    4  A    between atoms: C_7  and  C_8
REMARK    5  A    between atoms: C_12  and  C_13
REMARK    6  A    between atoms: C_16  and  N_17
REMARK    7  A    between atoms: C_21  and  C_23
REMARK    8  A    between atoms: C_26  and  C_27
REMARK                            x       y       z     vdW  Elec       q    Type
REMARK                         _______ _______ _______ _____ _____    ______ ____
ROOT
ATOM      1  C   UNL     1      -1.941  11.222  19.174  0.00  0.00    +0.000 A 
ATOM      2  C   UNL     1      -2.866  12.196  19.536  0.00  0.00    +0.000 A 
ATOM      3  C   UNL     1      -4.259  12.273  18.982  0.00  0.00    +0.000 C 
ATOM      4  N   UNL     1      -2.609  13.131  20.470  0.00  0.00    +0.000 NA
ATOM      5  C   UNL     1      -1.401  13.116  21.054  0.00  0.00    +0.000 A 
ATOM      6  N   UNL     1      -0.421  12.262  20.723  0.00  0.00    +0.000 NA
ATOM      7  C   UNL     1      -0.673  11.337  19.769  0.00  0.00    +0.000 A 
ENDROOT
BRANCH   7   8
ATOM      8  N   UNL     1       0.336  10.440  19.476  0.00  0.00    +0.000 N 
ATOM      9  C   UNL     1       0.659   9.405  20.460  0.00  0.00    +0.000 C 
ATOM     10  C   UNL     1       1.037   8.139  19.673  0.00  0.00    +0.000 C 
ATOM     11  N   UNL     1       2.051   8.354  18.613  0.00  0.00    +0.000 N 
ATOM     12  C   UNL     1       2.858   7.341  18.081  0.00  0.00    +0.000 C 
ATOM     13  O   UNL     1       3.694   7.534  17.203  0.00  0.00    +0.000 OA
ATOM     14  C   UNL     1       1.901   9.584  17.818  0.00  0.00    +0.000 C 
ATOM     15  C   UNL     1       1.518  10.810  18.677  0.00  0.00    +0.000 C 
BRANCH  12  16
ATOM     16  C   UNL     1       2.707   5.966  18.616  0.00  0.00    +0.000 A 
ATOM     17  C   UNL     1       2.025   4.991  17.881  0.00  0.00    +0.000 A 
ATOM     18  C   UNL     1       1.718   3.765  18.463  0.00  0.00    +0.000 A 
ATOM     19  C   UNL     1       2.170   3.469  19.752  0.00  0.00    +0.000 A 
ATOM     20  C   UNL     1       1.827   2.155  20.387  0.00  0.00    +0.000 C 
ATOM     21  C   UNL     1       2.966   4.402  20.435  0.00  0.00    +0.000 A 
ATOM     22  C   UNL     1       3.229   5.654  19.872  0.00  0.00    +0.000 A 
ENDBRANCH  12  16
ENDBRANCH   7   8
BRANCH   5  23
ATOM     23  C   UNL     1      -1.197  14.085  22.160  0.00  0.00    +0.000 A 
ATOM     24  C   UNL     1      -0.200  15.081  22.062  0.00  0.00    +0.000 A 
ATOM     25  C   UNL     1       0.005  16.024  23.074  0.00  0.00    +0.000 A 
ATOM     26  C   UNL     1      -0.785  15.998  24.214  0.00  0.00    +0.000 A 
ATOM     27  C   UNL     1      -1.783  15.030  24.354  0.00  0.00    +0.000 A 
ATOM     28  C   UNL     1      -2.638  14.995  25.587  0.00  0.00    +0.000 C 
ATOM     29  C   UNL     1      -1.979  14.082  23.328  0.00  0.00    +0.000 A 
ENDBRANCH   5  23
BRANCH   1  31
ATOM     30  C   UNL     1      -2.012  10.331  16.780  0.00  0.00    +0.000 C 
ATOM     31  C   UNL     1      -2.322  10.087  18.251  0.00  0.00    +0.000 C 
ENDBRANCH   1  31
TORSDOF 4
ENDMDL
MODEL 3
REMARK VINA RESULT:      -7.9      2.912     10.027
REMARK  Name = 
REMARK  8 active torsions:
REMARK  status: ('A' for Active; 'I' for Inactive)
REMARK    1  A    between atoms: C_1  and  C_2
REMARK    2  A    between atoms: C_2  and  C_3
REMARK    3  A    between atoms: C_4  and  C_5
REMARK    4  A    between atoms: C_7  and  C_8
REMARK    5  A    between atoms: C_12  and  C_13
REMARK    6  A    between atoms: C_16  and  N_17
REMARK    7  A    between atoms: C_21  and  C_23
REMARK    8  A    between atoms: C_26  and  C_27
REMARK                            x       y       z     vdW  Elec       q    Type
REMARK                         _______ _______ _______ _____ _____    ______ ____
ROOT
ATOM      1  C   UNL     1       0.583  12.074  19.401  0.00  0.00    +0.000 A 
ATOM      2  C   UNL     1      -0.170  13.242  19.472  0.00  0.00    +0.000 A 
ATOM      3  C   UNL     1       0.426  14.616  19.568  0.00  0.00    +0.000 C 
ATOM      4  N   UNL     1      -1.514  13.245  19.401  0.00  0.00    +0.000 NA
ATOM      5  C   UNL     1      -2.136  12.063  19.270  0.00  0.00    +0.000 A 
ATOM      6  N   UNL     1      -1.502  10.881  19.263  0.00  0.00    +0.000 NA
ATOM      7  C   UNL     1      -0.154  10.878  19.357  0.00  0.00    +0.000 A 
ENDROOT
BRANCH   7   8
ATOM      8  N   UNL     1       0.481   9.652  19.302  0.00  0.00    +0.000 N 
ATOM      9  C   UNL     1       0.579   8.971  18.010  0.00  0.00    +0.000 C 
ATOM     10  C   UNL     1       1.937   8.250  17.984  0.00  0.00    +0.000 C 
ATOM     11  N   UNL     1       2.208   7.407  19.173  0.00  0.00    +0.000 N 
ATOM     12  C   UNL     1       3.123   6.347  19.192  0.00  0.00    +0.000 C 
ATOM     13  O   UNL     1       3.337   5.658  20.185  0.00  0.00    +0.000 OA
ATOM     14  C   UNL     1       1.808   7.976  20.470  0.00  0.00    +0.000 C 
ATOM     15  C   UNL     1       0.437   8.687  20.416  0.00  0.00    +0.000 C 
BRANCH  12  16
ATOM     16  C   UNL     1       3.860   6.029  17.945  0.00  0.00    +0.000 A 
ATOM     17  C   UNL     1       3.714   4.779  17.336  0.00  0.00    +0.000 A 
ATOM     18  C   UNL     1       4.548   4.415  16.282  0.00  0.00    +0.000 A 
ATOM     19  C   UNL     1       5.471   5.331  15.770  0.00  0.00    +0.000 A 
ATOM     20  C   UNL     1       6.380   4.934  14.646  0.00  0.00    +0.000 C 
ATOM     21  C   UNL     1       5.522   6.628  16.302  0.00  0.00    +0.000 A 
ATOM     22  C   UNL     1       4.723   6.978  17.395  0.00  0.00    +0.000 A 
ENDBRANCH  12  16
ENDBRANCH   7   8
BRANCH   5  23
ATOM     23  C   UNL     1      -3.608  12.116  19.075  0.00  0.00    +0.000 A 
ATOM     24  C   UNL     1      -4.190  11.609  17.891  0.00  0.00    +0.000 A 
ATOM     25  C   UNL     1      -5.573  11.623  17.683  0.00  0.00    +0.000 A 
ATOM     26  C   UNL     1      -6.414  12.142  18.656  0.00  0.00    +0.000 A 
ATOM     27  C   UNL     1      -5.881  12.654  19.843  0.00  0.00    +0.000 A 
ATOM     28  C   UNL     1      -6.786  13.222  20.898  0.00  0.00    +0.000 C 
ATOM     29  C   UNL     1      -4.485  12.639  20.040  0.00  0.00    +0.000 A 
ENDBRANCH   5  23
BRANCH   1  31
ATOM     30  C   UNL     1       2.641  12.234  17.894  0.00  0.00    +0.000 C 
ATOM     31  C   UNL     1       2.091  12.121  19.311  0.00  0.00    +0.000 C 
ENDBRANCH   1  31
TORSDOF 4
ENDMDL
MODEL 4
REMARK VINA RESULT:      -7.8      3.536     10.666
REMARK  Name = 
REMARK  8 active torsions:
REMARK  status: ('A' for Active; 'I' for Inactive)
REMARK    1  A    between atoms: C_1  and  C_2
REMARK    2  A    between atoms: C_2  and  C_3
REMARK    3  A    between atoms: C_4  and  C_5
REMARK    4  A    between atoms: C_7  and  C_8
REMARK    5  A    between atoms: C_12  and  C_13
REMARK    6  A    between atoms: C_16  and  N_17
REMARK    7  A    between atoms: C_21  and  C_23
REMARK    8  A    between atoms: C_26  and  C_27
REMARK                            x       y       z     vdW  Elec       q    Type
REMARK                         _______ _______ _______ _____ _____    ______ ____
ROOT
ATOM      1  C   UNL     1      -2.460  11.260  18.974  0.00  0.00    +0.000 A 
ATOM      2  C   UNL     1      -3.485  12.147  19.285  0.00  0.00    +0.000 A 
ATOM      3  C   UNL     1      -4.779  12.227  18.528  0.00  0.00    +0.000 C 
ATOM      4  N   UNL     1      -3.431  12.980  20.341  0.00  0.00    +0.000 NA
ATOM      5  C   UNL     1      -2.328  12.950  21.105  0.00  0.00    +0.000 A 
ATOM      6  N   UNL     1      -1.260  12.181  20.845  0.00  0.00    +0.000 NA
ATOM      7  C   UNL     1      -1.306  11.361  19.772  0.00  0.00    +0.000 A 
ENDROOT
BRANCH   7   8
ATOM      8  N   UNL     1      -0.213  10.546  19.550  0.00  0.00    +0.000 N 
ATOM      9  C   UNL     1       0.076   9.484  20.515  0.00  0.00    +0.000 C 
ATOM     10  C   UNL     1       0.621   8.288  19.717  0.00  0.00    +0.000 C 
ATOM     11  N   UNL     1       1.724   8.622  18.785  0.00  0.00    +0.000 N 
ATOM     12  C   UNL     1       2.650   7.692  18.298  0.00  0.00    +0.000 C 
ATOM     13  O   UNL     1       3.558   7.984  17.526  0.00  0.00    +0.000 OA
ATOM     14  C   UNL     1       1.574   9.880  18.035  0.00  0.00    +0.000 C 
ATOM     15  C   UNL     1       1.018  11.033  18.901  0.00  0.00    +0.000 C 
BRANCH  12  16
ATOM     16  C   UNL     1       2.539   6.284  18.750  0.00  0.00    +0.000 A 
ATOM     17  C   UNL     1       1.962   5.317  17.921  0.00  0.00    +0.000 A 
ATOM     18  C   UNL     1       1.685   4.047  18.417  0.00  0.00    +0.000 A 
ATOM     19  C   UNL     1       2.064   3.705  19.718  0.00  0.00    +0.000 A 
ATOM     20  C   UNL     1       1.751   2.342  20.259  0.00  0.00    +0.000 C 
ATOM     21  C   UNL     1       2.759   4.639  20.502  0.00  0.00    +0.000 A 
ATOM     22  C   UNL     1       2.991   5.932  20.023  0.00  0.00    +0.000 A 
ENDBRANCH  12  16
ENDBRANCH   7   8
BRANCH   5  23
ATOM     23  C   UNL     1      -2.354  13.795  22.325  0.00  0.00    +0.000 A 
ATOM     24  C   UNL     1      -1.196  13.931  23.125  0.00  0.00    +0.000 A 
ATOM     25  C   UNL     1      -1.179  14.736  24.268  0.00  0.00    +0.000 A 
ATOM     26  C   UNL     1      -2.319  15.431  24.643  0.00  0.00    +0.000 A 
ATOM     27  C   UNL     1      -3.486  15.326  23.881  0.00  0.00    +0.000 A 
ATOM     28  C   UNL     1      -4.725  16.073  24.285  0.00  0.00    +0.000 C 
ATOM     29  C   UNL     1      -3.494  14.509  22.732  0.00  0.00    +0.000 A 
ENDBRANCH   5  23
BRANCH   1  31
ATOM     30  C   UNL     1      -2.310  10.715  16.482  0.00  0.00    +0.000 C 
ATOM     31  C   UNL     1      -2.626  10.222  17.888  0.00  0.00    +0.000 C 
ENDBRANCH   1  31
TORSDOF 4
ENDMDL
MODEL 5
REMARK VINA RESULT:      -7.8      2.858     10.030
REMARK  Name = 
REMARK  8 active torsions:
REMARK  status: ('A' for Active; 'I' for Inactive)
REMARK    1  A    between atoms: C_1  and  C_2
REMARK    2  A    between atoms: C_2  and  C_3
REMARK    3  A    between atoms: C_4  and  C_5
REMARK    4  A    between atoms: C_7  and  C_8
REMARK    5  A    between atoms: C_12  and  C_13
REMARK    6  A    between atoms: C_16  and  N_17
REMARK    7  A    between atoms: C_21  and  C_23
REMARK    8  A    between atoms: C_26  and  C_27
REMARK                            x       y       z     vdW  Elec       q    Type
REMARK                         _______ _______ _______ _____ _____    ______ ____
ROOT
ATOM      1  C   UNL     1       0.774  12.276  19.562  0.00  0.00    +0.000 A 
ATOM      2  C   UNL     1       0.111  13.491  19.709  0.00  0.00    +0.000 A 
ATOM      3  C   UNL     1       0.793  14.827  19.654  0.00  0.00    +0.000 C 
ATOM      4  N   UNL     1      -1.224  13.577  19.859  0.00  0.00    +0.000 NA
ATOM      5  C   UNL     1      -1.926  12.433  19.877  0.00  0.00    +0.000 A 
ATOM      6  N   UNL     1      -1.371  11.214  19.812  0.00  0.00    +0.000 NA
ATOM      7  C   UNL     1      -0.028  11.128  19.685  0.00  0.00    +0.000 A 
ENDROOT
BRANCH   7   8
ATOM      8  N   UNL     1       0.517   9.863  19.575  0.00  0.00    +0.000 N 
ATOM      9  C   UNL     1       0.595   9.248  18.249  0.00  0.00    +0.000 C 
ATOM     10  C   UNL     1       1.898   8.431  18.209  0.00  0.00    +0.000 C 
ATOM     11  N   UNL     1       2.080   7.508  19.354  0.00  0.00    +0.000 N 
ATOM     12  C   UNL     1       2.915   6.384  19.332  0.00  0.00    +0.000 C 
ATOM     13  O   UNL     1       3.055   5.628  20.289  0.00  0.00    +0.000 OA
ATOM     14  C   UNL     1       1.692   8.034  20.673  0.00  0.00    +0.000 C 
ATOM     15  C   UNL     1       0.377   8.846  20.632  0.00  0.00    +0.000 C 
BRANCH  12  16
ATOM     16  C   UNL     1       3.655   6.080  18.084  0.00  0.00    +0.000 A 
ATOM     17  C   UNL     1       3.549   4.821  17.487  0.00  0.00    +0.000 A 
ATOM     18  C   UNL     1       4.389   4.475  16.432  0.00  0.00    +0.000 A 
ATOM     19  C   UNL     1       5.278   5.417  15.906  0.00  0.00    +0.000 A 
ATOM     20  C   UNL     1       6.194   5.042  14.781  0.00  0.00    +0.000 C 
ATOM     21  C   UNL     1       5.287   6.721  16.427  0.00  0.00    +0.000 A 
ATOM     22  C   UNL     1       4.483   7.053  17.521  0.00  0.00    +0.000 A 
ENDBRANCH  12  16
ENDBRANCH   7   8
BRANCH   5  23
ATOM     23  C   UNL     1      -3.404  12.574  19.923  0.00  0.00    +0.000 A 
ATOM     24  C   UNL     1      -4.019  13.314  20.959  0.00  0.00    +0.000 A 
ATOM     25  C   UNL     1      -5.405  13.485  21.021  0.00  0.00    +0.000 A 
ATOM     26  C   UNL     1      -6.217  12.923  20.047  0.00  0.00    +0.000 A 
ATOM     27  C   UNL     1      -5.651  12.182  19.005  0.00  0.00    +0.000 A 
ATOM     28  C   UNL     1      -6.526  11.567  17.951  0.00  0.00    +0.000 C 
ATOM     29  C   UNL     1      -4.252  12.013  18.954  0.00  0.00    +0.000 A 
ENDBRANCH   5  23
BRANCH   1  31
ATOM     30  C   UNL     1       2.562  12.324  17.737  0.00  0.00    +0.000 C 
ATOM     31  C   UNL     1       2.246  12.225  19.225  0.00  0.00    +0.000 C 
ENDBRANCH   1  31
TORSDOF 4
ENDMDL
MODEL 6
REMARK VINA RESULT:      -7.7      1.462      1.936
REMARK  Name = 
REMARK  8 active torsions:
REMARK  status: ('A' for Active; 'I' for Inactive)
REMARK    1  A    between atoms: C_1  and  C_2
REMARK    2  A    between atoms: C_2  and  C_3
REMARK    3  A    between atoms: C_4  and  C_5
REMARK    4  A    between atoms: C_7  and  C_8
REMARK    5  A    between atoms: C_12  and  C_13
REMARK    6  A    between atoms: C_16  and  N_17
REMARK    7  A    between atoms: C_21  and  C_23
REMARK    8  A    between atoms: C_26  and  C_27
REMARK                            x       y       z     vdW  Elec       q    Type
REMARK                         _______ _______ _______ _____ _____    ______ ____
ROOT
ATOM      1  C   UNL     1       2.787   4.285  18.652  0.00  0.00    +0.000 A 
ATOM      2  C   UNL     1       3.468   3.176  18.159  0.00  0.00    +0.000 A 
ATOM      3  C   UNL     1       3.241   1.774  18.644  0.00  0.00    +0.000 C 
ATOM      4  N   UNL     1       4.358   3.257  17.153  0.00  0.00    +0.000 NA
ATOM      5  C   UNL     1       4.595   4.468  16.625  0.00  0.00    +0.000 A 
ATOM      6  N   UNL     1       4.042   5.603  17.077  0.00  0.00    +0.000 NA
ATOM      7  C   UNL     1       3.165   5.523  18.102  0.00  0.00    +0.000 A 
ENDROOT
BRANCH   7   8
ATOM      8  N   UNL     1       2.573   6.699  18.522  0.00  0.00    +0.000 N 
ATOM      9  C   UNL     1       2.147   7.667  17.510  0.00  0.00    +0.000 C 
ATOM     10  C   UNL     1       0.853   8.318  18.028  0.00  0.00    +0.000 C 
ATOM     11  N   UNL     1       0.938   8.836  19.414  0.00  0.00    +0.000 N 
ATOM     12  C   UNL     1       0.092   9.822  19.937  0.00  0.00    +0.000 C 
ATOM     13  O   UNL     1       0.174  10.241  21.088  0.00  0.00    +0.000 OA
ATOM     14  C   UNL     1       1.659   7.987  20.376  0.00  0.00    +0.000 C 
ATOM     15  C   UNL     1       2.944   7.366  19.783  0.00  0.00    +0.000 C 
BRANCH  12  16
ATOM     16  C   UNL     1      -0.947  10.402  19.052  0.00  0.00    +0.000 A 
ATOM     17  C   UNL     1      -1.764  11.441  19.506  0.00  0.00    +0.000 A 
ATOM     18  C   UNL     1      -2.859  11.851  18.750  0.00  0.00    +0.000 A 
ATOM     19  C   UNL     1      -3.090  11.287  17.492  0.00  0.00    +0.000 A 
ATOM     20  C   UNL     1      -4.278  11.716  16.682  0.00  0.00    +0.000 C 
ATOM     21  C   UNL     1      -2.191  10.337  16.986  0.00  0.00    +0.000 A 
ATOM     22  C   UNL     1      -1.122   9.886  17.767  0.00  0.00    +0.000 A 
ENDBRANCH  12  16
ENDBRANCH   7   8
BRANCH   5  23
ATOM     23  C   UNL     1       5.492   4.500  15.441  0.00  0.00    +0.000 A 
ATOM     24  C   UNL     1       6.680   5.265  15.466  0.00  0.00    +0.000 A 
ATOM     25  C   UNL     1       7.558   5.301  14.378  0.00  0.00    +0.000 A 
ATOM     26  C   UNL     1       7.273   4.571  13.234  0.00  0.00    +0.000 A 
ATOM     27  C   UNL     1       6.109   3.801  13.166  0.00  0.00    +0.000 A 
ATOM     28  C   UNL     1       5.793   3.012  11.928  0.00  0.00    +0.000 C 
ATOM     29  C   UNL     1       5.228   3.774  14.267  0.00  0.00    +0.000 A 
ENDBRANCH   5  23
BRANCH   1  31
ATOM     30  C   UNL     1       2.130   4.074  21.112  0.00  0.00    +0.000 C 
ATOM     31  C   UNL     1       1.672   4.133  19.661  0.00  0.00    +0.000 C 
ENDBRANCH   1  31
TORSDOF 4
ENDMDL
MODEL 7
REMARK VINA RESULT:      -7.7      2.942      9.108
REMARK  Name = 
REMARK  8 active torsions:
REMARK  status: ('A' for Active; 'I' for Inactive)
REMARK    1  A    between atoms: C_1  and  C_2
REMARK    2  A    between atoms: C_2  and  C_3
REMARK    3  A    between atoms: C_4  and  C_5
REMARK    4  A    between atoms: C_7  and  C_8
REMARK    5  A    between atoms: C_12  and  C_13
REMARK    6  A    between atoms: C_16  and  N_17
REMARK    7  A    between atoms: C_21  and  C_23
REMARK    8  A    between atoms: C_26  and  C_27
REMARK                            x       y       z     vdW  Elec       q    Type
REMARK                         _______ _______ _______ _____ _____    ______ ____
ROOT
ATOM      1  C   UNL     1      -0.212  12.197  19.352  0.00  0.00    +0.000 A 
ATOM      2  C   UNL     1      -0.291  13.584  19.296  0.00  0.00    +0.000 A 
ATOM      3  C   UNL     1      -1.561  14.358  19.500  0.00  0.00    +0.000 C 
ATOM      4  N   UNL     1       0.788  14.367  19.108  0.00  0.00    +0.000 NA
ATOM      5  C   UNL     1       1.978  13.766  18.958  0.00  0.00    +0.000 A 
ATOM      6  N   UNL     1       2.145  12.435  18.928  0.00  0.00    +0.000 NA
ATOM      7  C   UNL     1       1.058  11.650  19.094  0.00  0.00    +0.000 A 
ENDROOT
BRANCH   7   8
ATOM      8  N   UNL     1       1.260  10.283  19.105  0.00  0.00    +0.000 N 
ATOM      9  C   UNL     1       1.315   9.574  17.825  0.00  0.00    +0.000 C 
ATOM     10  C   UNL     1       2.354   8.450  17.978  0.00  0.00    +0.000 C 
ATOM     11  N   UNL     1       2.164   7.597  19.175  0.00  0.00    +0.000 N 
ATOM     12  C   UNL     1       2.673   6.299  19.303  0.00  0.00    +0.000 C 
ATOM     13  O   UNL     1       2.507   5.603  20.301  0.00  0.00    +0.000 OA
ATOM     14  C   UNL     1       1.790   8.299  20.414  0.00  0.00    +0.000 C 
ATOM     15  C   UNL     1       0.747   9.415  20.179  0.00  0.00    +0.000 C 
BRANCH  12  16
ATOM     16  C   UNL     1       3.437   5.726  18.168  0.00  0.00    +0.000 A 
ATOM     17  C   UNL     1       3.101   4.472  17.649  0.00  0.00    +0.000 A 
ATOM     18  C   UNL     1       3.933   3.855  16.720  0.00  0.00    +0.000 A 
ATOM     19  C   UNL     1       5.059   4.525  16.234  0.00  0.00    +0.000 A 
ATOM     20  C   UNL     1       5.965   3.855  15.245  0.00  0.00    +0.000 C 
ATOM     21  C   UNL     1       5.319   5.836  16.662  0.00  0.00    +0.000 A 
ATOM     22  C   UNL     1       4.514   6.436  17.635  0.00  0.00    +0.000 A 
ENDBRANCH  12  16
ENDBRANCH   7   8
BRANCH   5  23
ATOM     23  C   UNL     1       3.158  14.663  18.872  0.00  0.00    +0.000 A 
ATOM     24  C   UNL     1       3.097  15.975  19.395  0.00  0.00    +0.000 A 
ATOM     25  C   UNL     1       4.195  16.839  19.352  0.00  0.00    +0.000 A 
ATOM     26  C   UNL     1       5.388  16.415  18.786  0.00  0.00    +0.000 A 
ATOM     27  C   UNL     1       5.494  15.126  18.256  0.00  0.00    +0.000 A 
ATOM     28  C   UNL     1       6.781  14.663  17.638  0.00  0.00    +0.000 C 
ATOM     29  C   UNL     1       4.378  14.263  18.302  0.00  0.00    +0.000 A 
ENDBRANCH   5  23
BRANCH   1  31
ATOM     30  C   UNL     1      -2.240  10.859  18.559  0.00  0.00    +0.000 C 
ATOM     31  C   UNL     1      -1.410  11.360  19.736  0.00  0.00    +0.000 C 
ENDBRANCH   1  31
TORSDOF 4
ENDMDL
MODEL 8
REMARK VINA RESULT:      -7.7      3.428     10.325
REMARK  Name = 
REMARK  8 active torsions:
REMARK  status: ('A' for Active; 'I' for Inactive)
REMARK    1  A    between atoms: C_1  and  C_2
REMARK    2  A    between atoms: C_2  and  C_3
REMARK    3  A    between atoms: C_4  and  C_5
REMARK    4  A    between atoms: C_7  and  C_8
REMARK    5  A    between atoms: C_12  and  C_13
REMARK    6  A    between atoms: C_16  and  N_17
REMARK    7  A    between atoms: C_21  and  C_23
REMARK    8  A    between atoms: C_26  and  C_27
REMARK                            x       y       z     vdW  Elec       q    Type
REMARK                         _______ _______ _______ _____ _____    ______ ____
ROOT
ATOM      1  C   UNL     1      -0.041  12.837  20.465  0.00  0.00    +0.000 A 
ATOM      2  C   UNL     1      -1.079  13.717  20.752  0.00  0.00    +0.000 A 
ATOM      3  C   UNL     1      -0.888  15.039  21.438  0.00  0.00    +0.000 C 
ATOM      4  N   UNL     1      -2.353  13.485  20.383  0.00  0.00    +0.000 NA
ATOM      5  C   UNL     1      -2.615  12.345  19.725  0.00  0.00    +0.000 A 
ATOM      6  N   UNL     1      -1.695  11.404  19.463  0.00  0.00    +0.000 NA
ATOM      7  C   UNL     1      -0.421  11.629  19.854  0.00  0.00    +0.000 A 
ENDROOT
BRANCH   7   8
ATOM      8  N   UNL     1       0.517  10.666  19.535  0.00  0.00    +0.000 N 
ATOM      9  C   UNL     1       0.855   9.657  20.541  0.00  0.00    +0.000 C 
ATOM     10  C   UNL     1       1.111   8.340  19.788  0.00  0.00    +0.000 C 
ATOM     11  N   UNL     1       2.057   8.454  18.653  0.00  0.00    +0.000 N 
ATOM     12  C   UNL     1       2.771   7.377  18.115  0.00  0.00    +0.000 C 
ATOM     13  O   UNL     1       3.552   7.487  17.174  0.00  0.00    +0.000 OA
ATOM     14  C   UNL     1       1.916   9.656  17.815  0.00  0.00    +0.000 C 
ATOM     15  C   UNL     1       1.657  10.937  18.640  0.00  0.00    +0.000 C 
BRANCH  12  16
ATOM     16  C   UNL     1       2.587   6.036  18.721  0.00  0.00    +0.000 A 
ATOM     17  C   UNL     1       1.823   5.064  18.070  0.00  0.00    +0.000 A 
ATOM     18  C   UNL     1       1.493   3.881  18.725  0.00  0.00    +0.000 A 
ATOM     19  C   UNL     1       2.001   3.622  20.001  0.00  0.00    +0.000 A 
ATOM     20  C   UNL     1       1.633   2.355  20.714  0.00  0.00    +0.000 C 
ATOM     21  C   UNL     1       2.873   4.546  20.596  0.00  0.00    +0.000 A 
ATOM     22  C   UNL     1       3.162   5.757  19.962  0.00  0.00    +0.000 A 
ENDBRANCH  12  16
ENDBRANCH   7   8
BRANCH   5  23
ATOM     23  C   UNL     1      -4.006  12.180  19.231  0.00  0.00    +0.000 A 
ATOM     24  C   UNL     1      -4.247  11.712  17.920  0.00  0.00    +0.000 A 
ATOM     25  C   UNL     1      -5.543  11.524  17.430  0.00  0.00    +0.000 A 
ATOM     26  C   UNL     1      -6.636  11.796  18.239  0.00  0.00    +0.000 A 
ATOM     27  C   UNL     1      -6.444  12.261  19.544  0.00  0.00    +0.000 A 
ATOM     28  C   UNL     1      -7.623  12.562  20.423  0.00  0.00    +0.000 C 
ATOM     29  C   UNL     1      -5.132  12.451  20.026  0.00  0.00    +0.000 A 
ENDBRANCH   5  23
BRANCH   1  31
ATOM     30  C   UNL     1       1.997  14.205  19.755  0.00  0.00    +0.000 C 
ATOM     31  C   UNL     1       1.398  13.208  20.739  0.00  0.00    +0.000 C 
ENDBRANCH   1  31
TORSDOF 4
ENDMDL
MODEL 9
REMARK VINA RESULT:      -7.7      2.790      9.187
REMARK  Name = 
REMARK  8 active torsions:
REMARK  status: ('A' for Active; 'I' for Inactive)
REMARK    1  A    between atoms: C_1  and  C_2
REMARK    2  A    between atoms: C_2  and  C_3
REMARK    3  A    between atoms: C_4  and  C_5
REMARK    4  A    between atoms: C_7  and  C_8
REMARK    5  A    between atoms: C_12  and  C_13
REMARK    6  A    between atoms: C_16  and  N_17
REMARK    7  A    between atoms: C_21  and  C_23
REMARK    8  A    between atoms: C_26  and  C_27
REMARK                            x       y       z     vdW  Elec       q    Type
REMARK                         _______ _______ _______ _____ _____    ______ ____
ROOT
ATOM      1  C   UNL     1       3.319   4.093  19.787  0.00  0.00    +0.000 A 
ATOM      2  C   UNL     1       2.326   4.346  20.728  0.00  0.00    +0.000 A 
ATOM      3  C   UNL     1       1.852   3.339  21.735  0.00  0.00    +0.000 C 
ATOM      4  N   UNL     1       1.737   5.550  20.857  0.00  0.00    +0.000 NA
ATOM      5  C   UNL     1       2.127   6.529  20.026  0.00  0.00    +0.000 A 
ATOM      6  N   UNL     1       3.024   6.363  19.044  0.00  0.00    +0.000 NA
ATOM      7  C   UNL     1       3.599   5.148  18.900  0.00  0.00    +0.000 A 
ENDROOT
BRANCH   7   8
ATOM      8  N   UNL     1       4.553   5.012  17.910  0.00  0.00    +0.000 N 
ATOM      9  C   UNL     1       4.680   3.721  17.233  0.00  0.00    +0.000 C 
ATOM     10  C   UNL     1       5.031   4.016  15.765  0.00  0.00    +0.000 C 
ATOM     11  N   UNL     1       6.167   4.950  15.580  0.00  0.00    +0.000 N 
ATOM     12  C   UNL     1       6.936   5.029  14.413  0.00  0.00    +0.000 C 
ATOM     13  O   UNL     1       7.875   5.808  14.275  0.00  0.00    +0.000 OA
ATOM     14  C   UNL     1       6.208   6.102  16.495  0.00  0.00    +0.000 C 
ATOM     15  C   UNL     1       5.841   5.728  17.949  0.00  0.00    +0.000 C 
BRANCH  12  16
ATOM     16  C   UNL     1       6.613   4.115  13.291  0.00  0.00    +0.000 A 
ATOM     17  C   UNL     1       5.283   3.791  13.003  0.00  0.00    +0.000 A 
ATOM     18  C   UNL     1       4.993   2.789  12.082  0.00  0.00    +0.000 A 
ATOM     19  C   UNL     1       6.025   2.167  11.374  0.00  0.00    +0.000 A 
ATOM     20  C   UNL     1       5.715   1.077  10.393  0.00  0.00    +0.000 C 
ATOM     21  C   UNL     1       7.349   2.588  11.575  0.00  0.00    +0.000 A 
ATOM     22  C   UNL     1       7.646   3.556  12.538  0.00  0.00    +0.000 A 
ENDBRANCH  12  16
ENDBRANCH   7   8
BRANCH   5  23
ATOM     23  C   UNL     1       1.542   7.871  20.277  0.00  0.00    +0.000 A 
ATOM     24  C   UNL     1       1.533   8.847  19.256  0.00  0.00    +0.000 A 
ATOM     25  C   UNL     1       0.971  10.113  19.449  0.00  0.00    +0.000 A 
ATOM     26  C   UNL     1       0.399  10.437  20.671  0.00  0.00    +0.000 A 
ATOM     27  C   UNL     1       0.385   9.501  21.709  0.00  0.00    +0.000 A 
ATOM     28  C   UNL     1      -0.228   9.849  23.035  0.00  0.00    +0.000 C 
ATOM     29  C   UNL     1       0.958   8.229  21.504  0.00  0.00    +0.000 A 
ENDBRANCH   5  23
BRANCH   1  31
ATOM     30  C   UNL     1       3.370   1.640  19.071  0.00  0.00    +0.000 C 
ATOM     31  C   UNL     1       4.078   2.786  19.784  0.00  0.00    +0.000 C 
ENDBRANCH   1  31
TORSDOF 4
ENDMDL
