MODEL 1
REMARK VINA RESULT:      -8.1      0.000      0.000
REMARK  Name = 
REMARK  5 active torsions:
REMARK  status: ('A' for Active; 'I' for Inactive)
REMARK    1  A    between atoms: C_1  and  C_2
REMARK    2  A    between atoms: N_4  and  C_5
REMARK    3  A    between atoms: C_10  and  C_11
REMARK    4  A    between atoms: N_22  and  C_23
REMARK    5  A    between atoms: C_23  and  C_24
REMARK                            x       y       z     vdW  Elec       q    Type
REMARK                         _______ _______ _______ _____ _____    ______ ____
ROOT
ATOM      1  C   UNL     1       2.254   8.002  18.661  0.00  0.00    +0.000 A 
ATOM      2  C   UNL     1       1.763   8.608  17.493  0.00  0.00    +0.000 A 
ATOM      3  C   UNL     1       0.714   9.490  17.498  0.00  0.00    +0.000 A 
ATOM      4  C   UNL     1       0.846  10.328  18.565  0.00  0.00    +0.000 A 
ATOM      5  C   UNL     1       1.521  11.603  18.442  0.00  0.00    +0.000 A 
ATOM      6  N   UNL     1       2.387  12.050  17.486  0.00  0.00    +0.000 N 
ATOM      7  N   UNL     1       2.776  13.325  17.711  0.00  0.00    +0.000 NA
ATOM      8  C   UNL     1       2.344  13.563  18.959  0.00  0.00    +0.000 A 
ATOM      9  C   UNL     1       1.706  12.440  19.509  0.00  0.00    +0.000 A 
ATOM     10  C   UNL     1       1.220  12.067  20.814  0.00  0.00    +0.000 A 
ATOM     11  O   UNL     1       1.100  12.887  21.714  0.00  0.00    +0.000 OA
ATOM     12  N   UNL     1       0.883  10.681  20.972  0.00  0.00    +0.000 N 
ATOM     13  C   UNL     1       0.959   9.764  19.839  0.00  0.00    +0.000 A 
ATOM     14  C   UNL     1       1.654   8.512  19.876  0.00  0.00    +0.000 A 
ATOM     15  H   UNL     1       2.792  11.541  16.703  0.00  0.00    +0.000 HD
ENDROOT
BRANCH   1  21
ATOM     16  C   UNL     1       3.654   5.834  19.249  0.00  0.00    +0.000 A 
ATOM     17  N   UNL     1       4.725   4.998  19.125  0.00  0.00    +0.000 NA
ATOM     18  C   UNL     1       5.622   5.289  18.180  0.00  0.00    +0.000 A 
ATOM     19  C   UNL     1       5.562   6.444  17.428  0.00  0.00    +0.000 A 
ATOM     20  C   UNL     1       4.497   7.339  17.626  0.00  0.00    +0.000 A 
ATOM     21  C   UNL     1       3.457   7.063  18.531  0.00  0.00    +0.000 A 
BRANCH  16  25
ATOM     22  C   UNL     1       1.031   3.749  20.889  0.00  0.00    +0.000 C 
ATOM     23  C   UNL     1       1.831   4.359  19.775  0.00  0.00    +0.000 C 
ATOM     24  O   UNL     1       1.554   4.127  18.601  0.00  0.00    +0.000 OA
ATOM     25  N   UNL     1       2.776   5.280  20.207  0.00  0.00    +0.000 N 
ATOM     26  H   UNL     1       3.309   4.864  20.965  0.00  0.00    +0.000 HD
ENDBRANCH  16  25
ENDBRANCH   1  21
BRANCH  12  27
ATOM     27  C   UNL     1      -0.156  10.480  21.997  0.00  0.00    +0.000 C 
BRANCH  27  28
ATOM     28  C   UNL     1       0.069   9.275  22.952  0.00  0.00    +0.000 C 
ATOM     29  F   UNL     1      -0.255   9.554  24.236  0.00  0.00    +0.000 F 
ATOM     30  F   UNL     1      -0.702   8.223  22.579  0.00  0.00    +0.000 F 
ATOM     31  F   UNL     1       1.350   8.841  22.936  0.00  0.00    +0.000 F 
ENDBRANCH  27  28
ENDBRANCH  12  27
TORSDOF 4
ENDMDL
MODEL 2
REMARK VINA RESULT:      -8.1      4.060      5.634
REMARK  Name = 
REMARK  5 active torsions:
REMARK  status: ('A' for Active; 'I' for Inactive)
REMARK    1  A    between atoms: C_1  and  C_2
REMARK    2  A    between atoms: N_4  and  C_5
REMARK    3  A    between atoms: C_10  and  C_11
REMARK    4  A    between atoms: N_22  and  C_23
REMARK    5  A    between atoms: C_23  and  C_24
REMARK                            x       y       z     vdW  Elec       q    Type
REMARK                         _______ _______ _______ _____ _____    ______ ____
ROOT
ATOM      1  C   UNL     1       0.378  10.330  18.488  0.00  0.00    +0.000 A 
ATOM      2  C   UNL     1       0.766  11.582  18.992  0.00  0.00    +0.000 A 
ATOM      3  C   UNL     1       0.094  12.741  18.699  0.00  0.00    +0.000 A 
ATOM      4  C   UNL     1      -1.247  12.498  18.741  0.00  0.00    +0.000 A 
ATOM      5  C   UNL     1      -2.014  12.716  19.949  0.00  0.00    +0.000 A 
ATOM      6  N   UNL     1      -1.599  12.837  21.243  0.00  0.00    +0.000 N 
ATOM      7  N   UNL     1      -2.630  13.072  22.086  0.00  0.00    +0.000 NA
ATOM      8  C   UNL     1      -3.710  12.831  21.326  0.00  0.00    +0.000 A 
ATOM      9  C   UNL     1      -3.352  12.435  20.027  0.00  0.00    +0.000 A 
ATOM     10  C   UNL     1      -4.048  11.905  18.883  0.00  0.00    +0.000 A 
ATOM     11  O   UNL     1      -5.270  11.915  18.811  0.00  0.00    +0.000 OA
ATOM     12  N   UNL     1      -3.211  11.377  17.842  0.00  0.00    +0.000 N 
ATOM     13  C   UNL     1      -1.758  11.472  17.940  0.00  0.00    +0.000 A 
ATOM     14  C   UNL     1      -0.875  10.357  17.766  0.00  0.00    +0.000 A 
ATOM     15  H   UNL     1      -0.664  12.718  21.628  0.00  0.00    +0.000 HD
ENDROOT
BRANCH   1  21
ATOM     16  C   UNL     1       1.040   8.385  20.157  0.00  0.00    +0.000 A 
ATOM     17  N   UNL     1       1.759   7.288  20.534  0.00  0.00    +0.000 NA
ATOM     18  C   UNL     1       2.601   6.769  19.637  0.00  0.00    +0.000 A 
ATOM     19  C   UNL     1       2.848   7.365  18.417  0.00  0.00    +0.000 A 
ATOM     20  C   UNL     1       2.162   8.543  18.076  0.00  0.00    +0.000 A 
ATOM     21  C   UNL     1       1.187   9.102  18.920  0.00  0.00    +0.000 A 
BRANCH  16  25
ATOM     22  C   UNL     1      -0.542   9.909  23.171  0.00  0.00    +0.000 C 
ATOM     23  C   UNL     1       0.539   9.568  22.187  0.00  0.00    +0.000 C 
ATOM     24  O   UNL     1       1.691   9.956  22.359  0.00  0.00    +0.000 OA
ATOM     25  N   UNL     1       0.131   8.689  21.193  0.00  0.00    +0.000 N 
ATOM     26  H   UNL     1      -0.742   9.028  20.800  0.00  0.00    +0.000 HD
ENDBRANCH  16  25
ENDBRANCH   1  21
BRANCH  12  27
ATOM     27  C   UNL     1      -3.855  11.462  16.520  0.00  0.00    +0.000 C 
BRANCH  27  28
ATOM     28  C   UNL     1      -3.489  10.328  15.523  0.00  0.00    +0.000 C 
ATOM     29  F   UNL     1      -2.338  10.569  14.854  0.00  0.00    +0.000 F 
ATOM     30  F   UNL     1      -3.315   9.155  16.182  0.00  0.00    +0.000 F 
ATOM     31  F   UNL     1      -4.461  10.117  14.607  0.00  0.00    +0.000 F 
ENDBRANCH  27  28
ENDBRANCH  12  27
TORSDOF 4
ENDMDL
MODEL 3
REMARK VINA RESULT:      -7.9      3.639      5.146
REMARK  Name = 
REMARK  5 active torsions:
REMARK  status: ('A' for Active; 'I' for Inactive)
REMARK    1  A    between atoms: C_1  and  C_2
REMARK    2  A    between atoms: N_4  and  C_5
REMARK    3  A    between atoms: C_10  and  C_11
REMARK    4  A    between atoms: N_22  and  C_23
REMARK    5  A    between atoms: C_23  and  C_24
REMARK                            x       y       z     vdW  Elec       q    Type
REMARK                         _______ _______ _______ _____ _____    ______ ____
ROOT
ATOM      1  C   UNL     1       0.767  10.151  18.644  0.00  0.00    +0.000 A 
ATOM      2  C   UNL     1       1.336  11.361  19.070  0.00  0.00    +0.000 A 
ATOM      3  C   UNL     1       0.743  12.578  18.853  0.00  0.00    +0.000 A 
ATOM      4  C   UNL     1      -0.597  12.464  19.080  0.00  0.00    +0.000 A 
ATOM      5  C   UNL     1      -1.168  12.758  20.377  0.00  0.00    +0.000 A 
ATOM      6  N   UNL     1      -0.570  12.842  21.602  0.00  0.00    +0.000 N 
ATOM      7  N   UNL     1      -1.450  13.176  22.573  0.00  0.00    +0.000 NA
ATOM      8  C   UNL     1      -2.641  13.038  21.970  0.00  0.00    +0.000 A 
ATOM      9  C   UNL     1      -2.503  12.606  20.642  0.00  0.00    +0.000 A 
ATOM     10  C   UNL     1      -3.396  12.141  19.611  0.00  0.00    +0.000 A 
ATOM     11  O   UNL     1      -4.609  12.268  19.705  0.00  0.00    +0.000 OA
ATOM     12  N   UNL     1      -2.762  11.533  18.475  0.00  0.00    +0.000 N 
ATOM     13  C   UNL     1      -1.307  11.489  18.372  0.00  0.00    +0.000 A 
ATOM     14  C   UNL     1      -0.565  10.295  18.098  0.00  0.00    +0.000 A 
ATOM     15  H   UNL     1       0.393  12.636  21.858  0.00  0.00    +0.000 HD
ENDROOT
BRANCH   1  21
ATOM     16  C   UNL     1       1.329   8.059  20.166  0.00  0.00    +0.000 A 
ATOM     17  N   UNL     1       1.988   6.900  20.459  0.00  0.00    +0.000 NA
ATOM     18  C   UNL     1       2.793   6.400  19.519  0.00  0.00    +0.000 A 
ATOM     19  C   UNL     1       3.065   7.065  18.341  0.00  0.00    +0.000 A 
ATOM     20  C   UNL     1       2.445   8.300  18.090  0.00  0.00    +0.000 A 
ATOM     21  C   UNL     1       1.508   8.852  18.981  0.00  0.00    +0.000 A 
BRANCH  16  25
ATOM     22  C   UNL     1      -0.200   9.550  23.224  0.00  0.00    +0.000 C 
ATOM     23  C   UNL     1       0.858   9.237  22.206  0.00  0.00    +0.000 C 
ATOM     24  O   UNL     1       2.002   9.662  22.339  0.00  0.00    +0.000 OA
ATOM     25  N   UNL     1       0.445   8.340  21.231  0.00  0.00    +0.000 N 
ATOM     26  H   UNL     1      -0.450   8.651  20.864  0.00  0.00    +0.000 HD
ENDBRANCH  16  25
ENDBRANCH   1  21
BRANCH  12  27
ATOM     27  C   UNL     1      -3.570  11.675  17.251  0.00  0.00    +0.000 C 
BRANCH  27  28
ATOM     28  C   UNL     1      -3.436  10.518  16.222  0.00  0.00    +0.000 C 
ATOM     29  F   UNL     1      -4.494  10.439  15.381  0.00  0.00    +0.000 F 
ATOM     30  F   UNL     1      -2.338  10.698  15.447  0.00  0.00    +0.000 F 
ATOM     31  F   UNL     1      -3.295   9.314  16.821  0.00  0.00    +0.000 F 
ENDBRANCH  27  28
ENDBRANCH  12  27
TORSDOF 4
ENDMDL
MODEL 4
REMARK VINA RESULT:      -7.8      3.452      4.925
REMARK  Name = 
REMARK  5 active torsions:
REMARK  status: ('A' for Active; 'I' for Inactive)
REMARK    1  A    between atoms: C_1  and  C_2
REMARK    2  A    between atoms: N_4  and  C_5
REMARK    3  A    between atoms: C_10  and  C_11
REMARK    4  A    between atoms: N_22  and  C_23
REMARK    5  A    between atoms: C_23  and  C_24
REMARK                            x       y       z     vdW  Elec       q    Type
REMARK                         _______ _______ _______ _____ _____    ______ ____
ROOT
ATOM      1  C   UNL     1       0.784  10.233  18.717  0.00  0.00    +0.000 A 
ATOM      2  C   UNL     1       1.459  11.429  19.009  0.00  0.00    +0.000 A 
ATOM      3  C   UNL     1       0.892  12.665  18.830  0.00  0.00    +0.000 A 
ATOM      4  C   UNL     1      -0.404  12.621  19.252  0.00  0.00    +0.000 A 
ATOM      5  C   UNL     1      -0.768  12.986  20.605  0.00  0.00    +0.000 A 
ATOM      6  N   UNL     1       0.005  13.082  21.727  0.00  0.00    +0.000 N 
ATOM      7  N   UNL     1      -0.709  13.490  22.800  0.00  0.00    +0.000 NA
ATOM      8  C   UNL     1      -1.981  13.388  22.381  0.00  0.00    +0.000 A 
ATOM      9  C   UNL     1      -2.055  12.906  21.065  0.00  0.00    +0.000 A 
ATOM     10  C   UNL     1      -3.107  12.450  20.192  0.00  0.00    +0.000 A 
ATOM     11  O   UNL     1      -4.288  12.637  20.455  0.00  0.00    +0.000 OA
ATOM     12  N   UNL     1      -2.671  11.775  19.002  0.00  0.00    +0.000 N 
ATOM     13  C   UNL     1      -1.249  11.658  18.694  0.00  0.00    +0.000 A 
ATOM     14  C   UNL     1      -0.606  10.422  18.363  0.00  0.00    +0.000 A 
ATOM     15  H   UNL     1       0.986  12.839  21.850  0.00  0.00    +0.000 HD
ENDROOT
BRANCH   1  21
ATOM     16  C   UNL     1       1.339   8.081  20.155  0.00  0.00    +0.000 A 
ATOM     17  N   UNL     1       1.984   6.903  20.396  0.00  0.00    +0.000 NA
ATOM     18  C   UNL     1       2.768   6.425  19.426  0.00  0.00    +0.000 A 
ATOM     19  C   UNL     1       3.031   7.127  18.269  0.00  0.00    +0.000 A 
ATOM     20  C   UNL     1       2.425   8.380  18.072  0.00  0.00    +0.000 A 
ATOM     21  C   UNL     1       1.511   8.913  18.996  0.00  0.00    +0.000 A 
BRANCH  16  25
ATOM     22  C   UNL     1      -0.168   9.548  23.236  0.00  0.00    +0.000 C 
ATOM     23  C   UNL     1       0.872   9.270  22.190  0.00  0.00    +0.000 C 
ATOM     24  O   UNL     1       1.997   9.755  22.278  0.00  0.00    +0.000 OA
ATOM     25  N   UNL     1       0.475   8.336  21.243  0.00  0.00    +0.000 N 
ATOM     26  H   UNL     1      -0.445   8.594  20.901  0.00  0.00    +0.000 HD
ENDBRANCH  16  25
ENDBRANCH   1  21
BRANCH  12  27
ATOM     27  C   UNL     1      -3.642  11.913  17.903  0.00  0.00    +0.000 C 
BRANCH  27  28
ATOM     28  C   UNL     1      -4.343  10.599  17.458  0.00  0.00    +0.000 C 
ATOM     29  F   UNL     1      -3.678   9.490  17.856  0.00  0.00    +0.000 F 
ATOM     30  F   UNL     1      -5.586  10.520  17.996  0.00  0.00    +0.000 F 
ATOM     31  F   UNL     1      -4.496  10.530  16.116  0.00  0.00    +0.000 F 
ENDBRANCH  27  28
ENDBRANCH  12  27
TORSDOF 4
ENDMDL
MODEL 5
REMARK VINA RESULT:      -7.8      5.101      7.752
REMARK  Name = 
REMARK  5 active torsions:
REMARK  status: ('A' for Active; 'I' for Inactive)
REMARK    1  A    between atoms: C_1  and  C_2
REMARK    2  A    between atoms: N_4  and  C_5
REMARK    3  A    between atoms: C_10  and  C_11
REMARK    4  A    between atoms: N_22  and  C_23
REMARK    5  A    between atoms: C_23  and  C_24
REMARK                            x       y       z     vdW  Elec       q    Type
REMARK                         _______ _______ _______ _____ _____    ______ ____
ROOT
ATOM      1  C   UNL     1      -1.752  11.813  20.655  0.00  0.00    +0.000 A 
ATOM      2  C   UNL     1      -2.286  12.912  21.347  0.00  0.00    +0.000 A 
ATOM      3  C   UNL     1      -3.239  13.738  20.808  0.00  0.00    +0.000 A 
ATOM      4  C   UNL     1      -4.156  12.979  20.143  0.00  0.00    +0.000 A 
ATOM      5  C   UNL     1      -5.363  12.515  20.793  0.00  0.00    +0.000 A 
ATOM      6  N   UNL     1      -5.661  12.410  22.122  0.00  0.00    +0.000 N 
ATOM      7  N   UNL     1      -6.919  11.961  22.325  0.00  0.00    +0.000 NA
ATOM      8  C   UNL     1      -7.297  11.541  21.107  0.00  0.00    +0.000 A 
ATOM      9  C   UNL     1      -6.276  11.715  20.160  0.00  0.00    +0.000 A 
ATOM     10  C   UNL     1      -6.055  11.307  18.795  0.00  0.00    +0.000 A 
ATOM     11  O   UNL     1      -6.958  10.850  18.106  0.00  0.00    +0.000 OA
ATOM     12  N   UNL     1      -4.716  11.482  18.309  0.00  0.00    +0.000 N 
ATOM     13  C   UNL     1      -3.700  12.115  19.144  0.00  0.00    +0.000 A 
ATOM     14  C   UNL     1      -2.409  11.546  19.393  0.00  0.00    +0.000 A 
ATOM     15  H   UNL     1      -5.057  12.569  22.926  0.00  0.00    +0.000 HD
ENDROOT
BRANCH   1  21
ATOM     16  C   UNL     1       0.596  10.617  20.905  0.00  0.00    +0.000 A 
ATOM     17  N   UNL     1       1.512   9.844  21.557  0.00  0.00    +0.000 NA
ATOM     18  C   UNL     1       1.203   9.438  22.791  0.00  0.00    +0.000 A 
ATOM     19  C   UNL     1      -0.031   9.668  23.362  0.00  0.00    +0.000 A 
ATOM     20  C   UNL     1      -0.997  10.393  22.644  0.00  0.00    +0.000 A 
ATOM     21  C   UNL     1      -0.722  10.941  21.379  0.00  0.00    +0.000 A 
BRANCH  16  25
ATOM     22  C   UNL     1       2.404  12.607  18.320  0.00  0.00    +0.000 C 
ATOM     23  C   UNL     1       1.723  12.308  19.624  0.00  0.00    +0.000 C 
ATOM     24  O   UNL     1       1.587  13.181  20.477  0.00  0.00    +0.000 OA
ATOM     25  N   UNL     1       1.168  11.037  19.684  0.00  0.00    +0.000 N 
ATOM     26  H   UNL     1       1.866  10.365  19.380  0.00  0.00    +0.000 HD
ENDBRANCH  16  25
ENDBRANCH   1  21
BRANCH  12  27
ATOM     27  C   UNL     1      -4.682  11.681  16.849  0.00  0.00    +0.000 C 
BRANCH  27  28
ATOM     28  C   UNL     1      -3.709  10.753  16.069  0.00  0.00    +0.000 C 
ATOM     29  F   UNL     1      -4.194  10.380  14.863  0.00  0.00    +0.000 F 
ATOM     30  F   UNL     1      -2.534  11.389  15.834  0.00  0.00    +0.000 F 
ATOM     31  F   UNL     1      -3.410   9.629  16.759  0.00  0.00    +0.000 F 
ENDBRANCH  27  28
ENDBRANCH  12  27
TORSDOF 4
ENDMDL
MODEL 6
REMARK VINA RESULT:      -7.7      3.736      5.359
REMARK  Name = 
REMARK  5 active torsions:
REMARK  status: ('A' for Active; 'I' for Inactive)
REMARK    1  A    between atoms: C_1  and  C_2
REMARK    2  A    between atoms: N_4  and  C_5
REMARK    3  A    between atoms: C_10  and  C_11
REMARK    4  A    between atoms: N_22  and  C_23
REMARK    5  A    between atoms: C_23  and  C_24
REMARK                            x       y       z     vdW  Elec       q    Type
REMARK                         _______ _______ _______ _____ _____    ______ ____
ROOT
ATOM      1  C   UNL     1       0.232  10.874  18.750  0.00  0.00    +0.000 A 
ATOM      2  C   UNL     1       0.820  12.105  19.080  0.00  0.00    +0.000 A 
ATOM      3  C   UNL     1       0.132  13.291  19.047  0.00  0.00    +0.000 A 
ATOM      4  C   UNL     1      -1.114  13.093  19.566  0.00  0.00    +0.000 A 
ATOM      5  C   UNL     1      -1.390  13.323  20.968  0.00  0.00    +0.000 A 
ATOM      6  N   UNL     1      -0.535  13.412  22.029  0.00  0.00    +0.000 N 
ATOM      7  N   UNL     1      -1.187  13.672  23.184  0.00  0.00    +0.000 NA
ATOM      8  C   UNL     1      -2.476  13.479  22.861  0.00  0.00    +0.000 A 
ATOM      9  C   UNL     1      -2.620  13.087  21.521  0.00  0.00    +0.000 A 
ATOM     10  C   UNL     1      -3.699  12.596  20.701  0.00  0.00    +0.000 A 
ATOM     11  O   UNL     1      -4.864  12.650  21.071  0.00  0.00    +0.000 OA
ATOM     12  N   UNL     1      -3.309  12.053  19.430  0.00  0.00    +0.000 N 
ATOM     13  C   UNL     1      -1.915  12.096  19.001  0.00  0.00    +0.000 A 
ATOM     14  C   UNL     1      -1.195  10.954  18.524  0.00  0.00    +0.000 A 
ATOM     15  H   UNL     1       0.471  13.256  22.053  0.00  0.00    +0.000 HD
ENDROOT
BRANCH   1  21
ATOM     16  C   UNL     1       1.077   8.670  19.949  0.00  0.00    +0.000 A 
ATOM     17  N   UNL     1       1.844   7.546  20.043  0.00  0.00    +0.000 NA
ATOM     18  C   UNL     1       2.605   7.234  18.990  0.00  0.00    +0.000 A 
ATOM     19  C   UNL     1       2.726   8.056  17.890  0.00  0.00    +0.000 A 
ATOM     20  C   UNL     1       1.994   9.255  17.844  0.00  0.00    +0.000 A 
ATOM     21  C   UNL     1       1.096   9.613  18.864  0.00  0.00    +0.000 A 
BRANCH  16  25
ATOM     22  C   UNL     1      -0.540   9.856  23.094  0.00  0.00    +0.000 C 
ATOM     23  C   UNL     1       0.450   9.814  21.966  0.00  0.00    +0.000 C 
ATOM     24  O   UNL     1       1.390  10.603  21.925  0.00  0.00    +0.000 OA
ATOM     25  N   UNL     1       0.266   8.744  21.102  0.00  0.00    +0.000 N 
ATOM     26  H   UNL     1      -0.714   8.706  20.839  0.00  0.00    +0.000 HD
ENDBRANCH  16  25
ENDBRANCH   1  21
BRANCH  12  27
ATOM     27  C   UNL     1      -4.380  12.177  18.426  0.00  0.00    +0.000 C 
BRANCH  27  28
ATOM     28  C   UNL     1      -4.851  10.844  17.782  0.00  0.00    +0.000 C 
ATOM     29  F   UNL     1      -6.159  10.583  18.011  0.00  0.00    +0.000 F 
ATOM     30  F   UNL     1      -4.697  10.888  16.435  0.00  0.00    +0.000 F 
ATOM     31  F   UNL     1      -4.137   9.783  18.219  0.00  0.00    +0.000 F 
ENDBRANCH  27  28
ENDBRANCH  12  27
TORSDOF 4
ENDMDL
MODEL 7
REMARK VINA RESULT:      -7.3      3.570      4.903
REMARK  Name = 
REMARK  5 active torsions:
REMARK  status: ('A' for Active; 'I' for Inactive)
REMARK    1  A    between atoms: C_1  and  C_2
REMARK    2  A    between atoms: N_4  and  C_5
REMARK    3  A    between atoms: C_10  and  C_11
REMARK    4  A    between atoms: N_22  and  C_23
REMARK    5  A    between atoms: C_23  and  C_24
REMARK                            x       y       z     vdW  Elec       q    Type
REMARK                         _______ _______ _______ _____ _____    ______ ____
ROOT
ATOM      1  C   UNL     1       0.866  10.018  18.610  0.00  0.00    +0.000 A 
ATOM      2  C   UNL     1       1.530  11.204  18.961  0.00  0.00    +0.000 A 
ATOM      3  C   UNL     1       0.994  12.448  18.747  0.00  0.00    +0.000 A 
ATOM      4  C   UNL     1      -0.332  12.419  19.064  0.00  0.00    +0.000 A 
ATOM      5  C   UNL     1      -0.798  12.780  20.386  0.00  0.00    +0.000 A 
ATOM      6  N   UNL     1      -0.116  12.860  21.566  0.00  0.00    +0.000 N 
ATOM      7  N   UNL     1      -0.908  13.272  22.581  0.00  0.00    +0.000 NA
ATOM      8  C   UNL     1      -2.144  13.189  22.062  0.00  0.00    +0.000 A 
ATOM      9  C   UNL     1      -2.118  12.715  20.740  0.00  0.00    +0.000 A 
ATOM     10  C   UNL     1      -3.103  12.277  19.784  0.00  0.00    +0.000 A 
ATOM     11  O   UNL     1      -4.299  12.477  19.953  0.00  0.00    +0.000 OA
ATOM     12  N   UNL     1      -2.582  11.603  18.628  0.00  0.00    +0.000 N 
ATOM     13  C   UNL     1      -1.142  11.470  18.433  0.00  0.00    +0.000 A 
ATOM     14  C   UNL     1      -0.490  10.227  18.147  0.00  0.00    +0.000 A 
ATOM     15  H   UNL     1       0.849  12.605  21.765  0.00  0.00    +0.000 HD
ENDROOT
BRANCH   1  21
ATOM     16  C   UNL     1       1.826   8.179  20.253  0.00  0.00    +0.000 A 
ATOM     17  N   UNL     1       2.432   6.990  20.539  0.00  0.00    +0.000 NA
ATOM     18  C   UNL     1       2.702   6.178  19.514  0.00  0.00    +0.000 A 
ATOM     19  C   UNL     1       2.501   6.547  18.200  0.00  0.00    +0.000 A 
ATOM     20  C   UNL     1       1.954   7.810  17.916  0.00  0.00    +0.000 A 
ATOM     21  C   UNL     1       1.551   8.688  18.937  0.00  0.00    +0.000 A 
BRANCH  16  25
ATOM     22  C   UNL     1       0.022   9.372  23.292  0.00  0.00    +0.000 C 
ATOM     23  C   UNL     1       0.211   8.762  21.933  0.00  0.00    +0.000 C 
ATOM     24  O   UNL     1      -0.753   8.376  21.278  0.00  0.00    +0.000 OA
ATOM     25  N   UNL     1       1.520   8.818  21.474  0.00  0.00    +0.000 N 
ATOM     26  H   UNL     1       2.134   8.476  22.207  0.00  0.00    +0.000 HD
ENDBRANCH  16  25
ENDBRANCH   1  21
BRANCH  12  27
ATOM     27  C   UNL     1      -3.460  11.760  17.456  0.00  0.00    +0.000 C 
BRANCH  27  28
ATOM     28  C   UNL     1      -3.417  10.597  16.426  0.00  0.00    +0.000 C 
ATOM     29  F   UNL     1      -3.307   9.382  17.010  0.00  0.00    +0.000 F 
ATOM     30  F   UNL     1      -4.557  10.572  15.691  0.00  0.00    +0.000 F 
ATOM     31  F   UNL     1      -2.395  10.727  15.550  0.00  0.00    +0.000 F 
ENDBRANCH  27  28
ENDBRANCH  12  27
TORSDOF 4
ENDMDL
MODEL 8
REMARK VINA RESULT:      -7.2      5.463      8.423
REMARK  Name = 
REMARK  5 active torsions:
REMARK  status: ('A' for Active; 'I' for Inactive)
REMARK    1  A    between atoms: C_1  and  C_2
REMARK    2  A    between atoms: N_4  and  C_5
REMARK    3  A    between atoms: C_10  and  C_11
REMARK    4  A    between atoms: N_22  and  C_23
REMARK    5  A    between atoms: C_23  and  C_24
REMARK                            x       y       z     vdW  Elec       q    Type
REMARK                         _______ _______ _______ _____ _____    ______ ____
ROOT
ATOM      1  C   UNL     1      -2.111  12.369  21.849  0.00  0.00    +0.000 A 
ATOM      2  C   UNL     1      -2.411  13.250  22.899  0.00  0.00    +0.000 A 
ATOM      3  C   UNL     1      -3.400  14.196  22.817  0.00  0.00    +0.000 A 
ATOM      4  C   UNL     1      -4.486  13.646  22.203  0.00  0.00    +0.000 A 
ATOM      5  C   UNL     1      -5.554  13.036  22.967  0.00  0.00    +0.000 A 
ATOM      6  N   UNL     1      -5.566  12.588  24.256  0.00  0.00    +0.000 N 
ATOM      7  N   UNL     1      -6.779  12.110  24.615  0.00  0.00    +0.000 NA
ATOM      8  C   UNL     1      -7.436  12.029  23.446  0.00  0.00    +0.000 A 
ATOM      9  C   UNL     1      -6.631  12.438  22.371  0.00  0.00    +0.000 A 
ATOM     10  C   UNL     1      -6.736  12.401  20.934  0.00  0.00    +0.000 A 
ATOM     11  O   UNL     1      -7.793  12.149  20.372  0.00  0.00    +0.000 OA
ATOM     12  N   UNL     1      -5.523  12.688  20.221  0.00  0.00    +0.000 N 
ATOM     13  C   UNL     1      -4.312  13.072  20.941  0.00  0.00    +0.000 A 
ATOM     14  C   UNL     1      -3.038  12.448  20.741  0.00  0.00    +0.000 A 
ATOM     15  H   UNL     1      -4.795  12.525  24.918  0.00  0.00    +0.000 HD
ENDROOT
BRANCH   1  21
ATOM     16  C   UNL     1       0.207  11.204  21.321  0.00  0.00    +0.000 A 
ATOM     17  N   UNL     1       1.188  10.280  21.533  0.00  0.00    +0.000 NA
ATOM     18  C   UNL     1       1.063   9.488  22.600  0.00  0.00    +0.000 A 
ATOM     19  C   UNL     1      -0.058   9.494  23.404  0.00  0.00    +0.000 A 
ATOM     20  C   UNL     1      -1.100  10.394  23.123  0.00  0.00    +0.000 A 
ATOM     21  C   UNL     1      -1.008  11.329  22.078  0.00  0.00    +0.000 A 
BRANCH  16  25
ATOM     22  C   UNL     1       1.801  13.864  19.249  0.00  0.00    +0.000 C 
ATOM     23  C   UNL     1       1.348  13.147  20.487  0.00  0.00    +0.000 C 
ATOM     24  O   UNL     1       1.543  13.628  21.600  0.00  0.00    +0.000 OA
ATOM     25  N   UNL     1       0.594  12.010  20.228  0.00  0.00    +0.000 N 
ATOM     26  H   UNL     1       1.085  11.447  19.540  0.00  0.00    +0.000 HD
ENDBRANCH  16  25
ENDBRANCH   1  21
BRANCH  12  27
ATOM     27  C   UNL     1      -5.789  13.264  18.891  0.00  0.00    +0.000 C 
BRANCH  27  28
ATOM     28  C   UNL     1      -5.547  12.311  17.688  0.00  0.00    +0.000 C 
ATOM     29  F   UNL     1      -6.298  11.187  17.749  0.00  0.00    +0.000 F 
ATOM     30  F   UNL     1      -5.867  12.927  16.523  0.00  0.00    +0.000 F 
ATOM     31  F   UNL     1      -4.252  11.935  17.585  0.00  0.00    +0.000 F 
ENDBRANCH  27  28
ENDBRANCH  12  27
TORSDOF 4
ENDMDL
MODEL 9
REMARK VINA RESULT:      -7.1      3.832      5.269
REMARK  Name = 
REMARK  5 active torsions:
REMARK  status: ('A' for Active; 'I' for Inactive)
REMARK    1  A    between atoms: C_1  and  C_2
REMARK    2  A    between atoms: N_4  and  C_5
REMARK    3  A    between atoms: C_10  and  C_11
REMARK    4  A    between atoms: N_22  and  C_23
REMARK    5  A    between atoms: C_23  and  C_24
REMARK                            x       y       z     vdW  Elec       q    Type
REMARK                         _______ _______ _______ _____ _____    ______ ____
ROOT
ATOM      1  C   UNL     1       0.175  10.818  18.691  0.00  0.00    +0.000 A 
ATOM      2  C   UNL     1       0.805  12.048  18.941  0.00  0.00    +0.000 A 
ATOM      3  C   UNL     1       0.148  13.249  18.863  0.00  0.00    +0.000 A 
ATOM      4  C   UNL     1      -1.086  13.114  19.426  0.00  0.00    +0.000 A 
ATOM      5  C   UNL     1      -1.316  13.424  20.821  0.00  0.00    +0.000 A 
ATOM      6  N   UNL     1      -0.428  13.544  21.852  0.00  0.00    +0.000 N 
ATOM      7  N   UNL     1      -1.040  13.882  23.010  0.00  0.00    +0.000 NA
ATOM      8  C   UNL     1      -2.342  13.709  22.732  0.00  0.00    +0.000 A 
ATOM      9  C   UNL     1      -2.535  13.253  21.419  0.00  0.00    +0.000 A 
ATOM     10  C   UNL     1      -3.650  12.751  20.656  0.00  0.00    +0.000 A 
ATOM     11  O   UNL     1      -4.803  12.857  21.054  0.00  0.00    +0.000 OA
ATOM     12  N   UNL     1      -3.312  12.132  19.406  0.00  0.00    +0.000 N 
ATOM     13  C   UNL     1      -1.930  12.113  18.937  0.00  0.00    +0.000 A 
ATOM     14  C   UNL     1      -1.255  10.927  18.501  0.00  0.00    +0.000 A 
ATOM     15  H   UNL     1       0.573  13.361  21.857  0.00  0.00    +0.000 HD
ENDROOT
BRANCH   1  21
ATOM     16  C   UNL     1       1.390   8.928  20.091  0.00  0.00    +0.000 A 
ATOM     17  N   UNL     1       2.126   7.787  20.225  0.00  0.00    +0.000 NA
ATOM     18  C   UNL     1       2.432   7.121  19.109  0.00  0.00    +0.000 A 
ATOM     19  C   UNL     1       2.138   7.603  17.851  0.00  0.00    +0.000 A 
ATOM     20  C   UNL     1       1.453   8.824  17.725  0.00  0.00    +0.000 A 
ATOM     21  C   UNL     1       1.007   9.541  18.849  0.00  0.00    +0.000 A 
BRANCH  16  25
ATOM     22  C   UNL     1      -0.208   9.342  23.436  0.00  0.00    +0.000 C 
ATOM     23  C   UNL     1      -0.032   8.856  22.026  0.00  0.00    +0.000 C 
ATOM     24  O   UNL     1      -0.881   8.145  21.495  0.00  0.00    +0.000 OA
ATOM     25  N   UNL     1       1.073   9.398  21.384  0.00  0.00    +0.000 N 
ATOM     26  H   UNL     1       1.879   9.303  21.994  0.00  0.00    +0.000 HD
ENDBRANCH  16  25
ENDBRANCH   1  21
BRANCH  12  27
ATOM     27  C   UNL     1      -4.408  12.234  18.426  0.00  0.00    +0.000 C 
BRANCH  27  28
ATOM     28  C   UNL     1      -4.788  10.910  17.706  0.00  0.00    +0.000 C 
ATOM     29  F   UNL     1      -4.293  10.836  16.449  0.00  0.00    +0.000 F 
ATOM     30  F   UNL     1      -4.290   9.844  18.381  0.00  0.00    +0.000 F 
ATOM     31  F   UNL     1      -6.126  10.732  17.634  0.00  0.00    +0.000 F 
ENDBRANCH  27  28
ENDBRANCH  12  27
TORSDOF 4
ENDMDL
