MODEL 1
REMARK VINA RESULT:      -8.7      0.000      0.000
REMARK  Name = 
REMARK  9 active torsions:
REMARK  status: ('A' for Active; 'I' for Inactive)
REMARK    1  A    between atoms: C_1  and  O_2
REMARK    2  A    between atoms: O_2  and  C_3
REMARK    3  A    between atoms: C_6  and  C_7
REMARK    4  A    between atoms: C_7  and  N_8
REMARK    5  A    between atoms: N_8  and  C_9
REMARK    6  A    between atoms: C_12  and  C_13
REMARK    7  A    between atoms: C_13  and  C_14
REMARK    8  A    between atoms: C_13  and  C_20
REMARK    9  A    between atoms: C_27  and  O_28
REMARK                            x       y       z     vdW  Elec       q    Type
REMARK                         _______ _______ _______ _____ _____    ______ ____
ROOT
ATOM      1  C   UNL     1       2.986   2.999  19.279  0.00  0.00    +0.000 C 
ATOM      2  C   UNL     1       4.421   3.487  19.567  0.00  0.00    +0.000 C 
ATOM      3  O   UNL     1       4.832   4.447  18.589  0.00  0.00    +0.000 OA
ATOM      4  C   UNL     1       4.920   3.922  17.247  0.00  0.00    +0.000 C 
ATOM      5  C   UNL     1       3.549   3.354  16.832  0.00  0.00    +0.000 C 
ATOM      6  C   UNL     1       2.996   2.375  17.868  0.00  0.00    +0.000 C 
ENDROOT
BRANCH   1   7
ATOM      7  N   UNL     1       2.087   4.164  19.421  0.00  0.00    +0.000 NA
ATOM      8  H   UNL     1       1.905   4.562  18.498  0.00  0.00    +0.000 HD
BRANCH   7   9
ATOM      9  C   UNL     1       2.549   5.212  20.319  0.00  0.00    +0.000 C 
BRANCH   9  13
ATOM     10  C   UNL     1       1.672   9.101  18.828  0.00  0.00    +0.000 A 
ATOM     11  C   UNL     1       2.275   8.208  17.959  0.00  0.00    +0.000 A 
ATOM     12  C   UNL     1       2.559   6.921  18.424  0.00  0.00    +0.000 A 
ATOM     13  C   UNL     1       2.241   6.569  19.740  0.00  0.00    +0.000 A 
ATOM     14  C   UNL     1       1.623   7.541  20.519  0.00  0.00    +0.000 A 
ATOM     15  N   UNL     1       1.329   8.790  20.103  0.00  0.00    +0.000 NA
BRANCH  10  17
ATOM     16  C   UNL     1       0.088  10.801  18.668  0.00  0.00    +0.000 C 
ATOM     17  O   UNL     1       1.415  10.377  18.362  0.00  0.00    +0.000 OA
ENDBRANCH  10  17
ENDBRANCH   9  13
ENDBRANCH   7   9
ENDBRANCH   1   7
BRANCH   6  18
ATOM     18  O   UNL     1       3.737   1.146  17.855  0.00  0.00    +0.000 OA
ATOM     19  H   UNL     1       4.093   0.966  18.743  0.00  0.00    +0.000 HD
ENDBRANCH   6  18
BRANCH   4  20
ATOM     20  C   UNL     1       5.434   5.062  16.290  0.00  0.00    +0.000 C 
BRANCH  20  21
ATOM     21  C   UNL     1       6.504   5.879  17.047  0.00  0.00    +0.000 A 
ATOM     22  C   UNL     1       7.333   5.298  18.020  0.00  0.00    +0.000 A 
ATOM     23  C   UNL     1       8.179   6.080  18.808  0.00  0.00    +0.000 A 
ATOM     24  C   UNL     1       8.213   7.462  18.640  0.00  0.00    +0.000 A 
ATOM     25  C   UNL     1       7.422   8.057  17.661  0.00  0.00    +0.000 A 
ATOM     26  C   UNL     1       6.581   7.273  16.865  0.00  0.00    +0.000 A 
ENDBRANCH  20  21
BRANCH  20  27
ATOM     27  C   UNL     1       5.923   4.595  14.909  0.00  0.00    +0.000 A 
ATOM     28  C   UNL     1       5.092   3.806  14.091  0.00  0.00    +0.000 A 
ATOM     29  C   UNL     1       5.480   3.468  12.788  0.00  0.00    +0.000 A 
ATOM     30  C   UNL     1       6.698   3.913  12.279  0.00  0.00    +0.000 A 
ATOM     31  C   UNL     1       7.545   4.667  13.082  0.00  0.00    +0.000 A 
ATOM     32  C   UNL     1       7.161   5.001  14.382  0.00  0.00    +0.000 A 
ENDBRANCH  20  27
ENDBRANCH   4  20
TORSDOF 8
ENDMDL
MODEL 2
REMARK VINA RESULT:      -8.5      2.676      7.459
REMARK  Name = 
REMARK  9 active torsions:
REMARK  status: ('A' for Active; 'I' for Inactive)
REMARK    1  A    between atoms: C_1  and  O_2
REMARK    2  A    between atoms: O_2  and  C_3
REMARK    3  A    between atoms: C_6  and  C_7
REMARK    4  A    between atoms: C_7  and  N_8
REMARK    5  A    between atoms: N_8  and  C_9
REMARK    6  A    between atoms: C_12  and  C_13
REMARK    7  A    between atoms: C_13  and  C_14
REMARK    8  A    between atoms: C_13  and  C_20
REMARK    9  A    between atoms: C_27  and  O_28
REMARK                            x       y       z     vdW  Elec       q    Type
REMARK                         _______ _______ _______ _____ _____    ______ ____
ROOT
ATOM      1  C   UNL     1       7.314   5.049  17.308  0.00  0.00    +0.000 C 
ATOM      2  C   UNL     1       6.535   4.492  18.518  0.00  0.00    +0.000 C 
ATOM      3  O   UNL     1       5.128   4.673  18.338  0.00  0.00    +0.000 OA
ATOM      4  C   UNL     1       4.712   6.054  18.281  0.00  0.00    +0.000 C 
ATOM      5  C   UNL     1       5.450   6.761  17.127  0.00  0.00    +0.000 C 
ATOM      6  C   UNL     1       6.963   6.548  17.198  0.00  0.00    +0.000 C 
ENDROOT
BRANCH   1   7
ATOM      7  N   UNL     1       6.928   4.248  16.128  0.00  0.00    +0.000 NA
ATOM      8  H   UNL     1       7.272   3.293  16.242  0.00  0.00    +0.000 HD
BRANCH   7   9
ATOM      9  C   UNL     1       7.362   4.769  14.840  0.00  0.00    +0.000 C 
BRANCH   9  13
ATOM     10  C   UNL     1       4.859   3.211  11.770  0.00  0.00    +0.000 A 
ATOM     11  C   UNL     1       6.220   3.263  11.517  0.00  0.00    +0.000 A 
ATOM     12  C   UNL     1       7.060   3.759  12.517  0.00  0.00    +0.000 A 
ATOM     13  C   UNL     1       6.519   4.193  13.731  0.00  0.00    +0.000 A 
ATOM     14  C   UNL     1       5.142   4.079  13.882  0.00  0.00    +0.000 A 
ATOM     15  N   UNL     1       4.300   3.601  12.942  0.00  0.00    +0.000 NA
BRANCH  10  17
ATOM     16  C   UNL     1       3.280   3.784  10.157  0.00  0.00    +0.000 C 
ATOM     17  O   UNL     1       4.037   2.738  10.765  0.00  0.00    +0.000 OA
ENDBRANCH  10  17
ENDBRANCH   9  13
ENDBRANCH   7   9
ENDBRANCH   1   7
BRANCH   6  18
ATOM     18  O   UNL     1       7.533   7.290  18.286  0.00  0.00    +0.000 OA
ATOM     19  H   UNL     1       6.834   7.540  18.916  0.00  0.00    +0.000 HD
ENDBRANCH   6  18
BRANCH   4  20
ATOM     20  C   UNL     1       3.146   6.107  18.139  0.00  0.00    +0.000 C 
BRANCH  20  21
ATOM     21  C   UNL     1       2.555   4.881  18.869  0.00  0.00    +0.000 A 
ATOM     22  C   UNL     1       1.657   4.002  18.241  0.00  0.00    +0.000 A 
ATOM     23  C   UNL     1       1.007   2.998  18.961  0.00  0.00    +0.000 A 
ATOM     24  C   UNL     1       1.241   2.852  20.326  0.00  0.00    +0.000 A 
ATOM     25  C   UNL     1       2.149   3.693  20.964  0.00  0.00    +0.000 A 
ATOM     26  C   UNL     1       2.807   4.694  20.241  0.00  0.00    +0.000 A 
ENDBRANCH  20  21
BRANCH  20  27
ATOM     27  C   UNL     1       2.486   7.425  18.580  0.00  0.00    +0.000 A 
ATOM     28  C   UNL     1       2.255   8.451  17.646  0.00  0.00    +0.000 A 
ATOM     29  C   UNL     1       1.555   9.609  18.010  0.00  0.00    +0.000 A 
ATOM     30  C   UNL     1       1.073   9.761  19.307  0.00  0.00    +0.000 A 
ATOM     31  C   UNL     1       1.319   8.772  20.252  0.00  0.00    +0.000 A 
ATOM     32  C   UNL     1       2.018   7.619  19.892  0.00  0.00    +0.000 A 
ENDBRANCH  20  27
ENDBRANCH   4  20
TORSDOF 8
ENDMDL
MODEL 3
REMARK VINA RESULT:      -8.5      3.166      6.428
REMARK  Name = 
REMARK  9 active torsions:
REMARK  status: ('A' for Active; 'I' for Inactive)
REMARK    1  A    between atoms: C_1  and  O_2
REMARK    2  A    between atoms: O_2  and  C_3
REMARK    3  A    between atoms: C_6  and  C_7
REMARK    4  A    between atoms: C_7  and  N_8
REMARK    5  A    between atoms: N_8  and  C_9
REMARK    6  A    between atoms: C_12  and  C_13
REMARK    7  A    between atoms: C_13  and  C_14
REMARK    8  A    between atoms: C_13  and  C_20
REMARK    9  A    between atoms: C_27  and  O_28
REMARK                            x       y       z     vdW  Elec       q    Type
REMARK                         _______ _______ _______ _____ _____    ______ ____
ROOT
ATOM      1  C   UNL     1       0.589   9.891  20.593  0.00  0.00    +0.000 C 
ATOM      2  C   UNL     1       1.733   9.913  19.558  0.00  0.00    +0.000 C 
ATOM      3  O   UNL     1       1.854   8.641  18.914  0.00  0.00    +0.000 OA
ATOM      4  C   UNL     1       2.226   7.564  19.800  0.00  0.00    +0.000 C 
ATOM      5  C   UNL     1       1.180   7.447  20.927  0.00  0.00    +0.000 C 
ATOM      6  C   UNL     1       0.929   8.789  21.618  0.00  0.00    +0.000 C 
ENDROOT
BRANCH   1   7
ATOM      7  N   UNL     1      -0.670   9.665  19.854  0.00  0.00    +0.000 NA
ATOM      8  H   UNL     1      -0.462   9.205  18.967  0.00  0.00    +0.000 HD
BRANCH   7   9
ATOM      9  C   UNL     1      -1.480  10.849  19.607  0.00  0.00    +0.000 C 
BRANCH   9  13
ATOM     10  C   UNL     1      -3.435  10.718  15.829  0.00  0.00    +0.000 A 
ATOM     11  C   UNL     1      -2.326   9.907  15.999  0.00  0.00    +0.000 A 
ATOM     12  C   UNL     1      -1.677   9.925  17.237  0.00  0.00    +0.000 A 
ATOM     13  C   UNL     1      -2.149  10.755  18.260  0.00  0.00    +0.000 A 
ATOM     14  C   UNL     1      -3.280  11.514  17.982  0.00  0.00    +0.000 A 
ATOM     15  N   UNL     1      -3.935  11.518  16.803  0.00  0.00    +0.000 NA
BRANCH  10  17
ATOM     16  C   UNL     1      -3.384   9.854  13.667  0.00  0.00    +0.000 C 
ATOM     17  O   UNL     1      -4.055  10.707  14.593  0.00  0.00    +0.000 OA
ENDBRANCH  10  17
ENDBRANCH   9  13
ENDBRANCH   7   9
ENDBRANCH   1   7
BRANCH   6  18
ATOM     18  O   UNL     1       2.054   9.166  22.424  0.00  0.00    +0.000 OA
ATOM     19  H   UNL     1       2.870   8.793  22.047  0.00  0.00    +0.000 HD
ENDBRANCH   6  18
BRANCH   4  20
ATOM     20  C   UNL     1       2.378   6.244  18.957  0.00  0.00    +0.000 C 
BRANCH  20  21
ATOM     21  C   UNL     1       3.815   6.195  18.393  0.00  0.00    +0.000 A 
ATOM     22  C   UNL     1       4.142   6.739  17.140  0.00  0.00    +0.000 A 
ATOM     23  C   UNL     1       5.403   6.544  16.575  0.00  0.00    +0.000 A 
ATOM     24  C   UNL     1       6.365   5.798  17.252  0.00  0.00    +0.000 A 
ATOM     25  C   UNL     1       6.073   5.273  18.508  0.00  0.00    +0.000 A 
ATOM     26  C   UNL     1       4.813   5.477  19.078  0.00  0.00    +0.000 A 
ENDBRANCH  20  21
BRANCH  20  27
ATOM     27  C   UNL     1       1.992   4.946  19.686  0.00  0.00    +0.000 A 
ATOM     28  C   UNL     1       1.333   3.912  18.996  0.00  0.00    +0.000 A 
ATOM     29  C   UNL     1       1.076   2.683  19.618  0.00  0.00    +0.000 A 
ATOM     30  C   UNL     1       1.474   2.464  20.934  0.00  0.00    +0.000 A 
ATOM     31  C   UNL     1       2.099   3.484  21.642  0.00  0.00    +0.000 A 
ATOM     32  C   UNL     1       2.352   4.710  21.025  0.00  0.00    +0.000 A 
ENDBRANCH  20  27
ENDBRANCH   4  20
TORSDOF 8
ENDMDL
MODEL 4
REMARK VINA RESULT:      -8.5      0.606      1.067
REMARK  Name = 
REMARK  9 active torsions:
REMARK  status: ('A' for Active; 'I' for Inactive)
REMARK    1  A    between atoms: C_1  and  O_2
REMARK    2  A    between atoms: O_2  and  C_3
REMARK    3  A    between atoms: C_6  and  C_7
REMARK    4  A    between atoms: C_7  and  N_8
REMARK    5  A    between atoms: N_8  and  C_9
REMARK    6  A    between atoms: C_12  and  C_13
REMARK    7  A    between atoms: C_13  and  C_14
REMARK    8  A    between atoms: C_13  and  C_20
REMARK    9  A    between atoms: C_27  and  O_28
REMARK                            x       y       z     vdW  Elec       q    Type
REMARK                         _______ _______ _______ _____ _____    ______ ____
ROOT
ATOM      1  C   UNL     1       2.544   3.276  19.347  0.00  0.00    +0.000 C 
ATOM      2  C   UNL     1       4.065   3.460  19.533  0.00  0.00    +0.000 C 
ATOM      3  O   UNL     1       4.573   4.425  18.607  0.00  0.00    +0.000 OA
ATOM      4  C   UNL     1       4.450   4.035  17.222  0.00  0.00    +0.000 C 
ATOM      5  C   UNL     1       2.966   3.774  16.896  0.00  0.00    +0.000 C 
ATOM      6  C   UNL     1       2.321   2.810  17.893  0.00  0.00    +0.000 C 
ENDROOT
BRANCH   1   7
ATOM      7  N   UNL     1       1.901   4.564  19.678  0.00  0.00    +0.000 NA
ATOM      8  H   UNL     1       1.374   4.894  18.868  0.00  0.00    +0.000 HD
BRANCH   7   9
ATOM      9  C   UNL     1       2.794   5.617  20.137  0.00  0.00    +0.000 C 
BRANCH   9  13
ATOM     10  C   UNL     1       1.517   9.440  18.769  0.00  0.00    +0.000 A 
ATOM     11  C   UNL     1       2.228   8.651  17.881  0.00  0.00    +0.000 A 
ATOM     12  C   UNL     1       2.646   7.387  18.305  0.00  0.00    +0.000 A 
ATOM     13  C   UNL     1       2.348   6.953  19.602  0.00  0.00    +0.000 A 
ATOM     14  C   UNL     1       1.614   7.821  20.402  0.00  0.00    +0.000 A 
ATOM     15  N   UNL     1       1.190   9.045  20.025  0.00  0.00    +0.000 NA
BRANCH  10  17
ATOM     16  C   UNL     1       2.245  11.558  18.134  0.00  0.00    +0.000 C 
ATOM     17  O   UNL     1       1.128  10.696  18.343  0.00  0.00    +0.000 OA
ENDBRANCH  10  17
ENDBRANCH   9  13
ENDBRANCH   7   9
ENDBRANCH   1   7
BRANCH   6  18
ATOM     18  O   UNL     1       2.809   1.475  17.700  0.00  0.00    +0.000 OA
ATOM     19  H   UNL     1       3.622   1.342  18.218  0.00  0.00    +0.000 HD
ENDBRANCH   6  18
BRANCH   4  20
ATOM     20  C   UNL     1       5.094   5.155  16.322  0.00  0.00    +0.000 C 
BRANCH  20  21
ATOM     21  C   UNL     1       6.101   5.947  17.186  0.00  0.00    +0.000 A 
ATOM     22  C   UNL     1       6.271   7.334  17.047  0.00  0.00    +0.000 A 
ATOM     23  C   UNL     1       7.295   8.006  17.717  0.00  0.00    +0.000 A 
ATOM     24  C   UNL     1       8.173   7.304  18.538  0.00  0.00    +0.000 A 
ATOM     25  C   UNL     1       8.006   5.933  18.714  0.00  0.00    +0.000 A 
ATOM     26  C   UNL     1       6.974   5.261  18.051  0.00  0.00    +0.000 A 
ENDBRANCH  20  21
BRANCH  20  27
ATOM     27  C   UNL     1       5.715   4.666  15.002  0.00  0.00    +0.000 A 
ATOM     28  C   UNL     1       4.960   3.882  14.111  0.00  0.00    +0.000 A 
ATOM     29  C   UNL     1       5.474   3.525  12.857  0.00  0.00    +0.000 A 
ATOM     30  C   UNL     1       6.744   3.946  12.472  0.00  0.00    +0.000 A 
ATOM     31  C   UNL     1       7.517   4.695  13.351  0.00  0.00    +0.000 A 
ATOM     32  C   UNL     1       7.007   5.049  14.601  0.00  0.00    +0.000 A 
ENDBRANCH  20  27
ENDBRANCH   4  20
TORSDOF 8
ENDMDL
MODEL 5
REMARK VINA RESULT:      -8.4      0.556      1.273
REMARK  Name = 
REMARK  9 active torsions:
REMARK  status: ('A' for Active; 'I' for Inactive)
REMARK    1  A    between atoms: C_1  and  O_2
REMARK    2  A    between atoms: O_2  and  C_3
REMARK    3  A    between atoms: C_6  and  C_7
REMARK    4  A    between atoms: C_7  and  N_8
REMARK    5  A    between atoms: N_8  and  C_9
REMARK    6  A    between atoms: C_12  and  C_13
REMARK    7  A    between atoms: C_13  and  C_14
REMARK    8  A    between atoms: C_13  and  C_20
REMARK    9  A    between atoms: C_27  and  O_28
REMARK                            x       y       z     vdW  Elec       q    Type
REMARK                         _______ _______ _______ _____ _____    ______ ____
ROOT
ATOM      1  C   UNL     1       2.850   2.928  19.391  0.00  0.00    +0.000 C 
ATOM      2  C   UNL     1       4.257   3.474  19.714  0.00  0.00    +0.000 C 
ATOM      3  O   UNL     1       4.647   4.460  18.753  0.00  0.00    +0.000 OA
ATOM      4  C   UNL     1       4.787   3.951  17.409  0.00  0.00    +0.000 C 
ATOM      5  C   UNL     1       3.451   3.328  16.959  0.00  0.00    +0.000 C 
ATOM      6  C   UNL     1       2.918   2.317  17.975  0.00  0.00    +0.000 C 
ENDROOT
BRANCH   1   7
ATOM      7  N   UNL     1       1.900   4.052  19.521  0.00  0.00    +0.000 NA
ATOM      8  H   UNL     1       1.838   4.546  18.629  0.00  0.00    +0.000 HD
BRANCH   7   9
ATOM      9  C   UNL     1       2.189   5.004  20.583  0.00  0.00    +0.000 C 
BRANCH   9  13
ATOM     10  C   UNL     1       1.675   8.936  19.037  0.00  0.00    +0.000 A 
ATOM     11  C   UNL     1       1.268   8.707  20.341  0.00  0.00    +0.000 A 
ATOM     12  C   UNL     1       1.440   7.427  20.872  0.00  0.00    +0.000 A 
ATOM     13  C   UNL     1       2.004   6.415  20.087  0.00  0.00    +0.000 A 
ATOM     14  C   UNL     1       2.391   6.763  18.798  0.00  0.00    +0.000 A 
ATOM     15  N   UNL     1       2.246   7.988  18.253  0.00  0.00    +0.000 NA
BRANCH  10  17
ATOM     16  C   UNL     1       0.306  10.820  19.042  0.00  0.00    +0.000 C 
ATOM     17  O   UNL     1       1.480  10.202  18.517  0.00  0.00    +0.000 OA
ENDBRANCH  10  17
ENDBRANCH   9  13
ENDBRANCH   7   9
ENDBRANCH   1   7
BRANCH   6  18
ATOM     18  O   UNL     1       3.711   1.121  17.970  0.00  0.00    +0.000 OA
ATOM     19  H   UNL     1       3.267   0.429  18.491  0.00  0.00    +0.000 HD
ENDBRANCH   6  18
BRANCH   4  20
ATOM     20  C   UNL     1       5.272   5.120  16.473  0.00  0.00    +0.000 C 
BRANCH  20  21
ATOM     21  C   UNL     1       6.249   6.006  17.277  0.00  0.00    +0.000 A 
ATOM     22  C   UNL     1       6.410   7.374  17.002  0.00  0.00    +0.000 A 
ATOM     23  C   UNL     1       7.411   8.122  17.625  0.00  0.00    +0.000 A 
ATOM     24  C   UNL     1       8.273   7.517  18.535  0.00  0.00    +0.000 A 
ATOM     25  C   UNL     1       8.113   6.169  18.844  0.00  0.00    +0.000 A 
ATOM     26  C   UNL     1       7.105   5.421  18.228  0.00  0.00    +0.000 A 
ENDBRANCH  20  21
BRANCH  20  27
ATOM     27  C   UNL     1       5.859   4.682  15.120  0.00  0.00    +0.000 A 
ATOM     28  C   UNL     1       5.080   3.936  14.216  0.00  0.00    +0.000 A 
ATOM     29  C   UNL     1       5.562   3.628  12.937  0.00  0.00    +0.000 A 
ATOM     30  C   UNL     1       6.824   4.060  12.538  0.00  0.00    +0.000 A 
ATOM     31  C   UNL     1       7.620   4.772  13.427  0.00  0.00    +0.000 A 
ATOM     32  C   UNL     1       7.142   5.077  14.703  0.00  0.00    +0.000 A 
ENDBRANCH  20  27
ENDBRANCH   4  20
TORSDOF 8
ENDMDL
MODEL 6
REMARK VINA RESULT:      -8.3      3.596      7.069
REMARK  Name = 
REMARK  9 active torsions:
REMARK  status: ('A' for Active; 'I' for Inactive)
REMARK    1  A    between atoms: C_1  and  O_2
REMARK    2  A    between atoms: O_2  and  C_3
REMARK    3  A    between atoms: C_6  and  C_7
REMARK    4  A    between atoms: C_7  and  N_8
REMARK    5  A    between atoms: N_8  and  C_9
REMARK    6  A    between atoms: C_12  and  C_13
REMARK    7  A    between atoms: C_13  and  C_14
REMARK    8  A    between atoms: C_13  and  C_20
REMARK    9  A    between atoms: C_27  and  O_28
REMARK                            x       y       z     vdW  Elec       q    Type
REMARK                         _______ _______ _______ _____ _____    ______ ____
ROOT
ATOM      1  C   UNL     1       7.763   6.765  17.855  0.00  0.00    +0.000 C 
ATOM      2  C   UNL     1       7.140   6.418  16.486  0.00  0.00    +0.000 C 
ATOM      3  O   UNL     1       5.712   6.455  16.559  0.00  0.00    +0.000 OA
ATOM      4  C   UNL     1       5.140   5.468  17.445  0.00  0.00    +0.000 C 
ATOM      5  C   UNL     1       5.710   5.668  18.863  0.00  0.00    +0.000 C 
ATOM      6  C   UNL     1       7.238   5.723  18.865  0.00  0.00    +0.000 C 
ENDROOT
BRANCH   1   7
ATOM      7  N   UNL     1       7.387   8.159  18.170  0.00  0.00    +0.000 NA
ATOM      8  H   UNL     1       6.375   8.263  18.080  0.00  0.00    +0.000 HD
BRANCH   7   9
ATOM      9  C   UNL     1       8.051   9.186  17.383  0.00  0.00    +0.000 C 
BRANCH   9  13
ATOM     10  C   UNL     1       9.884  11.976  20.024  0.00  0.00    +0.000 A 
ATOM     11  C   UNL     1       9.542  12.427  18.760  0.00  0.00    +0.000 A 
ATOM     12  C   UNL     1       8.927  11.530  17.882  0.00  0.00    +0.000 A 
ATOM     13  C   UNL     1       8.680  10.214  18.288  0.00  0.00    +0.000 A 
ATOM     14  C   UNL     1       9.051   9.877  19.584  0.00  0.00    +0.000 A 
ATOM     15  N   UNL     1       9.641  10.716  20.460  0.00  0.00    +0.000 NA
BRANCH  10  17
ATOM     16  C   UNL     1       9.731  14.044  21.083  0.00  0.00    +0.000 C 
ATOM     17  O   UNL     1      10.510  12.867  20.875  0.00  0.00    +0.000 OA
ENDBRANCH  10  17
ENDBRANCH   9  13
ENDBRANCH   7   9
ENDBRANCH   1   7
BRANCH   6  18
ATOM     18  O   UNL     1       7.796   4.427  18.603  0.00  0.00    +0.000 OA
ATOM     19  H   UNL     1       7.504   3.798  19.286  0.00  0.00    +0.000 HD
ENDBRANCH   6  18
BRANCH   4  20
ATOM     20  C   UNL     1       3.571   5.583  17.385  0.00  0.00    +0.000 C 
BRANCH  20  21
ATOM     21  C   UNL     1       2.974   4.216  17.784  0.00  0.00    +0.000 A 
ATOM     22  C   UNL     1       1.598   4.041  18.003  0.00  0.00    +0.000 A 
ATOM     23  C   UNL     1       1.095   2.845  18.520  0.00  0.00    +0.000 A 
ATOM     24  C   UNL     1       1.960   1.799  18.830  0.00  0.00    +0.000 A 
ATOM     25  C   UNL     1       3.325   1.940  18.594  0.00  0.00    +0.000 A 
ATOM     26  C   UNL     1       3.827   3.134  18.068  0.00  0.00    +0.000 A 
ENDBRANCH  20  21
BRANCH  20  27
ATOM     27  C   UNL     1       2.963   6.744  18.190  0.00  0.00    +0.000 A 
ATOM     28  C   UNL     1       2.680   7.972  17.563  0.00  0.00    +0.000 A 
ATOM     29  C   UNL     1       2.024   8.998  18.256  0.00  0.00    +0.000 A 
ATOM     30  C   UNL     1       1.638   8.815  19.582  0.00  0.00    +0.000 A 
ATOM     31  C   UNL     1       1.936   7.622  20.228  0.00  0.00    +0.000 A 
ATOM     32  C   UNL     1       2.593   6.600  19.539  0.00  0.00    +0.000 A 
ENDBRANCH  20  27
ENDBRANCH   4  20
TORSDOF 8
ENDMDL
MODEL 7
REMARK VINA RESULT:      -8.3      3.229      6.421
REMARK  Name = 
REMARK  9 active torsions:
REMARK  status: ('A' for Active; 'I' for Inactive)
REMARK    1  A    between atoms: C_1  and  O_2
REMARK    2  A    between atoms: O_2  and  C_3
REMARK    3  A    between atoms: C_6  and  C_7
REMARK    4  A    between atoms: C_7  and  N_8
REMARK    5  A    between atoms: N_8  and  C_9
REMARK    6  A    between atoms: C_12  and  C_13
REMARK    7  A    between atoms: C_13  and  C_14
REMARK    8  A    between atoms: C_13  and  C_20
REMARK    9  A    between atoms: C_27  and  O_28
REMARK                            x       y       z     vdW  Elec       q    Type
REMARK                         _______ _______ _______ _____ _____    ______ ____
ROOT
ATOM      1  C   UNL     1       0.691   9.915  20.564  0.00  0.00    +0.000 C 
ATOM      2  C   UNL     1       1.845   9.908  19.539  0.00  0.00    +0.000 C 
ATOM      3  O   UNL     1       1.938   8.635  18.893  0.00  0.00    +0.000 OA
ATOM      4  C   UNL     1       2.272   7.546  19.780  0.00  0.00    +0.000 C 
ATOM      5  C   UNL     1       1.212   7.454  20.895  0.00  0.00    +0.000 C 
ATOM      6  C   UNL     1       0.991   8.800  21.588  0.00  0.00    +0.000 C 
ENDROOT
BRANCH   1   7
ATOM      7  N   UNL     1      -0.567   9.725  19.811  0.00  0.00    +0.000 NA
ATOM      8  H   UNL     1      -0.381   9.159  18.982  0.00  0.00    +0.000 HD
BRANCH   7   9
ATOM      9  C   UNL     1      -1.261  10.943  19.422  0.00  0.00    +0.000 C 
BRANCH   9  13
ATOM     10  C   UNL     1      -3.477  10.466  15.819  0.00  0.00    +0.000 A 
ATOM     11  C   UNL     1      -2.405   9.613  16.025  0.00  0.00    +0.000 A 
ATOM     12  C   UNL     1      -1.673   9.744  17.207  0.00  0.00    +0.000 A 
ATOM     13  C   UNL     1      -2.025  10.724  18.142  0.00  0.00    +0.000 A 
ATOM     14  C   UNL     1      -3.128  11.514  17.838  0.00  0.00    +0.000 A 
ATOM     15  N   UNL     1      -3.862  11.412  16.710  0.00  0.00    +0.000 NA
BRANCH  10  17
ATOM     16  C   UNL     1      -3.330   9.988  13.545  0.00  0.00    +0.000 C 
ATOM     17  O   UNL     1      -4.180  10.339  14.636  0.00  0.00    +0.000 OA
ENDBRANCH  10  17
ENDBRANCH   9  13
ENDBRANCH   7   9
ENDBRANCH   1   7
BRANCH   6  18
ATOM     18  O   UNL     1       2.117   9.144  22.407  0.00  0.00    +0.000 OA
ATOM     19  H   UNL     1       2.648   8.349  22.589  0.00  0.00    +0.000 HD
ENDBRANCH   6  18
BRANCH   4  20
ATOM     20  C   UNL     1       2.396   6.224  18.933  0.00  0.00    +0.000 C 
BRANCH  20  21
ATOM     21  C   UNL     1       3.810   6.181  18.313  0.00  0.00    +0.000 A 
ATOM     22  C   UNL     1       4.887   5.555  18.960  0.00  0.00    +0.000 A 
ATOM     23  C   UNL     1       6.189   5.666  18.467  0.00  0.00    +0.000 A 
ATOM     24  C   UNL     1       6.440   6.408  17.316  0.00  0.00    +0.000 A 
ATOM     25  C   UNL     1       5.383   7.013  16.642  0.00  0.00    +0.000 A 
ATOM     26  C   UNL     1       4.078   6.895  17.130  0.00  0.00    +0.000 A 
ENDBRANCH  20  21
BRANCH  20  27
ATOM     27  C   UNL     1       2.045   4.926  19.681  0.00  0.00    +0.000 A 
ATOM     28  C   UNL     1       2.510   4.714  20.992  0.00  0.00    +0.000 A 
ATOM     29  C   UNL     1       2.107   3.589  21.723  0.00  0.00    +0.000 A 
ATOM     30  C   UNL     1       1.233   2.662  21.162  0.00  0.00    +0.000 A 
ATOM     31  C   UNL     1       0.787   2.838  19.858  0.00  0.00    +0.000 A 
ATOM     32  C   UNL     1       1.191   3.956  19.127  0.00  0.00    +0.000 A 
ENDBRANCH  20  27
ENDBRANCH   4  20
TORSDOF 8
ENDMDL
MODEL 8
REMARK VINA RESULT:      -8.1      1.234      3.682
REMARK  Name = 
REMARK  9 active torsions:
REMARK  status: ('A' for Active; 'I' for Inactive)
REMARK    1  A    between atoms: C_1  and  O_2
REMARK    2  A    between atoms: O_2  and  C_3
REMARK    3  A    between atoms: C_6  and  C_7
REMARK    4  A    between atoms: C_7  and  N_8
REMARK    5  A    between atoms: N_8  and  C_9
REMARK    6  A    between atoms: C_12  and  C_13
REMARK    7  A    between atoms: C_13  and  C_14
REMARK    8  A    between atoms: C_13  and  C_20
REMARK    9  A    between atoms: C_27  and  O_28
REMARK                            x       y       z     vdW  Elec       q    Type
REMARK                         _______ _______ _______ _____ _____    ______ ____
ROOT
ATOM      1  C   UNL     1       2.618   4.612  19.254  0.00  0.00    +0.000 C 
ATOM      2  C   UNL     1       3.701   3.549  19.534  0.00  0.00    +0.000 C 
ATOM      3  O   UNL     1       4.949   3.934  18.951  0.00  0.00    +0.000 OA
ATOM      4  C   UNL     1       4.926   4.015  17.510  0.00  0.00    +0.000 C 
ATOM      5  C   UNL     1       3.847   5.026  17.074  0.00  0.00    +0.000 C 
ATOM      6  C   UNL     1       2.492   4.733  17.720  0.00  0.00    +0.000 C 
ENDROOT
BRANCH   1   7
ATOM      7  N   UNL     1       3.038   5.858  19.928  0.00  0.00    +0.000 NA
ATOM      8  H   UNL     1       3.817   5.654  20.556  0.00  0.00    +0.000 HD
BRANCH   7   9
ATOM      9  C   UNL     1       1.996   6.562  20.660  0.00  0.00    +0.000 C 
BRANCH   9  13
ATOM     10  C   UNL     1       1.228  10.411  19.012  0.00  0.00    +0.000 A 
ATOM     11  C   UNL     1       1.821   9.472  18.185  0.00  0.00    +0.000 A 
ATOM     12  C   UNL     1       2.070   8.198  18.702  0.00  0.00    +0.000 A 
ATOM     13  C   UNL     1       1.727   7.904  20.027  0.00  0.00    +0.000 A 
ATOM     14  C   UNL     1       1.123   8.918  20.760  0.00  0.00    +0.000 A 
ATOM     15  N   UNL     1       0.863  10.157  20.293  0.00  0.00    +0.000 NA
BRANCH  10  17
ATOM     16  C   UNL     1       2.219  12.412  18.352  0.00  0.00    +0.000 C 
ATOM     17  O   UNL     1       1.007  11.673  18.495  0.00  0.00    +0.000 OA
ENDBRANCH  10  17
ENDBRANCH   9  13
ENDBRANCH   7   9
ENDBRANCH   1   7
BRANCH   6  18
ATOM     18  O   UNL     1       1.903   3.551  17.158  0.00  0.00    +0.000 OA
ATOM     19  H   UNL     1       1.258   3.175  17.783  0.00  0.00    +0.000 HD
ENDBRANCH   6  18
BRANCH   4  20
ATOM     20  C   UNL     1       6.368   4.391  17.001  0.00  0.00    +0.000 C 
BRANCH  20  21
ATOM     21  C   UNL     1       6.352   4.378  15.457  0.00  0.00    +0.000 A 
ATOM     22  C   UNL     1       5.419   3.621  14.729  0.00  0.00    +0.000 A 
ATOM     23  C   UNL     1       5.521   3.490  13.343  0.00  0.00    +0.000 A 
ATOM     24  C   UNL     1       6.560   4.111  12.655  0.00  0.00    +0.000 A 
ATOM     25  C   UNL     1       7.479   4.890  13.352  0.00  0.00    +0.000 A 
ATOM     26  C   UNL     1       7.373   5.029  14.739  0.00  0.00    +0.000 A 
ENDBRANCH  20  21
BRANCH  20  27
ATOM     27  C   UNL     1       6.948   5.698  17.569  0.00  0.00    +0.000 A 
ATOM     28  C   UNL     1       7.794   5.671  18.693  0.00  0.00    +0.000 A 
ATOM     29  C   UNL     1       8.418   6.839  19.151  0.00  0.00    +0.000 A 
ATOM     30  C   UNL     1       8.211   8.049  18.495  0.00  0.00    +0.000 A 
ATOM     31  C   UNL     1       7.355   8.102  17.401  0.00  0.00    +0.000 A 
ATOM     32  C   UNL     1       6.731   6.940  16.946  0.00  0.00    +0.000 A 
ENDBRANCH  20  27
ENDBRANCH   4  20
TORSDOF 8
ENDMDL
MODEL 9
REMARK VINA RESULT:      -8.1      2.757      7.478
REMARK  Name = 
REMARK  9 active torsions:
REMARK  status: ('A' for Active; 'I' for Inactive)
REMARK    1  A    between atoms: C_1  and  O_2
REMARK    2  A    between atoms: O_2  and  C_3
REMARK    3  A    between atoms: C_6  and  C_7
REMARK    4  A    between atoms: C_7  and  N_8
REMARK    5  A    between atoms: N_8  and  C_9
REMARK    6  A    between atoms: C_12  and  C_13
REMARK    7  A    between atoms: C_13  and  C_14
REMARK    8  A    between atoms: C_13  and  C_20
REMARK    9  A    between atoms: C_27  and  O_28
REMARK                            x       y       z     vdW  Elec       q    Type
REMARK                         _______ _______ _______ _____ _____    ______ ____
ROOT
ATOM      1  C   UNL     1       7.280   5.157  17.452  0.00  0.00    +0.000 C 
ATOM      2  C   UNL     1       6.481   4.632  18.663  0.00  0.00    +0.000 C 
ATOM      3  O   UNL     1       5.075   4.750  18.429  0.00  0.00    +0.000 OA
ATOM      4  C   UNL     1       4.612   6.111  18.289  0.00  0.00    +0.000 C 
ATOM      5  C   UNL     1       5.363   6.786  17.125  0.00  0.00    +0.000 C 
ATOM      6  C   UNL     1       6.879   6.635  17.255  0.00  0.00    +0.000 C 
ENDROOT
BRANCH   1   7
ATOM      7  N   UNL     1       6.963   4.285  16.302  0.00  0.00    +0.000 NA
ATOM      8  H   UNL     1       7.339   3.351  16.475  0.00  0.00    +0.000 HD
BRANCH   7   9
ATOM      9  C   UNL     1       7.418   4.759  15.004  0.00  0.00    +0.000 C 
BRANCH   9  13
ATOM     10  C   UNL     1       4.992   3.245  11.852  0.00  0.00    +0.000 A 
ATOM     11  C   UNL     1       4.362   3.559  13.045  0.00  0.00    +0.000 A 
ATOM     12  C   UNL     1       5.139   4.070  14.088  0.00  0.00    +0.000 A 
ATOM     13  C   UNL     1       6.516   4.245  13.912  0.00  0.00    +0.000 A 
ATOM     14  C   UNL     1       7.038   3.911  12.668  0.00  0.00    +0.000 A 
ATOM     15  N   UNL     1       6.319   3.421  11.637  0.00  0.00    +0.000 NA
BRANCH  10  17
ATOM     16  C   UNL     1       3.347   3.700  10.267  0.00  0.00    +0.000 C 
ATOM     17  O   UNL     1       4.216   2.721  10.835  0.00  0.00    +0.000 OA
ENDBRANCH  10  17
ENDBRANCH   9  13
ENDBRANCH   7   9
ENDBRANCH   1   7
BRANCH   6  18
ATOM     18  O   UNL     1       7.384   7.450  18.322  0.00  0.00    +0.000 OA
ATOM     19  H   UNL     1       7.009   7.154  19.170  0.00  0.00    +0.000 HD
ENDBRANCH   6  18
BRANCH   4  20
ATOM     20  C   UNL     1       3.050   6.097  18.094  0.00  0.00    +0.000 C 
BRANCH  20  21
ATOM     21  C   UNL     1       2.487   4.851  18.812  0.00  0.00    +0.000 A 
ATOM     22  C   UNL     1       1.772   3.856  18.125  0.00  0.00    +0.000 A 
ATOM     23  C   UNL     1       1.131   2.823  18.812  0.00  0.00    +0.000 A 
ATOM     24  C   UNL     1       1.190   2.765  20.202  0.00  0.00    +0.000 A 
ATOM     25  C   UNL     1       1.916   3.724  20.902  0.00  0.00    +0.000 A 
ATOM     26  C   UNL     1       2.566   4.753  20.214  0.00  0.00    +0.000 A 
ENDBRANCH  20  21
BRANCH  20  27
ATOM     27  C   UNL     1       2.322   7.388  18.505  0.00  0.00    +0.000 A 
ATOM     28  C   UNL     1       1.990   7.618  19.853  0.00  0.00    +0.000 A 
ATOM     29  C   UNL     1       1.428   8.836  20.257  0.00  0.00    +0.000 A 
ATOM     30  C   UNL     1       1.192   9.844  19.325  0.00  0.00    +0.000 A 
ATOM     31  C   UNL     1       1.484   9.624  17.985  0.00  0.00    +0.000 A 
ATOM     32  C   UNL     1       2.041   8.410  17.581  0.00  0.00    +0.000 A 
ENDBRANCH  20  27
ENDBRANCH   4  20
TORSDOF 8
ENDMDL
