MODEL 1
REMARK VINA RESULT:      -6.6      0.000      0.000
REMARK  Name = 
REMARK  8 active torsions:
REMARK  status: ('A' for Active; 'I' for Inactive)
REMARK    1  A    between atoms: C_1  and  C_2
REMARK    2  A    between atoms: C_2  and  C_3
REMARK    3  A    between atoms: C_3  and  N_4
REMARK    4  A    between atoms: N_4  and  C_5
REMARK    5  A    between atoms: C_7  and  C_8
REMARK    6  A    between atoms: C_9  and  C_10
REMARK    7  A    between atoms: C_10  and  C_11
REMARK    8  A    between atoms: C_14  and  C_15
REMARK                            x       y       z     vdW  Elec       q    Type
REMARK                         _______ _______ _______ _____ _____    ______ ____
ROOT
ATOM      1  C   UNL     1       4.336   4.252  18.854  0.00  0.00    +0.000 A 
ATOM      2  N   UNL     1       5.681   4.387  18.935  0.00  0.00    +0.000 NA
ATOM      3  C   UNL     1       6.453   4.492  17.810  0.00  0.00    +0.000 A 
ATOM      4  C   UNL     1       7.902   4.711  18.120  0.00  0.00    +0.000 C 
ATOM      5  C   UNL     1       5.898   4.455  16.537  0.00  0.00    +0.000 A 
ATOM      6  C   UNL     1       4.505   4.277  16.456  0.00  0.00    +0.000 A 
ATOM      7  C   UNL     1       3.720   4.157  17.608  0.00  0.00    +0.000 A 
ENDROOT
BRANCH   5   8
ATOM      8  C   UNL     1       6.585   4.678  15.230  0.00  0.00    +0.000 C 
ATOM      9  C   UNL     1       6.256   3.901  13.986  0.00  0.00    +0.000 C 
ATOM     10  O   UNL     1       7.429   5.576  15.172  0.00  0.00    +0.000 OA
ENDBRANCH   5   8
BRANCH   1  11
ATOM     11  N   UNL     1       3.609   4.128  20.055  0.00  0.00    +0.000 N 
ATOM     12  H   UNL     1       3.972   4.746  20.777  0.00  0.00    +0.000 HD
BRANCH  11  13
ATOM     13  C   UNL     1       3.539   2.747  20.549  0.00  0.00    +0.000 C 
BRANCH  13  15
ATOM     14  C   UNL     1       1.102   3.265  20.915  0.00  0.00    +0.000 C 
ATOM     15  C   UNL     1       2.339   2.586  21.483  0.00  0.00    +0.000 C 
ENDBRANCH  13  15
ENDBRANCH  11  13
ENDBRANCH   1  11
BRANCH   7  16
ATOM     16  C   UNL     1       2.301   4.024  17.468  0.00  0.00    +0.000 C 
ATOM     17  N   UNL     1       1.151   3.951  17.362  0.00  0.00    +0.000 NA
ENDBRANCH   7  16
TORSDOF 5
ENDMDL
MODEL 2
REMARK VINA RESULT:      -6.5      2.573      5.207
REMARK  Name = 
REMARK  8 active torsions:
REMARK  status: ('A' for Active; 'I' for Inactive)
REMARK    1  A    between atoms: C_1  and  C_2
REMARK    2  A    between atoms: C_2  and  C_3
REMARK    3  A    between atoms: C_3  and  N_4
REMARK    4  A    between atoms: N_4  and  C_5
REMARK    5  A    between atoms: C_7  and  C_8
REMARK    6  A    between atoms: C_9  and  C_10
REMARK    7  A    between atoms: C_10  and  C_11
REMARK    8  A    between atoms: C_14  and  C_15
REMARK                            x       y       z     vdW  Elec       q    Type
REMARK                         _______ _______ _______ _____ _____    ______ ____
ROOT
ATOM      1  C   UNL     1       5.803   4.430  18.143  0.00  0.00    +0.000 A 
ATOM      2  N   UNL     1       5.059   4.566  19.266  0.00  0.00    +0.000 NA
ATOM      3  C   UNL     1       3.708   4.347  19.254  0.00  0.00    +0.000 A 
ATOM      4  C   UNL     1       3.089   4.473  20.613  0.00  0.00    +0.000 C 
ATOM      5  C   UNL     1       3.036   3.989  18.092  0.00  0.00    +0.000 A 
ATOM      6  C   UNL     1       3.805   3.887  16.920  0.00  0.00    +0.000 A 
ATOM      7  C   UNL     1       5.185   4.123  16.932  0.00  0.00    +0.000 A 
ENDROOT
BRANCH   5   8
ATOM      8  C   UNL     1       1.602   3.601  17.945  0.00  0.00    +0.000 C 
ATOM      9  C   UNL     1       0.974   2.469  18.710  0.00  0.00    +0.000 C 
ATOM     10  O   UNL     1       0.899   4.279  17.191  0.00  0.00    +0.000 OA
ENDBRANCH   5   8
BRANCH   1  11
ATOM     11  N   UNL     1       7.185   4.693  18.227  0.00  0.00    +0.000 N 
ATOM     12  H   UNL     1       7.656   4.024  18.832  0.00  0.00    +0.000 HD
BRANCH  11  13
ATOM     13  C   UNL     1       7.489   6.066  18.646  0.00  0.00    +0.000 C 
BRANCH  13  15
ATOM     14  C   UNL     1       7.962   8.384  17.785  0.00  0.00    +0.000 C 
ATOM     15  C   UNL     1       7.403   7.011  17.447  0.00  0.00    +0.000 C 
ENDBRANCH  13  15
ENDBRANCH  11  13
ENDBRANCH   1  11
BRANCH   7  16
ATOM     16  C   UNL     1       5.927   3.960  15.719  0.00  0.00    +0.000 C 
ATOM     17  N   UNL     1       6.529   3.864  14.735  0.00  0.00    +0.000 NA
ENDBRANCH   7  16
TORSDOF 5
ENDMDL
MODEL 3
REMARK VINA RESULT:      -6.4      2.481      5.190
REMARK  Name = 
REMARK  8 active torsions:
REMARK  status: ('A' for Active; 'I' for Inactive)
REMARK    1  A    between atoms: C_1  and  C_2
REMARK    2  A    between atoms: C_2  and  C_3
REMARK    3  A    between atoms: C_3  and  N_4
REMARK    4  A    between atoms: N_4  and  C_5
REMARK    5  A    between atoms: C_7  and  C_8
REMARK    6  A    between atoms: C_9  and  C_10
REMARK    7  A    between atoms: C_10  and  C_11
REMARK    8  A    between atoms: C_14  and  C_15
REMARK                            x       y       z     vdW  Elec       q    Type
REMARK                         _______ _______ _______ _____ _____    ______ ____
ROOT
ATOM      1  C   UNL     1       6.499   4.572  18.057  0.00  0.00    +0.000 A 
ATOM      2  N   UNL     1       5.751   4.265  19.144  0.00  0.00    +0.000 NA
ATOM      3  C   UNL     1       4.444   3.881  19.021  0.00  0.00    +0.000 A 
ATOM      4  C   UNL     1       3.823   3.512  20.334  0.00  0.00    +0.000 C 
ATOM      5  C   UNL     1       3.819   3.800  17.783  0.00  0.00    +0.000 A 
ATOM      6  C   UNL     1       4.587   4.157  16.660  0.00  0.00    +0.000 A 
ATOM      7  C   UNL     1       5.920   4.561  16.790  0.00  0.00    +0.000 A 
ENDROOT
BRANCH   5   8
ATOM      8  C   UNL     1       2.451   3.286  17.478  0.00  0.00    +0.000 C 
ATOM      9  C   UNL     1       1.223   4.153  17.502  0.00  0.00    +0.000 C 
ATOM     10  O   UNL     1       2.344   2.102  17.147  0.00  0.00    +0.000 OA
ENDBRANCH   5   8
BRANCH   1  11
ATOM     11  N   UNL     1       7.832   4.980  18.264  0.00  0.00    +0.000 N 
ATOM     12  H   UNL     1       8.345   4.307  18.829  0.00  0.00    +0.000 HD
BRANCH  11  13
ATOM     13  C   UNL     1       7.944   6.325  18.840  0.00  0.00    +0.000 C 
BRANCH  13  15
ATOM     14  C   UNL     1       8.303   8.714  18.129  0.00  0.00    +0.000 C 
ATOM     15  C   UNL     1       7.671   7.379  17.765  0.00  0.00    +0.000 C 
ENDBRANCH  13  15
ENDBRANCH  11  13
ENDBRANCH   1  11
BRANCH   7  16
ATOM     16  C   UNL     1       6.669   4.868  15.609  0.00  0.00    +0.000 C 
ATOM     17  N   UNL     1       7.287   5.084  14.654  0.00  0.00    +0.000 NA
ENDBRANCH   7  16
TORSDOF 5
ENDMDL
MODEL 4
REMARK VINA RESULT:      -6.4      3.094      5.533
REMARK  Name = 
REMARK  8 active torsions:
REMARK  status: ('A' for Active; 'I' for Inactive)
REMARK    1  A    between atoms: C_1  and  C_2
REMARK    2  A    between atoms: C_2  and  C_3
REMARK    3  A    between atoms: C_3  and  N_4
REMARK    4  A    between atoms: N_4  and  C_5
REMARK    5  A    between atoms: C_7  and  C_8
REMARK    6  A    between atoms: C_9  and  C_10
REMARK    7  A    between atoms: C_10  and  C_11
REMARK    8  A    between atoms: C_14  and  C_15
REMARK                            x       y       z     vdW  Elec       q    Type
REMARK                         _______ _______ _______ _____ _____    ______ ____
ROOT
ATOM      1  C   UNL     1       6.285   5.945  16.815  0.00  0.00    +0.000 A 
ATOM      2  N   UNL     1       5.563   6.044  17.956  0.00  0.00    +0.000 NA
ATOM      3  C   UNL     1       4.494   5.222  18.193  0.00  0.00    +0.000 A 
ATOM      4  C   UNL     1       3.883   5.443  19.543  0.00  0.00    +0.000 C 
ATOM      5  C   UNL     1       4.094   4.260  17.274  0.00  0.00    +0.000 A 
ATOM      6  C   UNL     1       4.823   4.186  16.074  0.00  0.00    +0.000 A 
ATOM      7  C   UNL     1       5.907   5.036  15.829  0.00  0.00    +0.000 A 
ENDROOT
BRANCH   5   8
ATOM      8  C   UNL     1       3.037   3.219  17.439  0.00  0.00    +0.000 C 
ATOM      9  C   UNL     1       3.304   1.864  18.033  0.00  0.00    +0.000 C 
ATOM     10  O   UNL     1       1.885   3.514  17.109  0.00  0.00    +0.000 OA
ENDBRANCH   5   8
BRANCH   1  11
ATOM     11  N   UNL     1       7.359   6.839  16.631  0.00  0.00    +0.000 N 
ATOM     12  H   UNL     1       8.139   6.393  16.154  0.00  0.00    +0.000 HD
BRANCH  11  13
ATOM     13  C   UNL     1       7.811   7.466  17.879  0.00  0.00    +0.000 C 
BRANCH  13  15
ATOM     14  C   UNL     1       8.858   9.598  18.712  0.00  0.00    +0.000 C 
ATOM     15  C   UNL     1       7.905   8.981  17.700  0.00  0.00    +0.000 C 
ENDBRANCH  13  15
ENDBRANCH  11  13
ENDBRANCH   1  11
BRANCH   7  16
ATOM     16  C   UNL     1       6.643   4.886  14.610  0.00  0.00    +0.000 C 
ATOM     17  N   UNL     1       7.252   4.798  13.630  0.00  0.00    +0.000 NA
ENDBRANCH   7  16
TORSDOF 5
ENDMDL
MODEL 5
REMARK VINA RESULT:      -6.4      0.959      1.064
REMARK  Name = 
REMARK  8 active torsions:
REMARK  status: ('A' for Active; 'I' for Inactive)
REMARK    1  A    between atoms: C_1  and  C_2
REMARK    2  A    between atoms: C_2  and  C_3
REMARK    3  A    between atoms: C_3  and  N_4
REMARK    4  A    between atoms: N_4  and  C_5
REMARK    5  A    between atoms: C_7  and  C_8
REMARK    6  A    between atoms: C_9  and  C_10
REMARK    7  A    between atoms: C_10  and  C_11
REMARK    8  A    between atoms: C_14  and  C_15
REMARK                            x       y       z     vdW  Elec       q    Type
REMARK                         _______ _______ _______ _____ _____    ______ ____
ROOT
ATOM      1  C   UNL     1       4.433   4.011  19.056  0.00  0.00    +0.000 A 
ATOM      2  N   UNL     1       5.614   4.653  19.215  0.00  0.00    +0.000 NA
ATOM      3  C   UNL     1       6.429   4.918  18.148  0.00  0.00    +0.000 A 
ATOM      4  C   UNL     1       7.646   5.702  18.529  0.00  0.00    +0.000 C 
ATOM      5  C   UNL     1       6.090   4.531  16.857  0.00  0.00    +0.000 A 
ATOM      6  C   UNL     1       4.880   3.831  16.700  0.00  0.00    +0.000 A 
ATOM      7  C   UNL     1       4.055   3.552  17.796  0.00  0.00    +0.000 A 
ENDROOT
BRANCH   5   8
ATOM      8  C   UNL     1       6.806   4.851  15.587  0.00  0.00    +0.000 C 
ATOM      9  C   UNL     1       6.544   4.131  14.293  0.00  0.00    +0.000 C 
ATOM     10  O   UNL     1       7.616   5.782  15.603  0.00  0.00    +0.000 OA
ENDBRANCH   5   8
BRANCH   1  11
ATOM     11  N   UNL     1       3.657   3.755  20.205  0.00  0.00    +0.000 N 
ATOM     12  H   UNL     1       3.199   2.848  20.151  0.00  0.00    +0.000 HD
BRANCH  11  13
ATOM     13  C   UNL     1       2.676   4.809  20.488  0.00  0.00    +0.000 C 
BRANCH  13  15
ATOM     14  C   UNL     1       1.373   2.758  21.145  0.00  0.00    +0.000 C 
ATOM     15  C   UNL     1       1.286   4.198  20.663  0.00  0.00    +0.000 C 
ENDBRANCH  13  15
ENDBRANCH  11  13
ENDBRANCH   1  11
BRANCH   7  16
ATOM     16  C   UNL     1       2.813   2.876  17.572  0.00  0.00    +0.000 C 
ATOM     17  N   UNL     1       1.815   2.330  17.357  0.00  0.00    +0.000 NA
ENDBRANCH   7  16
TORSDOF 5
ENDMDL
MODEL 6
REMARK VINA RESULT:      -6.3      1.543      1.693
REMARK  Name = 
REMARK  8 active torsions:
REMARK  status: ('A' for Active; 'I' for Inactive)
REMARK    1  A    between atoms: C_1  and  C_2
REMARK    2  A    between atoms: C_2  and  C_3
REMARK    3  A    between atoms: C_3  and  N_4
REMARK    4  A    between atoms: N_4  and  C_5
REMARK    5  A    between atoms: C_7  and  C_8
REMARK    6  A    between atoms: C_9  and  C_10
REMARK    7  A    between atoms: C_10  and  C_11
REMARK    8  A    between atoms: C_14  and  C_15
REMARK                            x       y       z     vdW  Elec       q    Type
REMARK                         _______ _______ _______ _____ _____    ______ ____
ROOT
ATOM      1  C   UNL     1       3.369   5.299  18.189  0.00  0.00    +0.000 A 
ATOM      2  N   UNL     1       4.334   6.245  18.086  0.00  0.00    +0.000 NA
ATOM      3  C   UNL     1       5.442   6.047  17.309  0.00  0.00    +0.000 A 
ATOM      4  C   UNL     1       6.344   7.242  17.272  0.00  0.00    +0.000 C 
ATOM      5  C   UNL     1       5.636   4.868  16.600  0.00  0.00    +0.000 A 
ATOM      6  C   UNL     1       4.652   3.873  16.739  0.00  0.00    +0.000 A 
ATOM      7  C   UNL     1       3.525   4.074  17.544  0.00  0.00    +0.000 A 
ENDROOT
BRANCH   5   8
ATOM      8  C   UNL     1       6.721   4.553  15.623  0.00  0.00    +0.000 C 
ATOM      9  C   UNL     1       6.469   4.338  14.157  0.00  0.00    +0.000 C 
ATOM     10  O   UNL     1       7.880   4.515  16.045  0.00  0.00    +0.000 OA
ENDBRANCH   5   8
BRANCH   1  11
ATOM     11  N   UNL     1       2.267   5.566  19.025  0.00  0.00    +0.000 N 
ATOM     12  H   UNL     1       2.037   6.557  19.036  0.00  0.00    +0.000 HD
BRANCH  11  13
ATOM     13  C   UNL     1       2.443   5.065  20.393  0.00  0.00    +0.000 C 
BRANCH  13  15
ATOM     14  C   UNL     1       1.766   2.905  21.495  0.00  0.00    +0.000 C 
ATOM     15  C   UNL     1       1.278   4.151  20.771  0.00  0.00    +0.000 C 
ENDBRANCH  13  15
ENDBRANCH  11  13
ENDBRANCH   1  11
BRANCH   7  16
ATOM     16  C   UNL     1       2.531   3.046  17.613  0.00  0.00    +0.000 C 
ATOM     17  N   UNL     1       1.744   2.198  17.642  0.00  0.00    +0.000 NA
ENDBRANCH   7  16
TORSDOF 5
ENDMDL
MODEL 7
REMARK VINA RESULT:      -6.3      1.774      2.786
REMARK  Name = 
REMARK  8 active torsions:
REMARK  status: ('A' for Active; 'I' for Inactive)
REMARK    1  A    between atoms: C_1  and  C_2
REMARK    2  A    between atoms: C_2  and  C_3
REMARK    3  A    between atoms: C_3  and  N_4
REMARK    4  A    between atoms: N_4  and  C_5
REMARK    5  A    between atoms: C_7  and  C_8
REMARK    6  A    between atoms: C_9  and  C_10
REMARK    7  A    between atoms: C_10  and  C_11
REMARK    8  A    between atoms: C_14  and  C_15
REMARK                            x       y       z     vdW  Elec       q    Type
REMARK                         _______ _______ _______ _____ _____    ______ ____
ROOT
ATOM      1  C   UNL     1       3.036   4.572  17.689  0.00  0.00    +0.000 A 
ATOM      2  N   UNL     1       3.886   4.043  16.778  0.00  0.00    +0.000 NA
ATOM      3  C   UNL     1       5.156   4.529  16.625  0.00  0.00    +0.000 A 
ATOM      4  C   UNL     1       5.956   3.756  15.622  0.00  0.00    +0.000 C 
ATOM      5  C   UNL     1       5.628   5.591  17.387  0.00  0.00    +0.000 A 
ATOM      6  C   UNL     1       4.730   6.163  18.305  0.00  0.00    +0.000 A 
ATOM      7  C   UNL     1       3.428   5.671  18.450  0.00  0.00    +0.000 A 
ENDROOT
BRANCH   5   8
ATOM      8  C   UNL     1       7.012   6.149  17.423  0.00  0.00    +0.000 C 
ATOM      9  C   UNL     1       7.839   6.216  18.677  0.00  0.00    +0.000 C 
ATOM     10  O   UNL     1       7.506   6.528  16.358  0.00  0.00    +0.000 OA
ENDBRANCH   5   8
BRANCH   1  11
ATOM     11  N   UNL     1       1.736   4.033  17.774  0.00  0.00    +0.000 N 
ATOM     12  H   UNL     1       1.066   4.724  18.103  0.00  0.00    +0.000 HD
BRANCH  11  13
ATOM     13  C   UNL     1       1.666   2.819  18.596  0.00  0.00    +0.000 C 
BRANCH  13  15
ATOM     14  C   UNL     1       1.610   2.969  21.109  0.00  0.00    +0.000 C 
ATOM     15  C   UNL     1       0.795   3.070  19.828  0.00  0.00    +0.000 C 
ENDBRANCH  13  15
ENDBRANCH  11  13
ENDBRANCH   1  11
BRANCH   7  16
ATOM     16  C   UNL     1       2.570   6.261  19.433  0.00  0.00    +0.000 C 
ATOM     17  N   UNL     1       1.901   6.765  20.233  0.00  0.00    +0.000 NA
ENDBRANCH   7  16
TORSDOF 5
ENDMDL
MODEL 8
REMARK VINA RESULT:      -6.3      2.676      5.334
REMARK  Name = 
REMARK  8 active torsions:
REMARK  status: ('A' for Active; 'I' for Inactive)
REMARK    1  A    between atoms: C_1  and  C_2
REMARK    2  A    between atoms: C_2  and  C_3
REMARK    3  A    between atoms: C_3  and  N_4
REMARK    4  A    between atoms: N_4  and  C_5
REMARK    5  A    between atoms: C_7  and  C_8
REMARK    6  A    between atoms: C_9  and  C_10
REMARK    7  A    between atoms: C_10  and  C_11
REMARK    8  A    between atoms: C_14  and  C_15
REMARK                            x       y       z     vdW  Elec       q    Type
REMARK                         _______ _______ _______ _____ _____    ______ ____
ROOT
ATOM      1  C   UNL     1       5.827   4.667  18.006  0.00  0.00    +0.000 A 
ATOM      2  N   UNL     1       5.594   3.823  19.038  0.00  0.00    +0.000 NA
ATOM      3  C   UNL     1       4.324   3.435  19.366  0.00  0.00    +0.000 A 
ATOM      4  C   UNL     1       4.293   2.440  20.485  0.00  0.00    +0.000 C 
ATOM      5  C   UNL     1       3.216   3.896  18.666  0.00  0.00    +0.000 A 
ATOM      6  C   UNL     1       3.458   4.803  17.619  0.00  0.00    +0.000 A 
ATOM      7  C   UNL     1       4.757   5.207  17.294  0.00  0.00    +0.000 A 
ENDROOT
BRANCH   5   8
ATOM      8  C   UNL     1       1.792   3.475  18.823  0.00  0.00    +0.000 C 
ATOM      9  C   UNL     1       0.960   3.822  20.026  0.00  0.00    +0.000 C 
ATOM     10  O   UNL     1       1.273   2.852  17.893  0.00  0.00    +0.000 OA
ENDBRANCH   5   8
BRANCH   1  11
ATOM     11  N   UNL     1       7.161   5.039  17.741  0.00  0.00    +0.000 N 
ATOM     12  H   UNL     1       7.799   4.258  17.874  0.00  0.00    +0.000 HD
BRANCH  11  13
ATOM     13  C   UNL     1       7.603   6.202  18.519  0.00  0.00    +0.000 C 
BRANCH  13  15
ATOM     14  C   UNL     1       8.374   8.593  18.344  0.00  0.00    +0.000 C 
ATOM     15  C   UNL     1       7.750   7.419  17.604  0.00  0.00    +0.000 C 
ENDBRANCH  13  15
ENDBRANCH  11  13
ENDBRANCH   1  11
BRANCH   7  16
ATOM     16  C   UNL     1       4.950   6.097  16.189  0.00  0.00    +0.000 C 
ATOM     17  N   UNL     1       5.141   6.818  15.304  0.00  0.00    +0.000 NA
ENDBRANCH   7  16
TORSDOF 5
ENDMDL
MODEL 9
REMARK VINA RESULT:      -6.3      2.135      3.029
REMARK  Name = 
REMARK  8 active torsions:
REMARK  status: ('A' for Active; 'I' for Inactive)
REMARK    1  A    between atoms: C_1  and  C_2
REMARK    2  A    between atoms: C_2  and  C_3
REMARK    3  A    between atoms: C_3  and  N_4
REMARK    4  A    between atoms: N_4  and  C_5
REMARK    5  A    between atoms: C_7  and  C_8
REMARK    6  A    between atoms: C_9  and  C_10
REMARK    7  A    between atoms: C_10  and  C_11
REMARK    8  A    between atoms: C_14  and  C_15
REMARK                            x       y       z     vdW  Elec       q    Type
REMARK                         _______ _______ _______ _____ _____    ______ ____
ROOT
ATOM      1  C   UNL     1       2.333   4.512  18.498  0.00  0.00    +0.000 A 
ATOM      2  N   UNL     1       2.270   5.861  18.393  0.00  0.00    +0.000 NA
ATOM      3  C   UNL     1       3.297   6.579  17.843  0.00  0.00    +0.000 A 
ATOM      4  C   UNL     1       2.994   8.043  17.750  0.00  0.00    +0.000 C 
ATOM      5  C   UNL     1       4.453   5.964  17.381  0.00  0.00    +0.000 A 
ATOM      6  C   UNL     1       4.532   4.567  17.527  0.00  0.00    +0.000 A 
ATOM      7  C   UNL     1       3.485   3.837  18.101  0.00  0.00    +0.000 A 
ENDROOT
BRANCH   5   8
ATOM      8  C   UNL     1       5.597   6.590  16.654  0.00  0.00    +0.000 C 
ATOM      9  C   UNL     1       6.903   6.932  17.315  0.00  0.00    +0.000 C 
ATOM     10  O   UNL     1       5.467   6.788  15.443  0.00  0.00    +0.000 OA
ENDBRANCH   5   8
BRANCH   1  11
ATOM     11  N   UNL     1       1.246   3.843  19.095  0.00  0.00    +0.000 N 
ATOM     12  H   UNL     1       0.414   3.888  18.511  0.00  0.00    +0.000 HD
BRANCH  11  13
ATOM     13  C   UNL     1       0.947   4.316  20.451  0.00  0.00    +0.000 C 
BRANCH  13  15
ATOM     14  C   UNL     1       2.125   2.450  21.663  0.00  0.00    +0.000 C 
ATOM     15  C   UNL     1       2.089   3.948  21.398  0.00  0.00    +0.000 C 
ENDBRANCH  13  15
ENDBRANCH  11  13
ENDBRANCH   1  11
BRANCH   7  16
ATOM     16  C   UNL     1       3.599   2.412  18.183  0.00  0.00    +0.000 C 
ATOM     17  N   UNL     1       3.704   1.263  18.283  0.00  0.00    +0.000 NA
ENDBRANCH   7  16
TORSDOF 5
ENDMDL
