MODEL 1
REMARK VINA RESULT:      -7.8      0.000      0.000
REMARK  Name = 
REMARK  4 active torsions:
REMARK  status: ('A' for Active; 'I' for Inactive)
REMARK    1  A    between atoms: N_5  and  C_6
REMARK    2  A    between atoms: C_6  and  C_7
REMARK    3  A    between atoms: C_7  and  C_8
REMARK    4  A    between atoms: N_17  and  C_18
REMARK                            x       y       z     vdW  Elec       q    Type
REMARK                         _______ _______ _______ _____ _____    ______ ____
ROOT
ATOM      1 CL   UNL     1       8.203   5.451  19.288  0.00  0.00    +0.000 Cl
ATOM      2  C   UNL     1       6.892   5.092  18.249  0.00  0.00    +0.000 A 
ATOM      3  N   UNL     1       7.116   5.298  16.941  0.00  0.00    +0.000 NA
ATOM      4  C   UNL     1       6.113   5.036  16.066  0.00  0.00    +0.000 A 
ATOM      5  N   UNL     1       6.280   5.308  14.705  0.00  0.00    +0.000 N 
ATOM      6  C   UNL     1       4.911   4.502  16.587  0.00  0.00    +0.000 A 
ATOM      7  N   UNL     1       3.766   4.042  15.969  0.00  0.00    +0.000 NA
ATOM      8  C   UNL     1       3.012   3.598  16.951  0.00  0.00    +0.000 A 
ATOM      9  N   UNL     1       3.578   3.787  18.200  0.00  0.00    +0.000 N 
ATOM     10  C   UNL     1       4.817   4.352  17.967  0.00  0.00    +0.000 A 
ATOM     11  N   UNL     1       5.786   4.638  18.859  0.00  0.00    +0.000 NA
ATOM     12  H   UNL     1       5.499   4.947  14.163  0.00  0.00    +0.000 HD
ENDROOT
BRANCH   9  13
ATOM     13  C   UNL     1       2.994   3.447  19.453  0.00  0.00    +0.000 A 
ATOM     14  C   UNL     1       1.787   4.035  19.851  0.00  0.00    +0.000 A 
ATOM     15  C   UNL     1       1.200   3.678  21.070  0.00  0.00    +0.000 A 
ATOM     16  C   UNL     1       1.833   2.764  21.911  0.00  0.00    +0.000 A 
ATOM     17  C   UNL     1       3.048   2.194  21.529  0.00  0.00    +0.000 A 
ATOM     18  C   UNL     1       3.619   2.520  20.298  0.00  0.00    +0.000 A 
ENDBRANCH   9  13
BRANCH   5  19
ATOM     19  C   UNL     1       7.616   5.035  14.173  0.00  0.00    +0.000 C 
BRANCH  19  20
ATOM     20  C   UNL     1       7.568   4.994  12.639  0.00  0.00    +0.000 C 
BRANCH  20  21
ATOM     21  C   UNL     1       6.935   3.734  12.098  0.00  0.00    +0.000 A 
ATOM     22  C   UNL     1       5.542   3.583  12.081  0.00  0.00    +0.000 A 
ATOM     23  C   UNL     1       4.961   2.421  11.569  0.00  0.00    +0.000 A 
ATOM     24  C   UNL     1       5.765   1.397  11.074  0.00  0.00    +0.000 A 
ATOM     25  C   UNL     1       7.152   1.532  11.094  0.00  0.00    +0.000 A 
ATOM     26  C   UNL     1       7.735   2.693  11.606  0.00  0.00    +0.000 A 
ENDBRANCH  20  21
ENDBRANCH  19  20
ENDBRANCH   5  19
TORSDOF 4
ENDMDL
MODEL 2
REMARK VINA RESULT:      -7.8      4.141      5.226
REMARK  Name = 
REMARK  4 active torsions:
REMARK  status: ('A' for Active; 'I' for Inactive)
REMARK    1  A    between atoms: N_5  and  C_6
REMARK    2  A    between atoms: C_6  and  C_7
REMARK    3  A    between atoms: C_7  and  C_8
REMARK    4  A    between atoms: N_17  and  C_18
REMARK                            x       y       z     vdW  Elec       q    Type
REMARK                         _______ _______ _______ _____ _____    ______ ____
ROOT
ATOM      1 CL   UNL     1       2.167   3.869  21.324  0.00  0.00    +0.000 Cl
ATOM      2  C   UNL     1       2.421   5.174  20.247  0.00  0.00    +0.000 A 
ATOM      3  N   UNL     1       3.149   4.890  19.155  0.00  0.00    +0.000 NA
ATOM      4  C   UNL     1       3.389   5.885  18.264  0.00  0.00    +0.000 A 
ATOM      5  N   UNL     1       4.204   5.650  17.153  0.00  0.00    +0.000 N 
ATOM      6  C   UNL     1       2.802   7.147  18.516  0.00  0.00    +0.000 A 
ATOM      7  N   UNL     1       2.766   8.310  17.773  0.00  0.00    +0.000 NA
ATOM      8  C   UNL     1       2.017   9.132  18.474  0.00  0.00    +0.000 A 
ATOM      9  N   UNL     1       1.592   8.591  19.676  0.00  0.00    +0.000 N 
ATOM     10  C   UNL     1       2.080   7.298  19.696  0.00  0.00    +0.000 A 
ATOM     11  N   UNL     1       1.857   6.335  20.613  0.00  0.00    +0.000 NA
ATOM     12  H   UNL     1       4.190   6.444  16.517  0.00  0.00    +0.000 HD
ENDROOT
BRANCH   9  13
ATOM     13  C   UNL     1       0.803   9.243  20.665  0.00  0.00    +0.000 A 
ATOM     14  C   UNL     1      -0.096  10.252  20.298  0.00  0.00    +0.000 A 
ATOM     15  C   UNL     1      -0.892  10.870  21.269  0.00  0.00    +0.000 A 
ATOM     16  C   UNL     1      -0.765  10.514  22.609  0.00  0.00    +0.000 A 
ATOM     17  C   UNL     1       0.147   9.526  22.983  0.00  0.00    +0.000 A 
ATOM     18  C   UNL     1       0.917   8.880  22.014  0.00  0.00    +0.000 A 
ENDBRANCH   9  13
BRANCH   5  19
ATOM     19  C   UNL     1       4.060   4.329  16.540  0.00  0.00    +0.000 C 
BRANCH  19  20
ATOM     20  C   UNL     1       5.443   3.703  16.318  0.00  0.00    +0.000 C 
BRANCH  20  21
ATOM     21  C   UNL     1       6.020   4.000  14.954  0.00  0.00    +0.000 A 
ATOM     22  C   UNL     1       7.117   4.860  14.813  0.00  0.00    +0.000 A 
ATOM     23  C   UNL     1       7.653   5.123  13.550  0.00  0.00    +0.000 A 
ATOM     24  C   UNL     1       7.096   4.534  12.417  0.00  0.00    +0.000 A 
ATOM     25  C   UNL     1       5.999   3.684  12.545  0.00  0.00    +0.000 A 
ATOM     26  C   UNL     1       5.461   3.420  13.806  0.00  0.00    +0.000 A 
ENDBRANCH  20  21
ENDBRANCH  19  20
ENDBRANCH   5  19
TORSDOF 4
ENDMDL
MODEL 3
REMARK VINA RESULT:      -7.8      4.340      5.390
REMARK  Name = 
REMARK  4 active torsions:
REMARK  status: ('A' for Active; 'I' for Inactive)
REMARK    1  A    between atoms: N_5  and  C_6
REMARK    2  A    between atoms: C_6  and  C_7
REMARK    3  A    between atoms: C_7  and  C_8
REMARK    4  A    between atoms: N_17  and  C_18
REMARK                            x       y       z     vdW  Elec       q    Type
REMARK                         _______ _______ _______ _____ _____    ______ ____
ROOT
ATOM      1 CL   UNL     1       2.334   4.406  21.263  0.00  0.00    +0.000 Cl
ATOM      2  C   UNL     1       2.538   5.634  20.090  0.00  0.00    +0.000 A 
ATOM      3  N   UNL     1       3.300   5.306  19.033  0.00  0.00    +0.000 NA
ATOM      4  C   UNL     1       3.503   6.240  18.070  0.00  0.00    +0.000 A 
ATOM      5  N   UNL     1       4.350   5.962  16.993  0.00  0.00    +0.000 N 
ATOM      6  C   UNL     1       2.846   7.484  18.214  0.00  0.00    +0.000 A 
ATOM      7  N   UNL     1       2.763   8.581  17.380  0.00  0.00    +0.000 NA
ATOM      8  C   UNL     1       1.959   9.414  18.004  0.00  0.00    +0.000 A 
ATOM      9  N   UNL     1       1.542   8.947  19.238  0.00  0.00    +0.000 N 
ATOM     10  C   UNL     1       2.096   7.688  19.368  0.00  0.00    +0.000 A 
ATOM     11  N   UNL     1       1.908   6.789  20.355  0.00  0.00    +0.000 NA
ATOM     12  H   UNL     1       4.305   6.702  16.296  0.00  0.00    +0.000 HD
ENDROOT
BRANCH   9  13
ATOM     13  C   UNL     1       0.702   9.631  20.162  0.00  0.00    +0.000 A 
ATOM     14  C   UNL     1       0.772   9.339  21.530  0.00  0.00    +0.000 A 
ATOM     15  C   UNL     1      -0.034  10.034  22.438  0.00  0.00    +0.000 A 
ATOM     16  C   UNL     1      -0.937  10.992  21.983  0.00  0.00    +0.000 A 
ATOM     17  C   UNL     1      -1.027  11.269  20.618  0.00  0.00    +0.000 A 
ATOM     18  C   UNL     1      -0.200  10.605  19.711  0.00  0.00    +0.000 A 
ENDBRANCH   9  13
BRANCH   5  19
ATOM     19  C   UNL     1       4.287   4.592  16.484  0.00  0.00    +0.000 C 
BRANCH  19  20
ATOM     20  C   UNL     1       5.705   4.056  16.250  0.00  0.00    +0.000 C 
BRANCH  20  21
ATOM     21  C   UNL     1       6.152   4.162  14.812  0.00  0.00    +0.000 A 
ATOM     22  C   UNL     1       7.235   4.978  14.457  0.00  0.00    +0.000 A 
ATOM     23  C   UNL     1       7.652   5.065  13.127  0.00  0.00    +0.000 A 
ATOM     24  C   UNL     1       6.988   4.342  12.138  0.00  0.00    +0.000 A 
ATOM     25  C   UNL     1       5.904   3.535  12.477  0.00  0.00    +0.000 A 
ATOM     26  C   UNL     1       5.486   3.448  13.806  0.00  0.00    +0.000 A 
ENDBRANCH  20  21
ENDBRANCH  19  20
ENDBRANCH   5  19
TORSDOF 4
ENDMDL
MODEL 4
REMARK VINA RESULT:      -7.8      4.380      6.779
REMARK  Name = 
REMARK  4 active torsions:
REMARK  status: ('A' for Active; 'I' for Inactive)
REMARK    1  A    between atoms: N_5  and  C_6
REMARK    2  A    between atoms: C_6  and  C_7
REMARK    3  A    between atoms: C_7  and  C_8
REMARK    4  A    between atoms: N_17  and  C_18
REMARK                            x       y       z     vdW  Elec       q    Type
REMARK                         _______ _______ _______ _____ _____    ______ ____
ROOT
ATOM      1 CL   UNL     1       2.505   8.865  17.419  0.00  0.00    +0.000 Cl
ATOM      2  C   UNL     1       3.671   7.639  17.674  0.00  0.00    +0.000 A 
ATOM      3  N   UNL     1       4.939   7.976  17.386  0.00  0.00    +0.000 NA
ATOM      4  C   UNL     1       5.909   7.045  17.564  0.00  0.00    +0.000 A 
ATOM      5  N   UNL     1       7.230   7.331  17.205  0.00  0.00    +0.000 N 
ATOM      6  C   UNL     1       5.527   5.793  18.102  0.00  0.00    +0.000 A 
ATOM      7  N   UNL     1       6.268   4.696  18.491  0.00  0.00    +0.000 NA
ATOM      8  C   UNL     1       5.384   3.854  18.981  0.00  0.00    +0.000 A 
ATOM      9  N   UNL     1       4.083   4.316  18.891  0.00  0.00    +0.000 N 
ATOM     10  C   UNL     1       4.173   5.582  18.342  0.00  0.00    +0.000 A 
ATOM     11  N   UNL     1       3.186   6.478  18.141  0.00  0.00    +0.000 NA
ATOM     12  H   UNL     1       7.858   6.592  17.510  0.00  0.00    +0.000 HD
ENDROOT
BRANCH   9  13
ATOM     13  C   UNL     1       2.908   3.623  19.299  0.00  0.00    +0.000 A 
ATOM     14  C   UNL     1       2.075   3.025  18.346  0.00  0.00    +0.000 A 
ATOM     15  C   UNL     1       0.937   2.319  18.753  0.00  0.00    +0.000 A 
ATOM     16  C   UNL     1       0.607   2.240  20.104  0.00  0.00    +0.000 A 
ATOM     17  C   UNL     1       1.422   2.855  21.055  0.00  0.00    +0.000 A 
ATOM     18  C   UNL     1       2.578   3.529  20.658  0.00  0.00    +0.000 A 
ENDBRANCH   9  13
BRANCH   5  19
ATOM     19  C   UNL     1       7.668   8.701  17.475  0.00  0.00    +0.000 C 
BRANCH  19  20
ATOM     20  C   UNL     1       8.618   8.718  18.680  0.00  0.00    +0.000 C 
BRANCH  20  21
ATOM     21  C   UNL     1       9.193  10.085  18.965  0.00  0.00    +0.000 A 
ATOM     22  C   UNL     1       9.404  10.512  20.283  0.00  0.00    +0.000 A 
ATOM     23  C   UNL     1       9.947  11.773  20.541  0.00  0.00    +0.000 A 
ATOM     24  C   UNL     1      10.279  12.621  19.486  0.00  0.00    +0.000 A 
ATOM     25  C   UNL     1      10.065  12.210  18.173  0.00  0.00    +0.000 A 
ATOM     26  C   UNL     1       9.522  10.951  17.912  0.00  0.00    +0.000 A 
ENDBRANCH  20  21
ENDBRANCH  19  20
ENDBRANCH   5  19
TORSDOF 4
ENDMDL
MODEL 5
REMARK VINA RESULT:      -7.5      8.447     10.385
REMARK  Name = 
REMARK  4 active torsions:
REMARK  status: ('A' for Active; 'I' for Inactive)
REMARK    1  A    between atoms: N_5  and  C_6
REMARK    2  A    between atoms: C_6  and  C_7
REMARK    3  A    between atoms: C_7  and  C_8
REMARK    4  A    between atoms: N_17  and  C_18
REMARK                            x       y       z     vdW  Elec       q    Type
REMARK                         _______ _______ _______ _____ _____    ______ ____
ROOT
ATOM      1 CL   UNL     1      -0.934  12.565  21.635  0.00  0.00    +0.000 Cl
ATOM      2  C   UNL     1      -1.234  11.816  20.126  0.00  0.00    +0.000 A 
ATOM      3  N   UNL     1      -0.198  11.147  19.595  0.00  0.00    +0.000 NA
ATOM      4  C   UNL     1      -0.373  10.535  18.397  0.00  0.00    +0.000 A 
ATOM      5  N   UNL     1       0.702   9.892  17.775  0.00  0.00    +0.000 N 
ATOM      6  C   UNL     1      -1.660  10.592  17.812  0.00  0.00    +0.000 A 
ATOM      7  N   UNL     1      -2.182  10.002  16.679  0.00  0.00    +0.000 NA
ATOM      8  C   UNL     1      -3.449  10.354  16.672  0.00  0.00    +0.000 A 
ATOM      9  N   UNL     1      -3.786  11.194  17.719  0.00  0.00    +0.000 N 
ATOM     10  C   UNL     1      -2.635  11.333  18.472  0.00  0.00    +0.000 A 
ATOM     11  N   UNL     1      -2.476  11.978  19.645  0.00  0.00    +0.000 NA
ATOM     12  H   UNL     1       0.392   9.378  16.953  0.00  0.00    +0.000 HD
ENDROOT
BRANCH   9  13
ATOM     13  C   UNL     1      -5.064  11.772  17.962  0.00  0.00    +0.000 A 
ATOM     14  C   UNL     1      -5.658  11.665  19.226  0.00  0.00    +0.000 A 
ATOM     15  C   UNL     1      -6.901  12.260  19.469  0.00  0.00    +0.000 A 
ATOM     16  C   UNL     1      -7.571  12.928  18.447  0.00  0.00    +0.000 A 
ATOM     17  C   UNL     1      -6.993  13.016  17.179  0.00  0.00    +0.000 A 
ATOM     18  C   UNL     1      -5.737  12.456  16.940  0.00  0.00    +0.000 A 
ENDBRANCH   9  13
BRANCH   5  19
ATOM     19  C   UNL     1       1.611   9.181  18.674  0.00  0.00    +0.000 C 
BRANCH  19  20
ATOM     20  C   UNL     1       2.584   8.319  17.859  0.00  0.00    +0.000 C 
BRANCH  20  21
ATOM     21  C   UNL     1       2.812   6.951  18.458  0.00  0.00    +0.000 A 
ATOM     22  C   UNL     1       2.289   6.625  19.717  0.00  0.00    +0.000 A 
ATOM     23  C   UNL     1       2.493   5.355  20.261  0.00  0.00    +0.000 A 
ATOM     24  C   UNL     1       3.225   4.401  19.557  0.00  0.00    +0.000 A 
ATOM     25  C   UNL     1       3.758   4.718  18.309  0.00  0.00    +0.000 A 
ATOM     26  C   UNL     1       3.556   5.987  17.763  0.00  0.00    +0.000 A 
ENDBRANCH  20  21
ENDBRANCH  19  20
ENDBRANCH   5  19
TORSDOF 4
ENDMDL
MODEL 6
REMARK VINA RESULT:      -7.5      7.244      9.426
REMARK  Name = 
REMARK  4 active torsions:
REMARK  status: ('A' for Active; 'I' for Inactive)
REMARK    1  A    between atoms: N_5  and  C_6
REMARK    2  A    between atoms: C_6  and  C_7
REMARK    3  A    between atoms: C_7  and  C_8
REMARK    4  A    between atoms: N_17  and  C_18
REMARK                            x       y       z     vdW  Elec       q    Type
REMARK                         _______ _______ _______ _____ _____    ______ ____
ROOT
ATOM      1 CL   UNL     1       0.287   9.518  23.457  0.00  0.00    +0.000 Cl
ATOM      2  C   UNL     1       0.183   9.731  21.762  0.00  0.00    +0.000 A 
ATOM      3  N   UNL     1       1.083   9.048  21.036  0.00  0.00    +0.000 NA
ATOM      4  C   UNL     1       1.055   9.179  19.686  0.00  0.00    +0.000 A 
ATOM      5  N   UNL     1       2.021   8.543  18.900  0.00  0.00    +0.000 N 
ATOM      6  C   UNL     1       0.036   9.984  19.125  0.00  0.00    +0.000 A 
ATOM      7  N   UNL     1      -0.323  10.233  17.816  0.00  0.00    +0.000 NA
ATOM      8  C   UNL     1      -1.389  10.999  17.903  0.00  0.00    +0.000 A 
ATOM      9  N   UNL     1      -1.728  11.316  19.207  0.00  0.00    +0.000 N 
ATOM     10  C   UNL     1      -0.821  10.641  20.003  0.00  0.00    +0.000 A 
ATOM     11  N   UNL     1      -0.791  10.555  21.348  0.00  0.00    +0.000 NA
ATOM     12  H   UNL     1       1.800   8.630  17.911  0.00  0.00    +0.000 HD
ENDROOT
BRANCH   9  13
ATOM     13  C   UNL     1      -2.803  12.152  19.623  0.00  0.00    +0.000 A 
ATOM     14  C   UNL     1      -4.081  11.979  19.078  0.00  0.00    +0.000 A 
ATOM     15  C   UNL     1      -5.142  12.783  19.510  0.00  0.00    +0.000 A 
ATOM     16  C   UNL     1      -4.924  13.783  20.455  0.00  0.00    +0.000 A 
ATOM     17  C   UNL     1      -3.646  13.974  20.982  0.00  0.00    +0.000 A 
ATOM     18  C   UNL     1      -2.592  13.152  20.582  0.00  0.00    +0.000 A 
ENDBRANCH   9  13
BRANCH   5  19
ATOM     19  C   UNL     1       2.423   7.213  19.357  0.00  0.00    +0.000 C 
BRANCH  19  20
ATOM     20  C   UNL     1       2.409   6.230  18.178  0.00  0.00    +0.000 C 
BRANCH  20  21
ATOM     21  C   UNL     1       2.049   4.820  18.583  0.00  0.00    +0.000 A 
ATOM     22  C   UNL     1       2.231   3.752  17.695  0.00  0.00    +0.000 A 
ATOM     23  C   UNL     1       1.907   2.448  18.079  0.00  0.00    +0.000 A 
ATOM     24  C   UNL     1       1.393   2.200  19.349  0.00  0.00    +0.000 A 
ATOM     25  C   UNL     1       1.199   3.256  20.237  0.00  0.00    +0.000 A 
ATOM     26  C   UNL     1       1.522   4.560  19.856  0.00  0.00    +0.000 A 
ENDBRANCH  20  21
ENDBRANCH  19  20
ENDBRANCH   5  19
TORSDOF 4
ENDMDL
MODEL 7
REMARK VINA RESULT:      -7.4      7.998     10.075
REMARK  Name = 
REMARK  4 active torsions:
REMARK  status: ('A' for Active; 'I' for Inactive)
REMARK    1  A    between atoms: N_5  and  C_6
REMARK    2  A    between atoms: C_6  and  C_7
REMARK    3  A    between atoms: C_7  and  C_8
REMARK    4  A    between atoms: N_17  and  C_18
REMARK                            x       y       z     vdW  Elec       q    Type
REMARK                         _______ _______ _______ _____ _____    ______ ____
ROOT
ATOM      1 CL   UNL     1      -0.231  12.082  21.900  0.00  0.00    +0.000 Cl
ATOM      2  C   UNL     1      -0.633  11.448  20.362  0.00  0.00    +0.000 A 
ATOM      3  N   UNL     1       0.367  10.832  19.710  0.00  0.00    +0.000 NA
ATOM      4  C   UNL     1       0.112  10.312  18.483  0.00  0.00    +0.000 A 
ATOM      5  N   UNL     1       1.143   9.730  17.740  0.00  0.00    +0.000 N 
ATOM      6  C   UNL     1      -1.213  10.400  17.995  0.00  0.00    +0.000 A 
ATOM      7  N   UNL     1      -1.810   9.892  16.860  0.00  0.00    +0.000 NA
ATOM      8  C   UNL     1      -3.076  10.231  16.968  0.00  0.00    +0.000 A 
ATOM      9  N   UNL     1      -3.344  10.984  18.098  0.00  0.00    +0.000 N 
ATOM     10  C   UNL     1      -2.144  11.077  18.778  0.00  0.00    +0.000 A 
ATOM     11  N   UNL     1      -1.907  11.633  19.983  0.00  0.00    +0.000 NA
ATOM     12  H   UNL     1       0.779   9.278  16.906  0.00  0.00    +0.000 HD
ENDROOT
BRANCH   9  13
ATOM     13  C   UNL     1      -4.605  11.528  18.473  0.00  0.00    +0.000 A 
ATOM     14  C   UNL     1      -4.678  12.535  19.444  0.00  0.00    +0.000 A 
ATOM     15  C   UNL     1      -5.916  13.088  19.789  0.00  0.00    +0.000 A 
ATOM     16  C   UNL     1      -7.085  12.614  19.197  0.00  0.00    +0.000 A 
ATOM     17  C   UNL     1      -7.019  11.595  18.246  0.00  0.00    +0.000 A 
ATOM     18  C   UNL     1      -5.783  11.065  17.871  0.00  0.00    +0.000 A 
ENDBRANCH   9  13
BRANCH   5  19
ATOM     19  C   UNL     1       2.117   8.963  18.518  0.00  0.00    +0.000 C 
BRANCH  19  20
ATOM     20  C   UNL     1       2.494   7.681  17.762  0.00  0.00    +0.000 C 
BRANCH  20  21
ATOM     21  C   UNL     1       2.246   6.424  18.563  0.00  0.00    +0.000 A 
ATOM     22  C   UNL     1       2.113   6.479  19.957  0.00  0.00    +0.000 A 
ATOM     23  C   UNL     1       1.872   5.315  20.692  0.00  0.00    +0.000 A 
ATOM     24  C   UNL     1       1.769   4.087  20.043  0.00  0.00    +0.000 A 
ATOM     25  C   UNL     1       1.910   4.020  18.659  0.00  0.00    +0.000 A 
ATOM     26  C   UNL     1       2.150   5.181  17.922  0.00  0.00    +0.000 A 
ENDBRANCH  20  21
ENDBRANCH  19  20
ENDBRANCH   5  19
TORSDOF 4
ENDMDL
MODEL 8
REMARK VINA RESULT:      -7.2      5.606     10.052
REMARK  Name = 
REMARK  4 active torsions:
REMARK  status: ('A' for Active; 'I' for Inactive)
REMARK    1  A    between atoms: N_5  and  C_6
REMARK    2  A    between atoms: C_6  and  C_7
REMARK    3  A    between atoms: C_7  and  C_8
REMARK    4  A    between atoms: N_17  and  C_18
REMARK                            x       y       z     vdW  Elec       q    Type
REMARK                         _______ _______ _______ _____ _____    ______ ____
ROOT
ATOM      1 CL   UNL     1       1.882  10.391  17.553  0.00  0.00    +0.000 Cl
ATOM      2  C   UNL     1       2.084   8.964  18.476  0.00  0.00    +0.000 A 
ATOM      3  N   UNL     1       1.461   8.950  19.666  0.00  0.00    +0.000 NA
ATOM      4  C   UNL     1       1.587   7.847  20.446  0.00  0.00    +0.000 A 
ATOM      5  N   UNL     1       1.017   7.823  21.722  0.00  0.00    +0.000 N 
ATOM      6  C   UNL     1       2.320   6.755  19.926  0.00  0.00    +0.000 A 
ATOM      7  N   UNL     1       2.542   5.482  20.411  0.00  0.00    +0.000 NA
ATOM      8  C   UNL     1       3.235   4.882  19.468  0.00  0.00    +0.000 A 
ATOM      9  N   UNL     1       3.530   5.709  18.398  0.00  0.00    +0.000 N 
ATOM     10  C   UNL     1       2.920   6.917  18.680  0.00  0.00    +0.000 A 
ATOM     11  N   UNL     1       2.839   8.014  17.902  0.00  0.00    +0.000 NA
ATOM     12  H   UNL     1       1.086   6.896  22.134  0.00  0.00    +0.000 HD
ENDROOT
BRANCH   9  13
ATOM     13  C   UNL     1       4.292   5.363  17.246  0.00  0.00    +0.000 A 
ATOM     14  C   UNL     1       4.823   6.365  16.425  0.00  0.00    +0.000 A 
ATOM     15  C   UNL     1       5.596   6.022  15.310  0.00  0.00    +0.000 A 
ATOM     16  C   UNL     1       5.810   4.683  14.990  0.00  0.00    +0.000 A 
ATOM     17  C   UNL     1       5.262   3.681  15.793  0.00  0.00    +0.000 A 
ATOM     18  C   UNL     1       4.520   4.017  16.927  0.00  0.00    +0.000 A 
ENDBRANCH   9  13
BRANCH   5  19
ATOM     19  C   UNL     1      -0.282   8.485  21.840  0.00  0.00    +0.000 C 
BRANCH  19  20
ATOM     20  C   UNL     1      -0.251   9.495  22.995  0.00  0.00    +0.000 C 
BRANCH  20  21
ATOM     21  C   UNL     1      -0.729  10.871  22.595  0.00  0.00    +0.000 A 
ATOM     22  C   UNL     1      -0.080  11.586  21.578  0.00  0.00    +0.000 A 
ATOM     23  C   UNL     1      -0.532  12.854  21.204  0.00  0.00    +0.000 A 
ATOM     24  C   UNL     1      -1.631  13.422  21.845  0.00  0.00    +0.000 A 
ATOM     25  C   UNL     1      -2.278  12.724  22.863  0.00  0.00    +0.000 A 
ATOM     26  C   UNL     1      -1.828  11.457  23.239  0.00  0.00    +0.000 A 
ENDBRANCH  20  21
ENDBRANCH  19  20
ENDBRANCH   5  19
TORSDOF 4
ENDMDL
MODEL 9
REMARK VINA RESULT:      -7.2      6.548      9.296
REMARK  Name = 
REMARK  4 active torsions:
REMARK  status: ('A' for Active; 'I' for Inactive)
REMARK    1  A    between atoms: N_5  and  C_6
REMARK    2  A    between atoms: C_6  and  C_7
REMARK    3  A    between atoms: C_7  and  C_8
REMARK    4  A    between atoms: N_17  and  C_18
REMARK                            x       y       z     vdW  Elec       q    Type
REMARK                         _______ _______ _______ _____ _____    ______ ____
ROOT
ATOM      1 CL   UNL     1       0.089   9.293  22.752  0.00  0.00    +0.000 Cl
ATOM      2  C   UNL     1       0.802   9.001  21.224  0.00  0.00    +0.000 A 
ATOM      3  N   UNL     1       0.868  10.063  20.403  0.00  0.00    +0.000 NA
ATOM      4  C   UNL     1       1.418   9.894  19.175  0.00  0.00    +0.000 A 
ATOM      5  N   UNL     1       1.438  10.954  18.264  0.00  0.00    +0.000 N 
ATOM      6  C   UNL     1       1.944   8.619  18.861  0.00  0.00    +0.000 A 
ATOM      7  N   UNL     1       2.645   8.158  17.765  0.00  0.00    +0.000 NA
ATOM      8  C   UNL     1       2.936   6.909  18.056  0.00  0.00    +0.000 A 
ATOM      9  N   UNL     1       2.419   6.498  19.272  0.00  0.00    +0.000 N 
ATOM     10  C   UNL     1       1.795   7.609  19.807  0.00  0.00    +0.000 A 
ATOM     11  N   UNL     1       1.221   7.743  21.019  0.00  0.00    +0.000 NA
ATOM     12  H   UNL     1       1.988  10.717  17.442  0.00  0.00    +0.000 HD
ENDROOT
BRANCH   9  13
ATOM     13  C   UNL     1       2.531   5.199  19.844  0.00  0.00    +0.000 A 
ATOM     14  C   UNL     1       1.506   4.694  20.653  0.00  0.00    +0.000 A 
ATOM     15  C   UNL     1       1.607   3.406  21.190  0.00  0.00    +0.000 A 
ATOM     16  C   UNL     1       2.742   2.634  20.953  0.00  0.00    +0.000 A 
ATOM     17  C   UNL     1       3.777   3.143  20.166  0.00  0.00    +0.000 A 
ATOM     18  C   UNL     1       3.666   4.414  19.598  0.00  0.00    +0.000 A 
ENDBRANCH   9  13
BRANCH   5  19
ATOM     19  C   UNL     1       1.683  12.274  18.846  0.00  0.00    +0.000 C 
BRANCH  19  20
ATOM     20  C   UNL     1       0.615  13.265  18.362  0.00  0.00    +0.000 C 
BRANCH  20  21
ATOM     21  C   UNL     1      -0.777  12.915  18.831  0.00  0.00    +0.000 A 
ATOM     22  C   UNL     1      -1.612  12.104  18.051  0.00  0.00    +0.000 A 
ATOM     23  C   UNL     1      -2.895  11.774  18.494  0.00  0.00    +0.000 A 
ATOM     24  C   UNL     1      -3.358  12.255  19.717  0.00  0.00    +0.000 A 
ATOM     25  C   UNL     1      -2.539  13.069  20.496  0.00  0.00    +0.000 A 
ATOM     26  C   UNL     1      -1.257  13.401  20.055  0.00  0.00    +0.000 A 
ENDBRANCH  20  21
ENDBRANCH  19  20
ENDBRANCH   5  19
TORSDOF 4
ENDMDL
