MODEL 1
REMARK VINA RESULT:      -7.9      0.000      0.000
REMARK  Name = 
REMARK  2 active torsions:
REMARK  status: ('A' for Active; 'I' for Inactive)
REMARK    1  A    between atoms: C_2  and  C_13
REMARK    2  A    between atoms: N_3  and  C_4
REMARK                            x       y       z     vdW  Elec       q    Type
REMARK                         _______ _______ _______ _____ _____    ______ ____
ROOT
ATOM      1  O   UNL     1       5.114   5.156  18.790  0.00  0.00    +0.000 OA
ATOM      2  C   UNL     1       4.773   4.427  17.862  0.00  0.00    +0.000 C 
ATOM      3  N   UNL     1       3.790   3.452  17.934  0.00  0.00    +0.000 N 
ATOM      4  H   UNL     1       3.960   2.624  17.373  0.00  0.00    +0.000 HD
ENDROOT
BRANCH   3   5
ATOM      5  C   UNL     1       3.059   3.263  19.132  0.00  0.00    +0.000 A 
ATOM      6  C   UNL     1       3.583   2.571  20.232  0.00  0.00    +0.000 A 
ATOM      7  F   UNL     1       4.860   2.171  20.241  0.00  0.00    +0.000 F 
ATOM      8  C   UNL     1       2.814   2.353  21.371  0.00  0.00    +0.000 A 
ATOM      9  C   UNL     1       1.507   2.820  21.403  0.00  0.00    +0.000 A 
ATOM     10  F   UNL     1       0.752   2.591  22.486  0.00  0.00    +0.000 F 
ATOM     11  C   UNL     1       0.970   3.532  20.335  0.00  0.00    +0.000 A 
ATOM     12  C   UNL     1       1.762   3.768  19.219  0.00  0.00    +0.000 A 
ATOM     13  F   UNL     1       1.241   4.443  18.179  0.00  0.00    +0.000 F 
ENDBRANCH   3   5
BRANCH   2  14
ATOM     14  C   UNL     1       5.526   4.495  16.588  0.00  0.00    +0.000 A 
ATOM     15  C   UNL     1       6.840   4.983  16.612  0.00  0.00    +0.000 A 
ATOM     16  C   UNL     1       7.553   5.127  15.421  0.00  0.00    +0.000 A 
ATOM     17  C   UNL     1       6.943   4.793  14.217  0.00  0.00    +0.000 A 
ATOM     18  F   UNL     1       7.617   4.958  13.069  0.00  0.00    +0.000 F 
ATOM     19  C   UNL     1       5.640   4.302  14.182  0.00  0.00    +0.000 A 
ATOM     20  C   UNL     1       4.925   4.145  15.372  0.00  0.00    +0.000 A 
ENDBRANCH   2  14
TORSDOF 2
ENDMDL
MODEL 2
REMARK VINA RESULT:      -7.8      0.367      1.927
REMARK  Name = 
REMARK  2 active torsions:
REMARK  status: ('A' for Active; 'I' for Inactive)
REMARK    1  A    between atoms: C_2  and  C_13
REMARK    2  A    between atoms: N_3  and  C_4
REMARK                            x       y       z     vdW  Elec       q    Type
REMARK                         _______ _______ _______ _____ _____    ______ ____
ROOT
ATOM      1  O   UNL     1       4.727   5.288  18.359  0.00  0.00    +0.000 OA
ATOM      2  C   UNL     1       4.592   4.415  17.505  0.00  0.00    +0.000 C 
ATOM      3  N   UNL     1       3.779   3.300  17.627  0.00  0.00    +0.000 N 
ATOM      4  H   UNL     1       4.130   2.458  17.182  0.00  0.00    +0.000 HD
ENDROOT
BRANCH   3   5
ATOM      5  C   UNL     1       2.988   3.117  18.787  0.00  0.00    +0.000 A 
ATOM      6  C   UNL     1       1.652   3.530  18.860  0.00  0.00    +0.000 A 
ATOM      7  F   UNL     1       1.023   4.002  17.776  0.00  0.00    +0.000 F 
ATOM      8  C   UNL     1       0.922   3.387  20.036  0.00  0.00    +0.000 A 
ATOM      9  C   UNL     1       1.540   2.837  21.151  0.00  0.00    +0.000 A 
ATOM     10  F   UNL     1       0.852   2.721  22.295  0.00  0.00    +0.000 F 
ATOM     11  C   UNL     1       2.858   2.395  21.100  0.00  0.00    +0.000 A 
ATOM     12  C   UNL     1       3.562   2.517  19.908  0.00  0.00    +0.000 A 
ATOM     13  F   UNL     1       4.840   2.104  19.859  0.00  0.00    +0.000 F 
ENDBRANCH   3   5
BRANCH   2  14
ATOM     14  C   UNL     1       5.431   4.476  16.286  0.00  0.00    +0.000 A 
ATOM     15  C   UNL     1       6.680   5.107  16.362  0.00  0.00    +0.000 A 
ATOM     16  C   UNL     1       7.466   5.244  15.217  0.00  0.00    +0.000 A 
ATOM     17  C   UNL     1       6.991   4.759  14.004  0.00  0.00    +0.000 A 
ATOM     18  F   UNL     1       7.731   4.915  12.897  0.00  0.00    +0.000 F 
ATOM     19  C   UNL     1       5.753   4.126  13.916  0.00  0.00    +0.000 A 
ATOM     20  C   UNL     1       4.968   3.976  15.061  0.00  0.00    +0.000 A 
ENDBRANCH   2  14
TORSDOF 2
ENDMDL
MODEL 3
REMARK VINA RESULT:      -7.8      0.248      2.206
REMARK  Name = 
REMARK  2 active torsions:
REMARK  status: ('A' for Active; 'I' for Inactive)
REMARK    1  A    between atoms: C_2  and  C_13
REMARK    2  A    between atoms: N_3  and  C_4
REMARK                            x       y       z     vdW  Elec       q    Type
REMARK                         _______ _______ _______ _____ _____    ______ ____
ROOT
ATOM      1  O   UNL     1       4.750   5.433  18.722  0.00  0.00    +0.000 OA
ATOM      2  C   UNL     1       4.600   4.630  17.804  0.00  0.00    +0.000 C 
ATOM      3  N   UNL     1       3.775   3.517  17.846  0.00  0.00    +0.000 N 
ATOM      4  H   UNL     1       4.114   2.708  17.335  0.00  0.00    +0.000 HD
ENDROOT
BRANCH   3   5
ATOM      5  C   UNL     1       2.987   3.255  18.993  0.00  0.00    +0.000 A 
ATOM      6  C   UNL     1       1.652   3.661  19.098  0.00  0.00    +0.000 A 
ATOM      7  F   UNL     1       1.020   4.207  18.051  0.00  0.00    +0.000 F 
ATOM      8  C   UNL     1       0.926   3.438  20.263  0.00  0.00    +0.000 A 
ATOM      9  C   UNL     1       1.547   2.813  21.336  0.00  0.00    +0.000 A 
ATOM     10  F   UNL     1       0.863   2.618  22.472  0.00  0.00    +0.000 F 
ATOM     11  C   UNL     1       2.865   2.376  21.251  0.00  0.00    +0.000 A 
ATOM     12  C   UNL     1       3.565   2.579  20.068  0.00  0.00    +0.000 A 
ATOM     13  F   UNL     1       4.843   2.172  19.987  0.00  0.00    +0.000 F 
ENDBRANCH   3   5
BRANCH   2  14
ATOM     14  C   UNL     1       5.434   4.775  16.589  0.00  0.00    +0.000 A 
ATOM     15  C   UNL     1       4.986   4.191  15.395  0.00  0.00    +0.000 A 
ATOM     16  C   UNL     1       5.780   4.248  14.249  0.00  0.00    +0.000 A 
ATOM     17  C   UNL     1       7.018   4.878  14.308  0.00  0.00    +0.000 A 
ATOM     18  F   UNL     1       7.794   4.909  13.215  0.00  0.00    +0.000 F 
ATOM     19  C   UNL     1       7.471   5.466  15.487  0.00  0.00    +0.000 A 
ATOM     20  C   UNL     1       6.676   5.422  16.635  0.00  0.00    +0.000 A 
ENDBRANCH   2  14
TORSDOF 2
ENDMDL
MODEL 4
REMARK VINA RESULT:      -7.8      1.295      1.866
REMARK  Name = 
REMARK  2 active torsions:
REMARK  status: ('A' for Active; 'I' for Inactive)
REMARK    1  A    between atoms: C_2  and  C_13
REMARK    2  A    between atoms: N_3  and  C_4
REMARK                            x       y       z     vdW  Elec       q    Type
REMARK                         _______ _______ _______ _____ _____    ______ ____
ROOT
ATOM      1  O   UNL     1       5.694   3.863  18.777  0.00  0.00    +0.000 OA
ATOM      2  C   UNL     1       5.012   4.167  17.801  0.00  0.00    +0.000 C 
ATOM      3  N   UNL     1       3.627   4.161  17.765  0.00  0.00    +0.000 N 
ATOM      4  H   UNL     1       3.218   3.897  16.874  0.00  0.00    +0.000 HD
ENDROOT
BRANCH   3   5
ATOM      5  C   UNL     1       2.883   3.828  18.923  0.00  0.00    +0.000 A 
ATOM      6  C   UNL     1       2.762   4.696  20.015  0.00  0.00    +0.000 A 
ATOM      7  F   UNL     1       3.242   5.944  19.952  0.00  0.00    +0.000 F 
ATOM      8  C   UNL     1       2.073   4.311  21.161  0.00  0.00    +0.000 A 
ATOM      9  C   UNL     1       1.512   3.042  21.217  0.00  0.00    +0.000 A 
ATOM     10  F   UNL     1       0.869   2.654  22.327  0.00  0.00    +0.000 F 
ATOM     11  C   UNL     1       1.595   2.169  20.138  0.00  0.00    +0.000 A 
ATOM     12  C   UNL     1       2.260   2.582  18.989  0.00  0.00    +0.000 A 
ATOM     13  F   UNL     1       2.355   1.735  17.950  0.00  0.00    +0.000 F 
ENDBRANCH   3   5
BRANCH   2  14
ATOM     14  C   UNL     1       5.693   4.460  16.519  0.00  0.00    +0.000 A 
ATOM     15  C   UNL     1       5.042   4.128  15.322  0.00  0.00    +0.000 A 
ATOM     16  C   UNL     1       5.685   4.326  14.099  0.00  0.00    +0.000 A 
ATOM     17  C   UNL     1       6.975   4.844  14.084  0.00  0.00    +0.000 A 
ATOM     18  F   UNL     1       7.604   5.009  12.911  0.00  0.00    +0.000 F 
ATOM     19  C   UNL     1       7.630   5.183  15.266  0.00  0.00    +0.000 A 
ATOM     20  C   UNL     1       6.987   4.997  16.492  0.00  0.00    +0.000 A 
ENDBRANCH   2  14
TORSDOF 2
ENDMDL
MODEL 5
REMARK VINA RESULT:      -7.7      1.260      2.078
REMARK  Name = 
REMARK  2 active torsions:
REMARK  status: ('A' for Active; 'I' for Inactive)
REMARK    1  A    between atoms: C_2  and  C_13
REMARK    2  A    between atoms: N_3  and  C_4
REMARK                            x       y       z     vdW  Elec       q    Type
REMARK                         _______ _______ _______ _____ _____    ______ ____
ROOT
ATOM      1  O   UNL     1       5.597   4.257  17.965  0.00  0.00    +0.000 OA
ATOM      2  C   UNL     1       4.987   4.113  16.908  0.00  0.00    +0.000 C 
ATOM      3  N   UNL     1       3.658   3.737  16.801  0.00  0.00    +0.000 N 
ATOM      4  H   UNL     1       3.436   3.158  15.998  0.00  0.00    +0.000 HD
ENDROOT
BRANCH   3   5
ATOM      5  C   UNL     1       2.878   3.528  17.965  0.00  0.00    +0.000 A 
ATOM      6  C   UNL     1       2.146   4.554  18.574  0.00  0.00    +0.000 A 
ATOM      7  F   UNL     1       2.047   5.758  17.997  0.00  0.00    +0.000 F 
ATOM      8  C   UNL     1       1.438   4.325  19.750  0.00  0.00    +0.000 A 
ATOM      9  C   UNL     1       1.476   3.063  20.326  0.00  0.00    +0.000 A 
ATOM     10  F   UNL     1       0.819   2.842  21.473  0.00  0.00    +0.000 F 
ATOM     11  C   UNL     1       2.175   2.019  19.729  0.00  0.00    +0.000 A 
ATOM     12  C   UNL     1       2.850   2.257  18.538  0.00  0.00    +0.000 A 
ATOM     13  F   UNL     1       3.539   1.254  17.966  0.00  0.00    +0.000 F 
ENDBRANCH   3   5
BRANCH   2  14
ATOM     14  C   UNL     1       5.732   4.237  15.634  0.00  0.00    +0.000 A 
ATOM     15  C   UNL     1       6.856   5.073  15.593  0.00  0.00    +0.000 A 
ATOM     16  C   UNL     1       7.539   5.268  14.391  0.00  0.00    +0.000 A 
ATOM     17  C   UNL     1       7.085   4.634  13.240  0.00  0.00    +0.000 A 
ATOM     18  F   UNL     1       7.723   4.843  12.079  0.00  0.00    +0.000 F 
ATOM     19  C   UNL     1       5.972   3.798  13.269  0.00  0.00    +0.000 A 
ATOM     20  C   UNL     1       5.291   3.590  14.471  0.00  0.00    +0.000 A 
ENDBRANCH   2  14
TORSDOF 2
ENDMDL
MODEL 6
REMARK VINA RESULT:      -7.6      1.315      1.835
REMARK  Name = 
REMARK  2 active torsions:
REMARK  status: ('A' for Active; 'I' for Inactive)
REMARK    1  A    between atoms: C_2  and  C_13
REMARK    2  A    between atoms: N_3  and  C_4
REMARK                            x       y       z     vdW  Elec       q    Type
REMARK                         _______ _______ _______ _____ _____    ______ ____
ROOT
ATOM      1  O   UNL     1       5.735   4.380  17.777  0.00  0.00    +0.000 OA
ATOM      2  C   UNL     1       5.060   4.212  16.764  0.00  0.00    +0.000 C 
ATOM      3  N   UNL     1       3.739   3.795  16.748  0.00  0.00    +0.000 N 
ATOM      4  H   UNL     1       3.481   3.204  15.963  0.00  0.00    +0.000 HD
ENDROOT
BRANCH   3   5
ATOM      5  C   UNL     1       3.047   3.567  17.962  0.00  0.00    +0.000 A 
ATOM      6  C   UNL     1       2.946   2.297  18.544  0.00  0.00    +0.000 A 
ATOM      7  F   UNL     1       3.620   1.258  18.037  0.00  0.00    +0.000 F 
ATOM      8  C   UNL     1       2.208   2.101  19.707  0.00  0.00    +0.000 A 
ATOM      9  C   UNL     1       1.555   3.183  20.284  0.00  0.00    +0.000 A 
ATOM     10  F   UNL     1       0.821   2.996  21.388  0.00  0.00    +0.000 F 
ATOM     11  C   UNL     1       1.659   4.459  19.741  0.00  0.00    +0.000 A 
ATOM     12  C   UNL     1       2.427   4.643  18.597  0.00  0.00    +0.000 A 
ATOM     13  F   UNL     1       2.517   5.873  18.062  0.00  0.00    +0.000 F 
ENDBRANCH   3   5
BRANCH   2  14
ATOM     14  C   UNL     1       5.713   4.352  15.442  0.00  0.00    +0.000 A 
ATOM     15  C   UNL     1       5.151   3.688  14.343  0.00  0.00    +0.000 A 
ATOM     16  C   UNL     1       5.779   3.742  13.097  0.00  0.00    +0.000 A 
ATOM     17  C   UNL     1       6.968   4.450  12.965  0.00  0.00    +0.000 A 
ATOM     18  F   UNL     1       7.588   4.479  11.776  0.00  0.00    +0.000 F 
ATOM     19  C   UNL     1       7.533   5.118  14.049  0.00  0.00    +0.000 A 
ATOM     20  C   UNL     1       6.903   5.077  15.295  0.00  0.00    +0.000 A 
ENDBRANCH   2  14
TORSDOF 2
ENDMDL
MODEL 7
REMARK VINA RESULT:      -7.6      1.429      1.661
REMARK  Name = 
REMARK  2 active torsions:
REMARK  status: ('A' for Active; 'I' for Inactive)
REMARK    1  A    between atoms: C_2  and  C_13
REMARK    2  A    between atoms: N_3  and  C_4
REMARK                            x       y       z     vdW  Elec       q    Type
REMARK                         _______ _______ _______ _____ _____    ______ ____
ROOT
ATOM      1  O   UNL     1       5.862   4.245  17.558  0.00  0.00    +0.000 OA
ATOM      2  C   UNL     1       5.174   4.099  16.551  0.00  0.00    +0.000 C 
ATOM      3  N   UNL     1       3.830   3.760  16.547  0.00  0.00    +0.000 N 
ATOM      4  H   UNL     1       3.534   3.171  15.775  0.00  0.00    +0.000 HD
ENDROOT
BRANCH   3   5
ATOM      5  C   UNL     1       3.131   3.597  17.768  0.00  0.00    +0.000 A 
ATOM      6  C   UNL     1       3.016   2.357  18.409  0.00  0.00    +0.000 A 
ATOM      7  F   UNL     1       3.682   1.288  17.954  0.00  0.00    +0.000 F 
ATOM      8  C   UNL     1       2.272   2.223  19.577  0.00  0.00    +0.000 A 
ATOM      9  C   UNL     1       1.628   3.336  20.099  0.00  0.00    +0.000 A 
ATOM     10  F   UNL     1       0.888   3.210  21.209  0.00  0.00    +0.000 F 
ATOM     11  C   UNL     1       1.746   4.585  19.498  0.00  0.00    +0.000 A 
ATOM     12  C   UNL     1       2.520   4.707  18.349  0.00  0.00    +0.000 A 
ATOM     13  F   UNL     1       2.623   5.909  17.757  0.00  0.00    +0.000 F 
ENDBRANCH   3   5
BRANCH   2  14
ATOM     14  C   UNL     1       5.827   4.176  15.224  0.00  0.00    +0.000 A 
ATOM     15  C   UNL     1       6.965   4.981  15.083  0.00  0.00    +0.000 A 
ATOM     16  C   UNL     1       7.565   5.132  13.831  0.00  0.00    +0.000 A 
ATOM     17  C   UNL     1       7.014   4.485  12.731  0.00  0.00    +0.000 A 
ATOM     18  F   UNL     1       7.571   4.651  11.522  0.00  0.00    +0.000 F 
ATOM     19  C   UNL     1       5.886   3.678  12.859  0.00  0.00    +0.000 A 
ATOM     20  C   UNL     1       5.289   3.514  14.112  0.00  0.00    +0.000 A 
ENDBRANCH   2  14
TORSDOF 2
ENDMDL
MODEL 8
REMARK VINA RESULT:      -7.5      1.257      2.376
REMARK  Name = 
REMARK  2 active torsions:
REMARK  status: ('A' for Active; 'I' for Inactive)
REMARK    1  A    between atoms: C_2  and  C_13
REMARK    2  A    between atoms: N_3  and  C_4
REMARK                            x       y       z     vdW  Elec       q    Type
REMARK                         _______ _______ _______ _____ _____    ______ ____
ROOT
ATOM      1  O   UNL     1       5.404   4.688  17.832  0.00  0.00    +0.000 OA
ATOM      2  C   UNL     1       4.834   4.333  16.803  0.00  0.00    +0.000 C 
ATOM      3  N   UNL     1       3.583   3.740  16.749  0.00  0.00    +0.000 N 
ATOM      4  H   UNL     1       3.463   3.048  16.017  0.00  0.00    +0.000 HD
ENDROOT
BRANCH   3   5
ATOM      5  C   UNL     1       2.837   3.537  17.936  0.00  0.00    +0.000 A 
ATOM      6  C   UNL     1       2.106   4.562  18.549  0.00  0.00    +0.000 A 
ATOM      7  F   UNL     1       1.977   5.757  17.958  0.00  0.00    +0.000 F 
ATOM      8  C   UNL     1       1.433   4.342  19.747  0.00  0.00    +0.000 A 
ATOM      9  C   UNL     1       1.503   3.089  20.340  0.00  0.00    +0.000 A 
ATOM     10  F   UNL     1       0.879   2.876  21.506  0.00  0.00    +0.000 F 
ATOM     11  C   UNL     1       2.200   2.045  19.740  0.00  0.00    +0.000 A 
ATOM     12  C   UNL     1       2.840   2.274  18.528  0.00  0.00    +0.000 A 
ATOM     13  F   UNL     1       3.527   1.273  17.953  0.00  0.00    +0.000 F 
ENDBRANCH   3   5
BRANCH   2  14
ATOM     14  C   UNL     1       5.560   4.434  15.515  0.00  0.00    +0.000 A 
ATOM     15  C   UNL     1       4.995   3.840  14.379  0.00  0.00    +0.000 A 
ATOM     16  C   UNL     1       5.685   3.856  13.166  0.00  0.00    +0.000 A 
ATOM     17  C   UNL     1       6.937   4.456  13.103  0.00  0.00    +0.000 A 
ATOM     18  F   UNL     1       7.614   4.447  11.945  0.00  0.00    +0.000 F 
ATOM     19  C   UNL     1       7.507   5.054  14.224  0.00  0.00    +0.000 A 
ATOM     20  C   UNL     1       6.815   5.052  15.438  0.00  0.00    +0.000 A 
ENDBRANCH   2  14
TORSDOF 2
ENDMDL
MODEL 9
REMARK VINA RESULT:      -7.4      0.618      1.270
REMARK  Name = 
REMARK  2 active torsions:
REMARK  status: ('A' for Active; 'I' for Inactive)
REMARK    1  A    between atoms: C_2  and  C_13
REMARK    2  A    between atoms: N_3  and  C_4
REMARK                            x       y       z     vdW  Elec       q    Type
REMARK                         _______ _______ _______ _____ _____    ______ ____
ROOT
ATOM      1  O   UNL     1       4.206   5.727  17.887  0.00  0.00    +0.000 OA
ATOM      2  C   UNL     1       4.397   4.697  17.246  0.00  0.00    +0.000 C 
ATOM      3  N   UNL     1       3.941   3.439  17.605  0.00  0.00    +0.000 N 
ATOM      4  H   UNL     1       4.556   2.669  17.360  0.00  0.00    +0.000 HD
ENDROOT
BRANCH   3   5
ATOM      5  C   UNL     1       3.155   3.270  18.771  0.00  0.00    +0.000 A 
ATOM      6  C   UNL     1       3.700   2.857  19.993  0.00  0.00    +0.000 A 
ATOM      7  F   UNL     1       5.024   2.731  20.142  0.00  0.00    +0.000 F 
ATOM      8  C   UNL     1       2.887   2.646  21.103  0.00  0.00    +0.000 A 
ATOM      9  C   UNL     1       1.517   2.837  20.983  0.00  0.00    +0.000 A 
ATOM     10  F   UNL     1       0.726   2.609  22.040  0.00  0.00    +0.000 F 
ATOM     11  C   UNL     1       0.952   3.271  19.788  0.00  0.00    +0.000 A 
ATOM     12  C   UNL     1       1.782   3.508  18.699  0.00  0.00    +0.000 A 
ATOM     13  F   UNL     1       1.238   3.913  17.539  0.00  0.00    +0.000 F 
ENDBRANCH   3   5
BRANCH   2  14
ATOM     14  C   UNL     1       5.269   4.753  16.050  0.00  0.00    +0.000 A 
ATOM     15  C   UNL     1       4.803   4.192  14.853  0.00  0.00    +0.000 A 
ATOM     16  C   UNL     1       5.627   4.165  13.726  0.00  0.00    +0.000 A 
ATOM     17  C   UNL     1       6.911   4.690  13.809  0.00  0.00    +0.000 A 
ATOM     18  F   UNL     1       7.714   4.640  12.736  0.00  0.00    +0.000 F 
ATOM     19  C   UNL     1       7.384   5.255  14.992  0.00  0.00    +0.000 A 
ATOM     20  C   UNL     1       6.560   5.295  16.119  0.00  0.00    +0.000 A 
ENDBRANCH   2  14
TORSDOF 2
ENDMDL
