MODEL 1
REMARK VINA RESULT:      -8.6      0.000      0.000
REMARK  Name = 
REMARK  6 active torsions:
REMARK  status: ('A' for Active; 'I' for Inactive)
REMARK    1  A    between atoms: C_2  and  C_3
REMARK    2  A    between atoms: C_3  and  C_13
REMARK    3  A    between atoms: C_4  and  S_5
REMARK    4  A    between atoms: C_4  and  N_6
REMARK    5  A    between atoms: N_6  and  C_7
REMARK    6  A    between atoms: C_18  and  C_20
REMARK                            x       y       z     vdW  Elec       q    Type
REMARK                         _______ _______ _______ _____ _____    ______ ____
ROOT
ATOM      1  C   UNL     1       6.683   5.335  17.955  0.00  0.00    +0.000 A 
ATOM      2  N   UNL     1       7.329   4.764  18.962  0.00  0.00    +0.000 NA
ATOM      3  N   UNL     1       8.228   5.676  19.463  0.00  0.00    +0.000 NA
ATOM      4  C   UNL     1       8.049   6.784  18.782  0.00  0.00    +0.000 A 
ATOM      5  N   UNL     1       8.743   7.940  18.980  0.00  0.00    +0.000 N 
ATOM      6  C   UNL     1       8.436   9.139  18.384  0.00  0.00    +0.000 C 
ATOM      7  O   UNL     1       7.529   9.333  17.584  0.00  0.00    +0.000 OA
ATOM      8  O   UNL     1       7.092   6.661  17.826  0.00  0.00    +0.000 OA
ATOM      9  H   UNL     1       9.500   7.853  19.635  0.00  0.00    +0.000 HD
ENDROOT
BRANCH   6  10
ATOM     10  C   UNL     1       9.325  10.286  18.762  0.00  0.00    +0.000 A 
ATOM     11  C   UNL     1       9.469  10.601  20.122  0.00  0.00    +0.000 A 
ATOM     12  C   UNL     1      10.258  11.679  20.526  0.00  0.00    +0.000 A 
ATOM     13  C   UNL     1      10.926  12.451  19.576  0.00  0.00    +0.000 A 
ATOM     14  C   UNL     1      10.816  12.135  18.224  0.00  0.00    +0.000 A 
ATOM     15  C   UNL     1      10.028  11.056  17.815  0.00  0.00    +0.000 A 
ENDBRANCH   6  10
BRANCH   1  16
ATOM     16  C   UNL     1       5.692   4.702  17.137  0.00  0.00    +0.000 C 
ATOM     17  C   UNL     1       4.416   4.554  17.589  0.00  0.00    +0.000 C 
BRANCH  16  19
ATOM     18  N   UNL     1       6.422   3.958  14.769  0.00  0.00    +0.000 NA
ATOM     19  C   UNL     1       6.116   4.271  15.844  0.00  0.00    +0.000 C 
ENDBRANCH  16  19
BRANCH  17  20
ATOM     20  S   UNL     1       3.184   3.722  16.606  0.00  0.00    +0.000 S 
ATOM     21  H   UNL     1       3.107   4.515  15.525  0.00  0.00    +0.000 HD
ENDBRANCH  17  20
BRANCH  17  22
ATOM     22  N   UNL     1       4.023   5.015  18.847  0.00  0.00    +0.000 N 
ATOM     23  H   UNL     1       4.834   5.312  19.389  0.00  0.00    +0.000 HD
BRANCH  22  24
ATOM     24  C   UNL     1       3.145   4.303  19.713  0.00  0.00    +0.000 A 
ATOM     25  C   UNL     1       3.522   3.149  20.412  0.00  0.00    +0.000 A 
ATOM     26  C   UNL     1       2.595   2.440  21.183  0.00  0.00    +0.000 A 
ATOM     27  C   UNL     1       1.269   2.860  21.246  0.00  0.00    +0.000 A 
ATOM     28  C   UNL     1       0.869   3.990  20.538  0.00  0.00    +0.000 A 
ATOM     29  C   UNL     1       1.800   4.701  19.773  0.00  0.00    +0.000 A 
ENDBRANCH  22  24
ENDBRANCH  17  22
ENDBRANCH   1  16
TORSDOF 6
ENDMDL
MODEL 2
REMARK VINA RESULT:      -8.6      0.105      1.340
REMARK  Name = 
REMARK  6 active torsions:
REMARK  status: ('A' for Active; 'I' for Inactive)
REMARK    1  A    between atoms: C_2  and  C_3
REMARK    2  A    between atoms: C_3  and  C_13
REMARK    3  A    between atoms: C_4  and  S_5
REMARK    4  A    between atoms: C_4  and  N_6
REMARK    5  A    between atoms: N_6  and  C_7
REMARK    6  A    between atoms: C_18  and  C_20
REMARK                            x       y       z     vdW  Elec       q    Type
REMARK                         _______ _______ _______ _____ _____    ______ ____
ROOT
ATOM      1  C   UNL     1       6.746   5.349  17.930  0.00  0.00    +0.000 A 
ATOM      2  N   UNL     1       7.396   4.764  18.927  0.00  0.00    +0.000 NA
ATOM      3  N   UNL     1       8.283   5.676  19.449  0.00  0.00    +0.000 NA
ATOM      4  C   UNL     1       8.094   6.795  18.790  0.00  0.00    +0.000 A 
ATOM      5  N   UNL     1       8.775   7.955  19.013  0.00  0.00    +0.000 N 
ATOM      6  C   UNL     1       8.455   9.162  18.440  0.00  0.00    +0.000 C 
ATOM      7  O   UNL     1       7.548   9.363  17.642  0.00  0.00    +0.000 OA
ATOM      8  O   UNL     1       7.141   6.681  17.829  0.00  0.00    +0.000 OA
ATOM      9  H   UNL     1       9.531   7.863  19.668  0.00  0.00    +0.000 HD
ENDROOT
BRANCH   6  10
ATOM     10  C   UNL     1       9.330  10.311  18.843  0.00  0.00    +0.000 A 
ATOM     11  C   UNL     1      10.010  11.020  17.840  0.00  0.00    +0.000 A 
ATOM     12  C   UNL     1      10.862  12.076  18.164  0.00  0.00    +0.000 A 
ATOM     13  C   UNL     1      11.039  12.449  19.496  0.00  0.00    +0.000 A 
ATOM     14  C   UNL     1      10.350  11.774  20.502  0.00  0.00    +0.000 A 
ATOM     15  C   UNL     1       9.495  10.717  20.182  0.00  0.00    +0.000 A 
ENDBRANCH   6  10
BRANCH   1  16
ATOM     16  C   UNL     1       5.764   4.721  17.097  0.00  0.00    +0.000 C 
ATOM     17  C   UNL     1       4.507   4.489  17.567  0.00  0.00    +0.000 C 
BRANCH  16  19
ATOM     18  N   UNL     1       6.563   4.109  14.715  0.00  0.00    +0.000 NA
ATOM     19  C   UNL     1       6.175   4.387  15.772  0.00  0.00    +0.000 C 
ENDBRANCH  16  19
BRANCH  17  20
ATOM     20  S   UNL     1       3.289   3.663  16.563  0.00  0.00    +0.000 S 
ATOM     21  H   UNL     1       3.552   2.369  16.814  0.00  0.00    +0.000 HD
ENDBRANCH  17  20
BRANCH  17  22
ATOM     22  N   UNL     1       4.124   4.857  18.859  0.00  0.00    +0.000 N 
ATOM     23  H   UNL     1       4.944   4.973  19.456  0.00  0.00    +0.000 HD
BRANCH  22  24
ATOM     24  C   UNL     1       3.119   4.184  19.610  0.00  0.00    +0.000 A 
ATOM     25  C   UNL     1       1.798   4.640  19.708  0.00  0.00    +0.000 A 
ATOM     26  C   UNL     1       0.872   3.988  20.529  0.00  0.00    +0.000 A 
ATOM     27  C   UNL     1       1.260   2.885  21.285  0.00  0.00    +0.000 A 
ATOM     28  C   UNL     1       2.574   2.433  21.220  0.00  0.00    +0.000 A 
ATOM     29  C   UNL     1       3.497   3.083  20.394  0.00  0.00    +0.000 A 
ENDBRANCH  22  24
ENDBRANCH  17  22
ENDBRANCH   1  16
TORSDOF 6
ENDMDL
MODEL 3
REMARK VINA RESULT:      -8.3      1.599      2.260
REMARK  Name = 
REMARK  6 active torsions:
REMARK  status: ('A' for Active; 'I' for Inactive)
REMARK    1  A    between atoms: C_2  and  C_3
REMARK    2  A    between atoms: C_3  and  C_13
REMARK    3  A    between atoms: C_4  and  S_5
REMARK    4  A    between atoms: C_4  and  N_6
REMARK    5  A    between atoms: N_6  and  C_7
REMARK    6  A    between atoms: C_18  and  C_20
REMARK                            x       y       z     vdW  Elec       q    Type
REMARK                         _______ _______ _______ _____ _____    ______ ____
ROOT
ATOM      1  C   UNL     1       6.512   5.284  18.020  0.00  0.00    +0.000 A 
ATOM      2  N   UNL     1       7.187   4.719  19.011  0.00  0.00    +0.000 NA
ATOM      3  N   UNL     1       8.117   5.625  19.464  0.00  0.00    +0.000 NA
ATOM      4  C   UNL     1       7.929   6.725  18.771  0.00  0.00    +0.000 A 
ATOM      5  N   UNL     1       8.646   7.874  18.925  0.00  0.00    +0.000 N 
ATOM      6  C   UNL     1       8.334   9.067  18.320  0.00  0.00    +0.000 C 
ATOM      7  O   UNL     1       7.400   9.262  17.552  0.00  0.00    +0.000 OA
ATOM      8  O   UNL     1       6.935   6.601  17.854  0.00  0.00    +0.000 OA
ATOM      9  H   UNL     1       9.425   7.785  19.552  0.00  0.00    +0.000 HD
ENDROOT
BRANCH   6  10
ATOM     10  C   UNL     1       9.252  10.206  18.646  0.00  0.00    +0.000 A 
ATOM     11  C   UNL     1       9.476  10.522  19.995  0.00  0.00    +0.000 A 
ATOM     12  C   UNL     1      10.296  11.593  20.353  0.00  0.00    +0.000 A 
ATOM     13  C   UNL     1      10.916  12.358  19.365  0.00  0.00    +0.000 A 
ATOM     14  C   UNL     1      10.727  12.041  18.022  0.00  0.00    +0.000 A 
ATOM     15  C   UNL     1       9.909  10.969  17.660  0.00  0.00    +0.000 A 
ENDBRANCH   6  10
BRANCH   1  16
ATOM     16  C   UNL     1       5.482   4.652  17.250  0.00  0.00    +0.000 C 
ATOM     17  C   UNL     1       4.201   4.610  17.713  0.00  0.00    +0.000 C 
BRANCH  16  19
ATOM     18  N   UNL     1       6.243   3.650  14.990  0.00  0.00    +0.000 NA
ATOM     19  C   UNL     1       5.873   4.107  15.991  0.00  0.00    +0.000 C 
ENDBRANCH  16  19
BRANCH  17  20
ATOM     20  S   UNL     1       2.919   3.783  16.793  0.00  0.00    +0.000 S 
ATOM     21  H   UNL     1       2.936   2.554  17.334  0.00  0.00    +0.000 HD
ENDBRANCH  17  20
BRANCH  17  22
ATOM     22  N   UNL     1       3.842   5.181  18.936  0.00  0.00    +0.000 N 
ATOM     23  H   UNL     1       3.387   4.490  19.533  0.00  0.00    +0.000 HD
BRANCH  22  24
ATOM     24  C   UNL     1       3.135   6.410  19.059  0.00  0.00    +0.000 A 
ATOM     25  C   UNL     1       2.320   6.722  20.156  0.00  0.00    +0.000 A 
ATOM     26  C   UNL     1       1.580   7.909  20.187  0.00  0.00    +0.000 A 
ATOM     27  C   UNL     1       1.623   8.790  19.109  0.00  0.00    +0.000 A 
ATOM     28  C   UNL     1       2.406   8.484  18.000  0.00  0.00    +0.000 A 
ATOM     29  C   UNL     1       3.150   7.300  17.974  0.00  0.00    +0.000 A 
ENDBRANCH  22  24
ENDBRANCH  17  22
ENDBRANCH   1  16
TORSDOF 6
ENDMDL
MODEL 4
REMARK VINA RESULT:      -8.2      0.575      1.023
REMARK  Name = 
REMARK  6 active torsions:
REMARK  status: ('A' for Active; 'I' for Inactive)
REMARK    1  A    between atoms: C_2  and  C_3
REMARK    2  A    between atoms: C_3  and  C_13
REMARK    3  A    between atoms: C_4  and  S_5
REMARK    4  A    between atoms: C_4  and  N_6
REMARK    5  A    between atoms: N_6  and  C_7
REMARK    6  A    between atoms: C_18  and  C_20
REMARK                            x       y       z     vdW  Elec       q    Type
REMARK                         _______ _______ _______ _____ _____    ______ ____
ROOT
ATOM      1  C   UNL     1       6.784   5.466  17.959  0.00  0.00    +0.000 A 
ATOM      2  N   UNL     1       7.380   4.893  18.996  0.00  0.00    +0.000 NA
ATOM      3  N   UNL     1       8.259   5.803  19.537  0.00  0.00    +0.000 NA
ATOM      4  C   UNL     1       8.117   6.910  18.846  0.00  0.00    +0.000 A 
ATOM      5  N   UNL     1       8.806   8.064  19.074  0.00  0.00    +0.000 N 
ATOM      6  C   UNL     1       8.532   9.262  18.461  0.00  0.00    +0.000 C 
ATOM      7  O   UNL     1       7.664   9.459  17.620  0.00  0.00    +0.000 OA
ATOM      8  O   UNL     1       7.205   6.789  17.847  0.00  0.00    +0.000 OA
ATOM      9  H   UNL     1       9.531   7.974  19.763  0.00  0.00    +0.000 HD
ENDROOT
BRANCH   6  10
ATOM     10  C   UNL     1       9.408  10.406  18.878  0.00  0.00    +0.000 A 
ATOM     11  C   UNL     1       9.496  10.719  20.244  0.00  0.00    +0.000 A 
ATOM     12  C   UNL     1      10.270  11.794  20.682  0.00  0.00    +0.000 A 
ATOM     13  C   UNL     1      10.979  12.566  19.762  0.00  0.00    +0.000 A 
ATOM     14  C   UNL     1      10.925  12.251  18.406  0.00  0.00    +0.000 A 
ATOM     15  C   UNL     1      10.152  11.175  17.963  0.00  0.00    +0.000 A 
ENDBRANCH   6  10
BRANCH   1  16
ATOM     16  C   UNL     1       5.829   4.835  17.098  0.00  0.00    +0.000 C 
ATOM     17  C   UNL     1       4.812   4.095  17.619  0.00  0.00    +0.000 C 
BRANCH  16  19
ATOM     18  N   UNL     1       6.140   5.164  14.551  0.00  0.00    +0.000 NA
ATOM     19  C   UNL     1       5.999   5.048  15.697  0.00  0.00    +0.000 C 
ENDBRANCH  16  19
BRANCH  17  20
ATOM     20  S   UNL     1       3.647   3.260  16.561  0.00  0.00    +0.000 S 
ATOM     21  H   UNL     1       4.428   2.361  15.940  0.00  0.00    +0.000 HD
ENDBRANCH  17  20
BRANCH  17  22
ATOM     22  N   UNL     1       4.653   3.930  18.997  0.00  0.00    +0.000 N 
ATOM     23  H   UNL     1       5.265   3.190  19.342  0.00  0.00    +0.000 HD
BRANCH  22  24
ATOM     24  C   UNL     1       3.389   3.798  19.639  0.00  0.00    +0.000 A 
ATOM     25  C   UNL     1       2.539   4.882  19.896  0.00  0.00    +0.000 A 
ATOM     26  C   UNL     1       1.347   4.708  20.606  0.00  0.00    +0.000 A 
ATOM     27  C   UNL     1       0.999   3.451  21.094  0.00  0.00    +0.000 A 
ATOM     28  C   UNL     1       1.843   2.367  20.872  0.00  0.00    +0.000 A 
ATOM     29  C   UNL     1       3.032   2.542  20.155  0.00  0.00    +0.000 A 
ENDBRANCH  22  24
ENDBRANCH  17  22
ENDBRANCH   1  16
TORSDOF 6
ENDMDL
MODEL 5
REMARK VINA RESULT:      -8.1      0.785      1.475
REMARK  Name = 
REMARK  6 active torsions:
REMARK  status: ('A' for Active; 'I' for Inactive)
REMARK    1  A    between atoms: C_2  and  C_3
REMARK    2  A    between atoms: C_3  and  C_13
REMARK    3  A    between atoms: C_4  and  S_5
REMARK    4  A    between atoms: C_4  and  N_6
REMARK    5  A    between atoms: N_6  and  C_7
REMARK    6  A    between atoms: C_18  and  C_20
REMARK                            x       y       z     vdW  Elec       q    Type
REMARK                         _______ _______ _______ _____ _____    ______ ____
ROOT
ATOM      1  C   UNL     1       6.867   5.387  17.858  0.00  0.00    +0.000 A 
ATOM      2  N   UNL     1       7.449   4.808  18.900  0.00  0.00    +0.000 NA
ATOM      3  N   UNL     1       8.293   5.726  19.480  0.00  0.00    +0.000 NA
ATOM      4  C   UNL     1       8.145   6.842  18.805  0.00  0.00    +0.000 A 
ATOM      5  N   UNL     1       8.803   8.006  19.072  0.00  0.00    +0.000 N 
ATOM      6  C   UNL     1       8.519   9.210  18.475  0.00  0.00    +0.000 C 
ATOM      7  O   UNL     1       7.669   9.404  17.615  0.00  0.00    +0.000 OA
ATOM      8  O   UNL     1       7.261   6.721  17.781  0.00  0.00    +0.000 OA
ATOM      9  H   UNL     1       9.512   7.919  19.778  0.00  0.00    +0.000 HD
ENDROOT
BRANCH   6  10
ATOM     10  C   UNL     1       9.359  10.364  18.935  0.00  0.00    +0.000 A 
ATOM     11  C   UNL     1      10.026  11.134  17.969  0.00  0.00    +0.000 A 
ATOM     12  C   UNL     1      10.846  12.198  18.345  0.00  0.00    +0.000 A 
ATOM     13  C   UNL     1      11.002  12.517  19.694  0.00  0.00    +0.000 A 
ATOM     14  C   UNL     1      10.324  11.782  20.663  0.00  0.00    +0.000 A 
ATOM     15  C   UNL     1       9.501  10.716  20.291  0.00  0.00    +0.000 A 
ENDBRANCH   6  10
BRANCH   1  16
ATOM     16  C   UNL     1       5.948   4.752  16.961  0.00  0.00    +0.000 C 
ATOM     17  C   UNL     1       4.912   4.012  17.443  0.00  0.00    +0.000 C 
BRANCH  16  19
ATOM     18  N   UNL     1       6.402   5.167  14.448  0.00  0.00    +0.000 NA
ATOM     19  C   UNL     1       6.173   4.963  15.567  0.00  0.00    +0.000 C 
ENDBRANCH  16  19
BRANCH  17  20
ATOM     20  S   UNL     1       3.792   3.173  16.341  0.00  0.00    +0.000 S 
ATOM     21  H   UNL     1       2.663   3.131  17.068  0.00  0.00    +0.000 HD
ENDBRANCH  17  20
BRANCH  17  22
ATOM     22  N   UNL     1       4.699   3.849  18.813  0.00  0.00    +0.000 N 
ATOM     23  H   UNL     1       4.720   2.860  19.065  0.00  0.00    +0.000 HD
BRANCH  22  24
ATOM     24  C   UNL     1       3.635   4.468  19.529  0.00  0.00    +0.000 A 
ATOM     25  C   UNL     1       2.732   3.757  20.331  0.00  0.00    +0.000 A 
ATOM     26  C   UNL     1       1.652   4.402  20.943  0.00  0.00    +0.000 A 
ATOM     27  C   UNL     1       1.444   5.764  20.742  0.00  0.00    +0.000 A 
ATOM     28  C   UNL     1       2.316   6.482  19.929  0.00  0.00    +0.000 A 
ATOM     29  C   UNL     1       3.398   5.836  19.322  0.00  0.00    +0.000 A 
ENDBRANCH  22  24
ENDBRANCH  17  22
ENDBRANCH   1  16
TORSDOF 6
ENDMDL
MODEL 6
REMARK VINA RESULT:      -7.8      6.502      9.588
REMARK  Name = 
REMARK  6 active torsions:
REMARK  status: ('A' for Active; 'I' for Inactive)
REMARK    1  A    between atoms: C_2  and  C_3
REMARK    2  A    between atoms: C_3  and  C_13
REMARK    3  A    between atoms: C_4  and  S_5
REMARK    4  A    between atoms: C_4  and  N_6
REMARK    5  A    between atoms: N_6  and  C_7
REMARK    6  A    between atoms: C_18  and  C_20
REMARK                            x       y       z     vdW  Elec       q    Type
REMARK                         _______ _______ _______ _____ _____    ______ ____
ROOT
ATOM      1  C   UNL     1       0.862  10.756  21.044  0.00  0.00    +0.000 A 
ATOM      2  N   UNL     1       0.618  10.522  22.327  0.00  0.00    +0.000 NA
ATOM      3  N   UNL     1       0.779   9.175  22.552  0.00  0.00    +0.000 NA
ATOM      4  C   UNL     1       1.173   8.654  21.413  0.00  0.00    +0.000 A 
ATOM      5  N   UNL     1       1.454   7.335  21.216  0.00  0.00    +0.000 N 
ATOM      6  C   UNL     1       2.027   6.828  20.075  0.00  0.00    +0.000 C 
ATOM      7  O   UNL     1       2.338   7.470  19.080  0.00  0.00    +0.000 OA
ATOM      8  O   UNL     1       1.263   9.577  20.420  0.00  0.00    +0.000 OA
ATOM      9  H   UNL     1       1.229   6.751  22.001  0.00  0.00    +0.000 HD
ENDROOT
BRANCH   6  10
ATOM     10  C   UNL     1       2.263   5.347  20.084  0.00  0.00    +0.000 A 
ATOM     11  C   UNL     1       1.228   4.507  20.523  0.00  0.00    +0.000 A 
ATOM     12  C   UNL     1       1.406   3.124  20.582  0.00  0.00    +0.000 A 
ATOM     13  C   UNL     1       2.620   2.559  20.191  0.00  0.00    +0.000 A 
ATOM     14  C   UNL     1       3.647   3.376  19.726  0.00  0.00    +0.000 A 
ATOM     15  C   UNL     1       3.472   4.761  19.664  0.00  0.00    +0.000 A 
ENDBRANCH   6  10
BRANCH   1  16
ATOM     16  C   UNL     1       0.759  12.030  20.398  0.00  0.00    +0.000 C 
ATOM     17  C   UNL     1      -0.387  12.388  19.755  0.00  0.00    +0.000 C 
BRANCH  16  19
ATOM     18  N   UNL     1       2.792  13.622  20.555  0.00  0.00    +0.000 NA
ATOM     19  C   UNL     1       1.900  12.883  20.490  0.00  0.00    +0.000 C 
ENDBRANCH  16  19
BRANCH  17  20
ATOM     20  S   UNL     1      -0.513  13.947  18.902  0.00  0.00    +0.000 S 
ATOM     21  H   UNL     1       0.777  14.255  18.690  0.00  0.00    +0.000 HD
ENDBRANCH  17  20
BRANCH  17  22
ATOM     22  N   UNL     1      -1.499  11.544  19.709  0.00  0.00    +0.000 N 
ATOM     23  H   UNL     1      -1.312  10.678  20.215  0.00  0.00    +0.000 HD
BRANCH  22  24
ATOM     24  C   UNL     1      -2.197  11.218  18.511  0.00  0.00    +0.000 A 
ATOM     25  C   UNL     1      -3.494  11.667  18.230  0.00  0.00    +0.000 A 
ATOM     26  C   UNL     1      -4.166  11.247  17.078  0.00  0.00    +0.000 A 
ATOM     27  C   UNL     1      -3.561  10.349  16.202  0.00  0.00    +0.000 A 
ATOM     28  C   UNL     1      -2.283   9.871  16.478  0.00  0.00    +0.000 A 
ATOM     29  C   UNL     1      -1.610  10.298  17.628  0.00  0.00    +0.000 A 
ENDBRANCH  22  24
ENDBRANCH  17  22
ENDBRANCH   1  16
TORSDOF 6
ENDMDL
MODEL 7
REMARK VINA RESULT:      -7.7      6.592      9.643
REMARK  Name = 
REMARK  6 active torsions:
REMARK  status: ('A' for Active; 'I' for Inactive)
REMARK    1  A    between atoms: C_2  and  C_3
REMARK    2  A    between atoms: C_3  and  C_13
REMARK    3  A    between atoms: C_4  and  S_5
REMARK    4  A    between atoms: C_4  and  N_6
REMARK    5  A    between atoms: N_6  and  C_7
REMARK    6  A    between atoms: C_18  and  C_20
REMARK                            x       y       z     vdW  Elec       q    Type
REMARK                         _______ _______ _______ _____ _____    ______ ____
ROOT
ATOM      1  C   UNL     1       0.787  10.607  20.975  0.00  0.00    +0.000 A 
ATOM      2  N   UNL     1       0.585  10.400  22.269  0.00  0.00    +0.000 NA
ATOM      3  N   UNL     1       0.800   9.066  22.526  0.00  0.00    +0.000 NA
ATOM      4  C   UNL     1       1.183   8.529  21.390  0.00  0.00    +0.000 A 
ATOM      5  N   UNL     1       1.506   7.215  21.221  0.00  0.00    +0.000 N 
ATOM      6  C   UNL     1       2.066   6.698  20.079  0.00  0.00    +0.000 C 
ATOM      7  O   UNL     1       2.329   7.323  19.059  0.00  0.00    +0.000 OA
ATOM      8  O   UNL     1       1.213   9.426  20.371  0.00  0.00    +0.000 OA
ATOM      9  H   UNL     1       1.323   6.645  22.027  0.00  0.00    +0.000 HD
ENDROOT
BRANCH   6  10
ATOM     10  C   UNL     1       2.356   5.227  20.120  0.00  0.00    +0.000 A 
ATOM     11  C   UNL     1       3.570   4.768  19.587  0.00  0.00    +0.000 A 
ATOM     12  C   UNL     1       3.875   3.406  19.570  0.00  0.00    +0.000 A 
ATOM     13  C   UNL     1       2.974   2.483  20.100  0.00  0.00    +0.000 A 
ATOM     14  C   UNL     1       1.777   2.924  20.658  0.00  0.00    +0.000 A 
ATOM     15  C   UNL     1       1.469   4.286  20.678  0.00  0.00    +0.000 A 
ENDBRANCH   6  10
BRANCH   1  16
ATOM     16  C   UNL     1       0.622  11.859  20.298  0.00  0.00    +0.000 C 
ATOM     17  C   UNL     1      -0.151  11.942  19.180  0.00  0.00    +0.000 C 
BRANCH  16  19
ATOM     18  N   UNL     1       1.829  13.869  21.391  0.00  0.00    +0.000 NA
ATOM     19  C   UNL     1       1.285  12.984  20.873  0.00  0.00    +0.000 C 
ENDBRANCH  16  19
BRANCH  17  20
ATOM     20  S   UNL     1      -0.324  13.479  18.296  0.00  0.00    +0.000 S 
ATOM     21  H   UNL     1      -0.428  13.060  17.024  0.00  0.00    +0.000 HD
ENDBRANCH  17  20
BRANCH  17  22
ATOM     22  N   UNL     1      -0.813  10.829  18.658  0.00  0.00    +0.000 N 
ATOM     23  H   UNL     1      -0.169  10.249  18.120  0.00  0.00    +0.000 HD
BRANCH  22  24
ATOM     24  C   UNL     1      -2.046  10.900  17.949  0.00  0.00    +0.000 A 
ATOM     25  C   UNL     1      -2.178  10.553  16.598  0.00  0.00    +0.000 A 
ATOM     26  C   UNL     1      -3.394  10.723  15.928  0.00  0.00    +0.000 A 
ATOM     27  C   UNL     1      -4.490  11.268  16.592  0.00  0.00    +0.000 A 
ATOM     28  C   UNL     1      -4.371  11.643  17.927  0.00  0.00    +0.000 A 
ATOM     29  C   UNL     1      -3.155  11.466  18.597  0.00  0.00    +0.000 A 
ENDBRANCH  22  24
ENDBRANCH  17  22
ENDBRANCH   1  16
TORSDOF 6
ENDMDL
MODEL 8
REMARK VINA RESULT:      -7.6      4.786      7.388
REMARK  Name = 
REMARK  6 active torsions:
REMARK  status: ('A' for Active; 'I' for Inactive)
REMARK    1  A    between atoms: C_2  and  C_3
REMARK    2  A    between atoms: C_3  and  C_13
REMARK    3  A    between atoms: C_4  and  S_5
REMARK    4  A    between atoms: C_4  and  N_6
REMARK    5  A    between atoms: N_6  and  C_7
REMARK    6  A    between atoms: C_18  and  C_20
REMARK                            x       y       z     vdW  Elec       q    Type
REMARK                         _______ _______ _______ _____ _____    ______ ____
ROOT
ATOM      1  C   UNL     1       2.499   5.999  19.373  0.00  0.00    +0.000 A 
ATOM      2  N   UNL     1       2.763   6.600  18.221  0.00  0.00    +0.000 NA
ATOM      3  N   UNL     1       2.289   7.889  18.294  0.00  0.00    +0.000 NA
ATOM      4  C   UNL     1       1.811   8.038  19.508  0.00  0.00    +0.000 A 
ATOM      5  N   UNL     1       1.254   9.186  19.990  0.00  0.00    +0.000 N 
ATOM      6  C   UNL     1       0.914   9.387  21.306  0.00  0.00    +0.000 C 
ATOM      7  O   UNL     1       1.036   8.574  22.213  0.00  0.00    +0.000 OA
ATOM      8  O   UNL     1       1.914   6.907  20.253  0.00  0.00    +0.000 OA
ATOM      9  H   UNL     1       1.134   9.901  19.296  0.00  0.00    +0.000 HD
ENDROOT
BRANCH   6  10
ATOM     10  C   UNL     1       0.331  10.734  21.615  0.00  0.00    +0.000 A 
ATOM     11  C   UNL     1      -0.648  10.826  22.616  0.00  0.00    +0.000 A 
ATOM     12  C   UNL     1      -1.246  12.049  22.921  0.00  0.00    +0.000 A 
ATOM     13  C   UNL     1      -0.864  13.203  22.236  0.00  0.00    +0.000 A 
ATOM     14  C   UNL     1       0.126  13.134  21.259  0.00  0.00    +0.000 A 
ATOM     15  C   UNL     1       0.728  11.911  20.952  0.00  0.00    +0.000 A 
ENDBRANCH   6  10
BRANCH   1  16
ATOM     16  C   UNL     1       2.794   4.632  19.684  0.00  0.00    +0.000 C 
ATOM     17  C   UNL     1       4.036   4.124  19.452  0.00  0.00    +0.000 C 
BRANCH  16  19
ATOM     18  N   UNL     1       0.860   3.293  20.760  0.00  0.00    +0.000 NA
ATOM     19  C   UNL     1       1.734   3.869  20.258  0.00  0.00    +0.000 C 
ENDBRANCH  16  19
BRANCH  17  20
ATOM     20  S   UNL     1       4.405   2.413  19.784  0.00  0.00    +0.000 S 
ATOM     21  H   UNL     1       5.665   2.482  20.242  0.00  0.00    +0.000 HD
ENDBRANCH  17  20
BRANCH  17  22
ATOM     22  N   UNL     1       5.063   4.905  18.918  0.00  0.00    +0.000 N 
ATOM     23  H   UNL     1       4.834   5.897  18.993  0.00  0.00    +0.000 HD
BRANCH  22  24
ATOM     24  C   UNL     1       5.648   4.679  17.640  0.00  0.00    +0.000 A 
ATOM     25  C   UNL     1       7.011   4.871  17.373  0.00  0.00    +0.000 A 
ATOM     26  C   UNL     1       7.518   4.717  16.079  0.00  0.00    +0.000 A 
ATOM     27  C   UNL     1       6.666   4.394  15.026  0.00  0.00    +0.000 A 
ATOM     28  C   UNL     1       5.305   4.225  15.267  0.00  0.00    +0.000 A 
ATOM     29  C   UNL     1       4.801   4.374  16.563  0.00  0.00    +0.000 A 
ENDBRANCH  22  24
ENDBRANCH  17  22
ENDBRANCH   1  16
TORSDOF 6
ENDMDL
MODEL 9
REMARK VINA RESULT:      -7.6      6.684      9.564
REMARK  Name = 
REMARK  6 active torsions:
REMARK  status: ('A' for Active; 'I' for Inactive)
REMARK    1  A    between atoms: C_2  and  C_3
REMARK    2  A    between atoms: C_3  and  C_13
REMARK    3  A    between atoms: C_4  and  S_5
REMARK    4  A    between atoms: C_4  and  N_6
REMARK    5  A    between atoms: N_6  and  C_7
REMARK    6  A    between atoms: C_18  and  C_20
REMARK                            x       y       z     vdW  Elec       q    Type
REMARK                         _______ _______ _______ _____ _____    ______ ____
ROOT
ATOM      1  C   UNL     1       0.656  11.083  21.105  0.00  0.00    +0.000 A 
ATOM      2  N   UNL     1       0.363  10.737  22.352  0.00  0.00    +0.000 NA
ATOM      3  N   UNL     1       0.568   9.383  22.477  0.00  0.00    +0.000 NA
ATOM      4  C   UNL     1       1.034   8.971  21.321  0.00  0.00    +0.000 A 
ATOM      5  N   UNL     1       1.376   7.683  21.035  0.00  0.00    +0.000 N 
ATOM      6  C   UNL     1       2.020   7.291  19.886  0.00  0.00    +0.000 C 
ATOM      7  O   UNL     1       2.350   8.022  18.961  0.00  0.00    +0.000 OA
ATOM      8  O   UNL     1       1.132   9.973  20.410  0.00  0.00    +0.000 OA
ATOM      9  H   UNL     1       1.139   7.029  21.759  0.00  0.00    +0.000 HD
ENDROOT
BRANCH   6  10
ATOM     10  C   UNL     1       2.314   5.824  19.789  0.00  0.00    +0.000 A 
ATOM     11  C   UNL     1       2.007   5.005  20.887  0.00  0.00    +0.000 A 
ATOM     12  C   UNL     1       2.291   3.639  20.862  0.00  0.00    +0.000 A 
ATOM     13  C   UNL     1       2.875   3.068  19.731  0.00  0.00    +0.000 A 
ATOM     14  C   UNL     1       3.160   3.861  18.622  0.00  0.00    +0.000 A 
ATOM     15  C   UNL     1       2.876   5.229  18.643  0.00  0.00    +0.000 A 
ENDBRANCH   6  10
BRANCH   1  16
ATOM     16  C   UNL     1       0.532  12.401  20.557  0.00  0.00    +0.000 C 
ATOM     17  C   UNL     1       0.133  12.577  19.267  0.00  0.00    +0.000 C 
BRANCH  16  19
ATOM     18  N   UNL     1       1.039  14.336  22.198  0.00  0.00    +0.000 NA
ATOM     19  C   UNL     1       0.825  13.485  21.438  0.00  0.00    +0.000 C 
ENDBRANCH  16  19
BRANCH  17  20
ATOM     20  S   UNL     1       0.025  14.206  18.554  0.00  0.00    +0.000 S 
ATOM     21  H   UNL     1       0.177  13.949  17.245  0.00  0.00    +0.000 HD
ENDBRANCH  17  20
BRANCH  17  22
ATOM     22  N   UNL     1      -0.177  11.497  18.439  0.00  0.00    +0.000 N 
ATOM     23  H   UNL     1       0.341  11.558  17.562  0.00  0.00    +0.000 HD
BRANCH  22  24
ATOM     24  C   UNL     1      -1.506  11.082  18.142  0.00  0.00    +0.000 A 
ATOM     25  C   UNL     1      -1.808  10.071  17.219  0.00  0.00    +0.000 A 
ATOM     26  C   UNL     1      -3.135   9.762  16.902  0.00  0.00    +0.000 A 
ATOM     27  C   UNL     1      -4.180  10.476  17.483  0.00  0.00    +0.000 A 
ATOM     28  C   UNL     1      -3.899  11.500  18.382  0.00  0.00    +0.000 A 
ATOM     29  C   UNL     1      -2.571  11.804  18.702  0.00  0.00    +0.000 A 
ENDBRANCH  22  24
ENDBRANCH  17  22
ENDBRANCH   1  16
TORSDOF 6
ENDMDL
