MODEL 1
REMARK VINA RESULT:      -8.4      0.000      0.000
REMARK  Name = 
REMARK  5 active torsions:
REMARK  status: ('A' for Active; 'I' for Inactive)
REMARK    1  A    between atoms: C_1  and  C_2
REMARK    2  A    between atoms: N_4  and  C_5
REMARK    3  A    between atoms: C_12  and  C_13
REMARK    4  A    between atoms: N_21  and  C_22
REMARK    5  A    between atoms: C_22  and  C_23
REMARK                            x       y       z     vdW  Elec       q    Type
REMARK                         _______ _______ _______ _____ _____    ______ ____
ROOT
ATOM      1  C   UNL     1       1.016   9.387  19.881  0.00  0.00    +0.000 A 
ATOM      2  C   UNL     1       1.498  10.420  19.060  0.00  0.00    +0.000 A 
ATOM      3  C   UNL     1       2.313  10.160  17.963  0.00  0.00    +0.000 A 
ATOM      4  C   UNL     1       2.711   8.861  17.658  0.00  0.00    +0.000 A 
ATOM      5  C   UNL     1       2.309   7.838  18.527  0.00  0.00    +0.000 A 
ATOM      6  C   UNL     1       1.472   8.068  19.615  0.00  0.00    +0.000 A 
ATOM      7  N   UNL     1       1.193   6.879  20.259  0.00  0.00    +0.000 NA
ATOM      8  C   UNL     1       1.852   5.922  19.613  0.00  0.00    +0.000 A 
ATOM      9  N   UNL     1       2.584   6.483  18.568  0.00  0.00    +0.000 N 
ENDROOT
BRANCH   8  10
ATOM     10  C   UNL     1       1.849   4.500  20.003  0.00  0.00    +0.000 A 
ATOM     11  C   UNL     1       1.443   3.472  19.139  0.00  0.00    +0.000 A 
ATOM     12  F   UNL     1       0.923   3.758  17.934  0.00  0.00    +0.000 F 
ATOM     13  C   UNL     1       1.574   2.122  19.471  0.00  0.00    +0.000 A 
ATOM     14  C   UNL     1       2.039   1.761  20.730  0.00  0.00    +0.000 A 
ATOM     15  C   UNL     1       2.357   2.759  21.646  0.00  0.00    +0.000 A 
ATOM     16  C   UNL     1       2.268   4.107  21.281  0.00  0.00    +0.000 A 
ATOM     17  F   UNL     1       2.621   5.020  22.199  0.00  0.00    +0.000 F 
ENDBRANCH   8  10
BRANCH   1  21
ATOM     18  C   UNL     1      -0.765   9.942  23.173  0.00  0.00    +0.000 C 
ATOM     19  C   UNL     1       0.424   9.712  22.281  0.00  0.00    +0.000 C 
ATOM     20  O   UNL     1       1.546   9.621  22.773  0.00  0.00    +0.000 OA
ATOM     21  N   UNL     1       0.099   9.616  20.938  0.00  0.00    +0.000 N 
ATOM     22  H   UNL     1      -0.837   9.870  20.634  0.00  0.00    +0.000 HD
ENDBRANCH   1  21
BRANCH   9  23
ATOM     23  C   UNL     1       3.463   5.795  17.623  0.00  0.00    +0.000 C 
BRANCH  23  24
ATOM     24  C   UNL     1       4.932   6.008  17.846  0.00  0.00    +0.000 A 
ATOM     25  C   UNL     1       5.594   5.402  18.912  0.00  0.00    +0.000 A 
ATOM     26  F   UNL     1       4.912   4.625  19.764  0.00  0.00    +0.000 F 
ATOM     27  C   UNL     1       6.967   5.557  19.098  0.00  0.00    +0.000 A 
ATOM     28  C   UNL     1       7.707   6.319  18.194  0.00  0.00    +0.000 A 
ATOM     29  C   UNL     1       7.068   6.913  17.108  0.00  0.00    +0.000 A 
ATOM     30  C   UNL     1       5.694   6.749  16.942  0.00  0.00    +0.000 A 
ATOM     31  F   UNL     1       5.102   7.321  15.885  0.00  0.00    +0.000 F 
ENDBRANCH  23  24
ENDBRANCH   9  23
TORSDOF 4
ENDMDL
MODEL 2
REMARK VINA RESULT:      -8.4      0.065      1.504
REMARK  Name = 
REMARK  5 active torsions:
REMARK  status: ('A' for Active; 'I' for Inactive)
REMARK    1  A    between atoms: C_1  and  C_2
REMARK    2  A    between atoms: N_4  and  C_5
REMARK    3  A    between atoms: C_12  and  C_13
REMARK    4  A    between atoms: N_21  and  C_22
REMARK    5  A    between atoms: C_22  and  C_23
REMARK                            x       y       z     vdW  Elec       q    Type
REMARK                         _______ _______ _______ _____ _____    ______ ____
ROOT
ATOM      1  C   UNL     1       1.057   9.349  19.873  0.00  0.00    +0.000 A 
ATOM      2  C   UNL     1       1.534  10.380  19.046  0.00  0.00    +0.000 A 
ATOM      3  C   UNL     1       2.336  10.115  17.941  0.00  0.00    +0.000 A 
ATOM      4  C   UNL     1       2.725   8.814  17.633  0.00  0.00    +0.000 A 
ATOM      5  C   UNL     1       2.329   7.794  18.507  0.00  0.00    +0.000 A 
ATOM      6  C   UNL     1       1.504   8.028  19.604  0.00  0.00    +0.000 A 
ATOM      7  N   UNL     1       1.228   6.840  20.252  0.00  0.00    +0.000 NA
ATOM      8  C   UNL     1       1.877   5.881  19.600  0.00  0.00    +0.000 A 
ATOM      9  N   UNL     1       2.599   6.438  18.547  0.00  0.00    +0.000 N 
ENDROOT
BRANCH   8  10
ATOM     10  C   UNL     1       1.872   4.458  19.991  0.00  0.00    +0.000 A 
ATOM     11  C   UNL     1       1.473   3.430  19.125  0.00  0.00    +0.000 A 
ATOM     12  F   UNL     1       0.961   3.714  17.918  0.00  0.00    +0.000 F 
ATOM     13  C   UNL     1       1.603   2.080  19.460  0.00  0.00    +0.000 A 
ATOM     14  C   UNL     1       2.060   1.720  20.723  0.00  0.00    +0.000 A 
ATOM     15  C   UNL     1       2.372   2.720  21.640  0.00  0.00    +0.000 A 
ATOM     16  C   UNL     1       2.284   4.068  21.273  0.00  0.00    +0.000 A 
ATOM     17  F   UNL     1       2.630   4.982  22.192  0.00  0.00    +0.000 F 
ENDBRANCH   8  10
BRANCH   1  21
ATOM     18  C   UNL     1      -0.688   9.903  23.186  0.00  0.00    +0.000 C 
ATOM     19  C   UNL     1       0.490   9.664  22.281  0.00  0.00    +0.000 C 
ATOM     20  O   UNL     1       1.615   9.554  22.762  0.00  0.00    +0.000 OA
ATOM     21  N   UNL     1       0.152   9.583  20.940  0.00  0.00    +0.000 N 
ATOM     22  H   UNL     1      -0.782   9.851  20.646  0.00  0.00    +0.000 HD
ENDBRANCH   1  21
BRANCH   9  23
ATOM     23  C   UNL     1       3.465   5.745  17.592  0.00  0.00    +0.000 C 
BRANCH  23  24
ATOM     24  C   UNL     1       4.937   5.931  17.815  0.00  0.00    +0.000 A 
ATOM     25  C   UNL     1       5.696   6.746  16.976  0.00  0.00    +0.000 A 
ATOM     26  F   UNL     1       5.111   7.364  15.942  0.00  0.00    +0.000 F 
ATOM     27  C   UNL     1       7.054   6.960  17.205  0.00  0.00    +0.000 A 
ATOM     28  C   UNL     1       7.674   6.369  18.305  0.00  0.00    +0.000 A 
ATOM     29  C   UNL     1       6.927   5.571  19.170  0.00  0.00    +0.000 A 
ATOM     30  C   UNL     1       5.572   5.365  18.921  0.00  0.00    +0.000 A 
ATOM     31  F   UNL     1       4.872   4.602  19.772  0.00  0.00    +0.000 F 
ENDBRANCH  23  24
ENDBRANCH   9  23
TORSDOF 4
ENDMDL
MODEL 3
REMARK VINA RESULT:      -8.3      0.125      1.512
REMARK  Name = 
REMARK  5 active torsions:
REMARK  status: ('A' for Active; 'I' for Inactive)
REMARK    1  A    between atoms: C_1  and  C_2
REMARK    2  A    between atoms: N_4  and  C_5
REMARK    3  A    between atoms: C_12  and  C_13
REMARK    4  A    between atoms: N_21  and  C_22
REMARK    5  A    between atoms: C_22  and  C_23
REMARK                            x       y       z     vdW  Elec       q    Type
REMARK                         _______ _______ _______ _____ _____    ______ ____
ROOT
ATOM      1  C   UNL     1       1.001   9.443  19.873  0.00  0.00    +0.000 A 
ATOM      2  C   UNL     1       1.486  10.475  19.052  0.00  0.00    +0.000 A 
ATOM      3  C   UNL     1       2.303  10.212  17.958  0.00  0.00    +0.000 A 
ATOM      4  C   UNL     1       2.701   8.913  17.656  0.00  0.00    +0.000 A 
ATOM      5  C   UNL     1       2.297   7.892  18.525  0.00  0.00    +0.000 A 
ATOM      6  C   UNL     1       1.458   8.123  19.611  0.00  0.00    +0.000 A 
ATOM      7  N   UNL     1       1.178   6.935  20.256  0.00  0.00    +0.000 NA
ATOM      8  C   UNL     1       1.838   5.977  19.614  0.00  0.00    +0.000 A 
ATOM      9  N   UNL     1       2.572   6.536  18.570  0.00  0.00    +0.000 N 
ENDROOT
BRANCH   8  10
ATOM     10  C   UNL     1       1.833   4.555  20.006  0.00  0.00    +0.000 A 
ATOM     11  C   UNL     1       2.238   4.113  21.274  0.00  0.00    +0.000 A 
ATOM     12  F   UNL     1       2.765   4.971  22.162  0.00  0.00    +0.000 F 
ATOM     13  C   UNL     1       2.099   2.783  21.680  0.00  0.00    +0.000 A 
ATOM     14  C   UNL     1       1.627   1.831  20.784  0.00  0.00    +0.000 A 
ATOM     15  C   UNL     1       1.309   2.223  19.486  0.00  0.00    +0.000 A 
ATOM     16  C   UNL     1       1.406   3.567  19.110  0.00  0.00    +0.000 A 
ATOM     17  F   UNL     1       1.053   3.884  17.855  0.00  0.00    +0.000 F 
ENDBRANCH   8  10
BRANCH   1  21
ATOM     18  C   UNL     1      -0.789   9.991  23.163  0.00  0.00    +0.000 C 
ATOM     19  C   UNL     1       0.402   9.755  22.274  0.00  0.00    +0.000 C 
ATOM     20  O   UNL     1       1.521   9.647  22.770  0.00  0.00    +0.000 OA
ATOM     21  N   UNL     1       0.082   9.674  20.928  0.00  0.00    +0.000 N 
ATOM     22  H   UNL     1      -0.849   9.941  20.622  0.00  0.00    +0.000 HD
ENDBRANCH   1  21
BRANCH   9  23
ATOM     23  C   UNL     1       3.453   5.846  17.627  0.00  0.00    +0.000 C 
BRANCH  23  24
ATOM     24  C   UNL     1       4.922   6.042  17.866  0.00  0.00    +0.000 A 
ATOM     25  C   UNL     1       5.568   5.418  18.932  0.00  0.00    +0.000 A 
ATOM     26  F   UNL     1       4.870   4.640  19.769  0.00  0.00    +0.000 F 
ATOM     27  C   UNL     1       6.940   5.559  19.133  0.00  0.00    +0.000 A 
ATOM     28  C   UNL     1       7.696   6.322  18.243  0.00  0.00    +0.000 A 
ATOM     29  C   UNL     1       7.073   6.933  17.157  0.00  0.00    +0.000 A 
ATOM     30  C   UNL     1       5.700   6.785  16.977  0.00  0.00    +0.000 A 
ATOM     31  F   UNL     1       5.123   7.374  15.921  0.00  0.00    +0.000 F 
ENDBRANCH  23  24
ENDBRANCH   9  23
TORSDOF 4
ENDMDL
MODEL 4
REMARK VINA RESULT:      -8.3      0.125      2.131
REMARK  Name = 
REMARK  5 active torsions:
REMARK  status: ('A' for Active; 'I' for Inactive)
REMARK    1  A    between atoms: C_1  and  C_2
REMARK    2  A    between atoms: N_4  and  C_5
REMARK    3  A    between atoms: C_12  and  C_13
REMARK    4  A    between atoms: N_21  and  C_22
REMARK    5  A    between atoms: C_22  and  C_23
REMARK                            x       y       z     vdW  Elec       q    Type
REMARK                         _______ _______ _______ _____ _____    ______ ____
ROOT
ATOM      1  C   UNL     1       1.041   9.395  19.875  0.00  0.00    +0.000 A 
ATOM      2  C   UNL     1       1.518  10.427  19.050  0.00  0.00    +0.000 A 
ATOM      3  C   UNL     1       2.321  10.164  17.945  0.00  0.00    +0.000 A 
ATOM      4  C   UNL     1       2.712   8.864  17.636  0.00  0.00    +0.000 A 
ATOM      5  C   UNL     1       2.316   7.842  18.507  0.00  0.00    +0.000 A 
ATOM      6  C   UNL     1       1.490   8.074  19.604  0.00  0.00    +0.000 A 
ATOM      7  N   UNL     1       1.214   6.885  20.249  0.00  0.00    +0.000 NA
ATOM      8  C   UNL     1       1.864   5.927  19.597  0.00  0.00    +0.000 A 
ATOM      9  N   UNL     1       2.587   6.486  18.545  0.00  0.00    +0.000 N 
ENDROOT
BRANCH   8  10
ATOM     10  C   UNL     1       1.860   4.504  19.986  0.00  0.00    +0.000 A 
ATOM     11  C   UNL     1       2.251   4.060  21.257  0.00  0.00    +0.000 A 
ATOM     12  F   UNL     1       2.766   4.918  22.153  0.00  0.00    +0.000 F 
ATOM     13  C   UNL     1       2.113   2.729  21.658  0.00  0.00    +0.000 A 
ATOM     14  C   UNL     1       1.654   1.778  20.754  0.00  0.00    +0.000 A 
ATOM     15  C   UNL     1       1.349   2.171  19.455  0.00  0.00    +0.000 A 
ATOM     16  C   UNL     1       1.446   3.516  19.083  0.00  0.00    +0.000 A 
ATOM     17  F   UNL     1       1.106   3.835  17.824  0.00  0.00    +0.000 F 
ENDBRANCH   8  10
BRANCH   1  21
ATOM     18  C   UNL     1      -0.709   9.938  23.186  0.00  0.00    +0.000 C 
ATOM     19  C   UNL     1       0.470   9.699  22.283  0.00  0.00    +0.000 C 
ATOM     20  O   UNL     1       1.594   9.584  22.766  0.00  0.00    +0.000 OA
ATOM     21  N   UNL     1       0.135   9.625  20.941  0.00  0.00    +0.000 N 
ATOM     22  H   UNL     1      -0.799   9.898  20.647  0.00  0.00    +0.000 HD
ENDBRANCH   1  21
BRANCH   9  23
ATOM     23  C   UNL     1       3.455   5.796  17.591  0.00  0.00    +0.000 C 
BRANCH  23  24
ATOM     24  C   UNL     1       4.927   5.969  17.826  0.00  0.00    +0.000 A 
ATOM     25  C   UNL     1       5.698   6.785  17.000  0.00  0.00    +0.000 A 
ATOM     26  F   UNL     1       5.125   7.418  15.968  0.00  0.00    +0.000 F 
ATOM     27  C   UNL     1       7.056   6.988  17.241  0.00  0.00    +0.000 A 
ATOM     28  C   UNL     1       7.663   6.381  18.340  0.00  0.00    +0.000 A 
ATOM     29  C   UNL     1       6.904   5.581  19.192  0.00  0.00    +0.000 A 
ATOM     30  C   UNL     1       5.549   5.387  18.931  0.00  0.00    +0.000 A 
ATOM     31  F   UNL     1       4.837   4.623  19.770  0.00  0.00    +0.000 F 
ENDBRANCH  23  24
ENDBRANCH   9  23
TORSDOF 4
ENDMDL
MODEL 5
REMARK VINA RESULT:      -8.1      1.437      2.189
REMARK  Name = 
REMARK  5 active torsions:
REMARK  status: ('A' for Active; 'I' for Inactive)
REMARK    1  A    between atoms: C_1  and  C_2
REMARK    2  A    between atoms: N_4  and  C_5
REMARK    3  A    between atoms: C_12  and  C_13
REMARK    4  A    between atoms: N_21  and  C_22
REMARK    5  A    between atoms: C_22  and  C_23
REMARK                            x       y       z     vdW  Elec       q    Type
REMARK                         _______ _______ _______ _____ _____    ______ ____
ROOT
ATOM      1  C   UNL     1       1.125   9.368  19.854  0.00  0.00    +0.000 A 
ATOM      2  C   UNL     1       1.294  10.632  19.264  0.00  0.00    +0.000 A 
ATOM      3  C   UNL     1       1.990  10.791  18.071  0.00  0.00    +0.000 A 
ATOM      4  C   UNL     1       2.578   9.703  17.433  0.00  0.00    +0.000 A 
ATOM      5  C   UNL     1       2.491   8.456  18.064  0.00  0.00    +0.000 A 
ATOM      6  C   UNL     1       1.778   8.264  19.244  0.00  0.00    +0.000 A 
ATOM      7  N   UNL     1       1.813   6.932  19.608  0.00  0.00    +0.000 NA
ATOM      8  C   UNL     1       2.546   6.298  18.699  0.00  0.00    +0.000 A 
ATOM      9  N   UNL     1       3.016   7.213  17.758  0.00  0.00    +0.000 N 
ENDROOT
BRANCH   8  10
ATOM     10  C   UNL     1       2.858   4.857  18.738  0.00  0.00    +0.000 A 
ATOM     11  C   UNL     1       3.954   4.332  19.439  0.00  0.00    +0.000 A 
ATOM     12  F   UNL     1       4.847   5.149  20.021  0.00  0.00    +0.000 F 
ATOM     13  C   UNL     1       4.159   2.958  19.583  0.00  0.00    +0.000 A 
ATOM     14  C   UNL     1       3.311   2.061  18.945  0.00  0.00    +0.000 A 
ATOM     15  C   UNL     1       2.271   2.553  18.161  0.00  0.00    +0.000 A 
ATOM     16  C   UNL     1       2.048   3.931  18.068  0.00  0.00    +0.000 A 
ATOM     17  F   UNL     1       1.009   4.340  17.323  0.00  0.00    +0.000 F 
ENDBRANCH   8  10
BRANCH   1  21
ATOM     18  C   UNL     1      -0.311   9.024  23.339  0.00  0.00    +0.000 C 
ATOM     19  C   UNL     1       0.753   9.329  22.320  0.00  0.00    +0.000 C 
ATOM     20  O   UNL     1       1.871   9.678  22.691  0.00  0.00    +0.000 OA
ATOM     21  N   UNL     1       0.330   9.165  21.010  0.00  0.00    +0.000 N 
ATOM     22  H   UNL     1      -0.660   9.032  20.821  0.00  0.00    +0.000 HD
ENDBRANCH   1  21
BRANCH   9  23
ATOM     23  C   UNL     1       3.874   6.946  16.604  0.00  0.00    +0.000 C 
BRANCH  23  24
ATOM     24  C   UNL     1       5.152   6.222  16.913  0.00  0.00    +0.000 A 
ATOM     25  C   UNL     1       5.347   4.900  16.514  0.00  0.00    +0.000 A 
ATOM     26  F   UNL     1       4.375   4.255  15.856  0.00  0.00    +0.000 F 
ATOM     27  C   UNL     1       6.549   4.237  16.756  0.00  0.00    +0.000 A 
ATOM     28  C   UNL     1       7.593   4.907  17.393  0.00  0.00    +0.000 A 
ATOM     29  C   UNL     1       7.428   6.236  17.777  0.00  0.00    +0.000 A 
ATOM     30  C   UNL     1       6.217   6.879  17.531  0.00  0.00    +0.000 A 
ATOM     31  F   UNL     1       6.083   8.161  17.899  0.00  0.00    +0.000 F 
ENDBRANCH  23  24
ENDBRANCH   9  23
TORSDOF 4
ENDMDL
MODEL 6
REMARK VINA RESULT:      -8.1      2.511      6.106
REMARK  Name = 
REMARK  5 active torsions:
REMARK  status: ('A' for Active; 'I' for Inactive)
REMARK    1  A    between atoms: C_1  and  C_2
REMARK    2  A    between atoms: N_4  and  C_5
REMARK    3  A    between atoms: C_12  and  C_13
REMARK    4  A    between atoms: N_21  and  C_22
REMARK    5  A    between atoms: C_22  and  C_23
REMARK                            x       y       z     vdW  Elec       q    Type
REMARK                         _______ _______ _______ _____ _____    ______ ____
ROOT
ATOM      1  C   UNL     1       6.417   6.538  16.774  0.00  0.00    +0.000 A 
ATOM      2  C   UNL     1       6.881   5.389  16.112  0.00  0.00    +0.000 A 
ATOM      3  C   UNL     1       6.074   4.269  15.943  0.00  0.00    +0.000 A 
ATOM      4  C   UNL     1       4.781   4.233  16.458  0.00  0.00    +0.000 A 
ATOM      5  C   UNL     1       4.346   5.339  17.199  0.00  0.00    +0.000 A 
ATOM      6  C   UNL     1       5.124   6.483  17.360  0.00  0.00    +0.000 A 
ATOM      7  N   UNL     1       4.428   7.432  18.082  0.00  0.00    +0.000 NA
ATOM      8  C   UNL     1       3.249   6.900  18.391  0.00  0.00    +0.000 A 
ATOM      9  N   UNL     1       3.183   5.597  17.901  0.00  0.00    +0.000 N 
ENDROOT
BRANCH   8  10
ATOM     10  C   UNL     1       2.213   7.579  19.192  0.00  0.00    +0.000 A 
ATOM     11  C   UNL     1       1.918   7.226  20.516  0.00  0.00    +0.000 A 
ATOM     12  F   UNL     1       2.500   6.157  21.084  0.00  0.00    +0.000 F 
ATOM     13  C   UNL     1       1.034   7.964  21.307  0.00  0.00    +0.000 A 
ATOM     14  C   UNL     1       0.346   9.039  20.757  0.00  0.00    +0.000 A 
ATOM     15  C   UNL     1       0.545   9.355  19.416  0.00  0.00    +0.000 A 
ATOM     16  C   UNL     1       1.471   8.637  18.651  0.00  0.00    +0.000 A 
ATOM     17  F   UNL     1       1.640   9.013  17.373  0.00  0.00    +0.000 F 
ENDBRANCH   8  10
BRANCH   1  21
ATOM     18  C   UNL     1       8.724   9.386  17.717  0.00  0.00    +0.000 C 
ATOM     19  C   UNL     1       8.069   8.042  17.882  0.00  0.00    +0.000 C 
ATOM     20  O   UNL     1       8.342   7.347  18.858  0.00  0.00    +0.000 OA
ATOM     21  N   UNL     1       7.181   7.728  16.866  0.00  0.00    +0.000 N 
ATOM     22  H   UNL     1       7.160   8.306  16.030  0.00  0.00    +0.000 HD
ENDBRANCH   1  21
BRANCH   9  23
ATOM     23  C   UNL     1       2.078   4.647  18.036  0.00  0.00    +0.000 C 
BRANCH  23  24
ATOM     24  C   UNL     1       2.121   3.790  19.267  0.00  0.00    +0.000 A 
ATOM     25  C   UNL     1       3.227   2.989  19.550  0.00  0.00    +0.000 A 
ATOM     26  F   UNL     1       4.267   2.970  18.705  0.00  0.00    +0.000 F 
ATOM     27  C   UNL     1       3.293   2.227  20.714  0.00  0.00    +0.000 A 
ATOM     28  C   UNL     1       2.245   2.272  21.633  0.00  0.00    +0.000 A 
ATOM     29  C   UNL     1       1.142   3.084  21.381  0.00  0.00    +0.000 A 
ATOM     30  C   UNL     1       1.092   3.835  20.209  0.00  0.00    +0.000 A 
ATOM     31  F   UNL     1       0.026   4.618  19.992  0.00  0.00    +0.000 F 
ENDBRANCH  23  24
ENDBRANCH   9  23
TORSDOF 4
ENDMDL
MODEL 7
REMARK VINA RESULT:      -8.1      1.504      2.301
REMARK  Name = 
REMARK  5 active torsions:
REMARK  status: ('A' for Active; 'I' for Inactive)
REMARK    1  A    between atoms: C_1  and  C_2
REMARK    2  A    between atoms: N_4  and  C_5
REMARK    3  A    between atoms: C_12  and  C_13
REMARK    4  A    between atoms: N_21  and  C_22
REMARK    5  A    between atoms: C_22  and  C_23
REMARK                            x       y       z     vdW  Elec       q    Type
REMARK                         _______ _______ _______ _____ _____    ______ ____
ROOT
ATOM      1  C   UNL     1       1.273   9.162  20.069  0.00  0.00    +0.000 A 
ATOM      2  C   UNL     1       1.332  10.423  19.452  0.00  0.00    +0.000 A 
ATOM      3  C   UNL     1       1.891  10.592  18.190  0.00  0.00    +0.000 A 
ATOM      4  C   UNL     1       2.447   9.517  17.503  0.00  0.00    +0.000 A 
ATOM      5  C   UNL     1       2.474   8.276  18.152  0.00  0.00    +0.000 A 
ATOM      6  C   UNL     1       1.898   8.074  19.403  0.00  0.00    +0.000 A 
ATOM      7  N   UNL     1       2.021   6.750  19.773  0.00  0.00    +0.000 NA
ATOM      8  C   UNL     1       2.676   6.130  18.797  0.00  0.00    +0.000 A 
ATOM      9  N   UNL     1       3.009   7.048  17.803  0.00  0.00    +0.000 N 
ENDROOT
BRANCH   8  10
ATOM     10  C   UNL     1       3.044   4.702  18.816  0.00  0.00    +0.000 A 
ATOM     11  C   UNL     1       4.208   4.222  19.434  0.00  0.00    +0.000 A 
ATOM     12  F   UNL     1       5.111   5.074  19.944  0.00  0.00    +0.000 F 
ATOM     13  C   UNL     1       4.475   2.857  19.565  0.00  0.00    +0.000 A 
ATOM     14  C   UNL     1       3.615   1.925  18.995  0.00  0.00    +0.000 A 
ATOM     15  C   UNL     1       2.501   2.375  18.292  0.00  0.00    +0.000 A 
ATOM     16  C   UNL     1       2.220   3.743  18.212  0.00  0.00    +0.000 A 
ATOM     17  F   UNL     1       1.114   4.109  17.546  0.00  0.00    +0.000 F 
ENDBRANCH   8  10
BRANCH   1  21
ATOM     18  C   UNL     1      -0.407   9.395  23.452  0.00  0.00    +0.000 C 
ATOM     19  C   UNL     1       0.271   9.929  22.220  0.00  0.00    +0.000 C 
ATOM     20  O   UNL     1       0.473  11.136  22.110  0.00  0.00    +0.000 OA
ATOM     21  N   UNL     1       0.614   8.946  21.306  0.00  0.00    +0.000 N 
ATOM     22  H   UNL     1       0.251   8.005  21.429  0.00  0.00    +0.000 HD
ENDBRANCH   1  21
BRANCH   9  23
ATOM     23  C   UNL     1       3.749   6.797  16.566  0.00  0.00    +0.000 C 
BRANCH  23  24
ATOM     24  C   UNL     1       5.092   6.151  16.746  0.00  0.00    +0.000 A 
ATOM     25  C   UNL     1       6.135   6.822  17.383  0.00  0.00    +0.000 A 
ATOM     26  F   UNL     1       5.947   8.070  17.832  0.00  0.00    +0.000 F 
ATOM     27  C   UNL     1       7.369   6.212  17.595  0.00  0.00    +0.000 A 
ATOM     28  C   UNL     1       7.571   4.895  17.182  0.00  0.00    +0.000 A 
ATOM     29  C   UNL     1       6.534   4.198  16.566  0.00  0.00    +0.000 A 
ATOM     30  C   UNL     1       5.309   4.828  16.359  0.00  0.00    +0.000 A 
ATOM     31  F   UNL     1       4.321   4.136  15.774  0.00  0.00    +0.000 F 
ENDBRANCH  23  24
ENDBRANCH   9  23
TORSDOF 4
ENDMDL
MODEL 8
REMARK VINA RESULT:      -8.1      1.476      1.740
REMARK  Name = 
REMARK  5 active torsions:
REMARK  status: ('A' for Active; 'I' for Inactive)
REMARK    1  A    between atoms: C_1  and  C_2
REMARK    2  A    between atoms: N_4  and  C_5
REMARK    3  A    between atoms: C_12  and  C_13
REMARK    4  A    between atoms: N_21  and  C_22
REMARK    5  A    between atoms: C_22  and  C_23
REMARK                            x       y       z     vdW  Elec       q    Type
REMARK                         _______ _______ _______ _____ _____    ______ ____
ROOT
ATOM      1  C   UNL     1       1.148   9.301  19.854  0.00  0.00    +0.000 A 
ATOM      2  C   UNL     1       1.322  10.567  19.270  0.00  0.00    +0.000 A 
ATOM      3  C   UNL     1       2.014  10.729  18.075  0.00  0.00    +0.000 A 
ATOM      4  C   UNL     1       2.594   9.640  17.429  0.00  0.00    +0.000 A 
ATOM      5  C   UNL     1       2.503   8.391  18.054  0.00  0.00    +0.000 A 
ATOM      6  C   UNL     1       1.793   8.196  19.236  0.00  0.00    +0.000 A 
ATOM      7  N   UNL     1       1.822   6.863  19.593  0.00  0.00    +0.000 NA
ATOM      8  C   UNL     1       2.548   6.230  18.678  0.00  0.00    +0.000 A 
ATOM      9  N   UNL     1       3.019   7.146  17.740  0.00  0.00    +0.000 N 
ENDROOT
BRANCH   8  10
ATOM     10  C   UNL     1       2.852   4.787  18.708  0.00  0.00    +0.000 A 
ATOM     11  C   UNL     1       2.066   3.827  18.055  0.00  0.00    +0.000 A 
ATOM     12  F   UNL     1       0.916   4.178  17.457  0.00  0.00    +0.000 F 
ATOM     13  C   UNL     1       2.440   2.483  17.976  0.00  0.00    +0.000 A 
ATOM     14  C   UNL     1       3.582   2.043  18.635  0.00  0.00    +0.000 A 
ATOM     15  C   UNL     1       4.331   2.954  19.373  0.00  0.00    +0.000 A 
ATOM     16  C   UNL     1       3.972   4.306  19.401  0.00  0.00    +0.000 A 
ATOM     17  F   UNL     1       4.754   5.139  20.105  0.00  0.00    +0.000 F 
ENDBRANCH   8  10
BRANCH   1  21
ATOM     18  C   UNL     1      -0.285   8.975  23.342  0.00  0.00    +0.000 C 
ATOM     19  C   UNL     1       0.773   9.290  22.320  0.00  0.00    +0.000 C 
ATOM     20  O   UNL     1       1.881   9.672  22.687  0.00  0.00    +0.000 OA
ATOM     21  N   UNL     1       0.356   9.096  21.013  0.00  0.00    +0.000 N 
ATOM     22  H   UNL     1      -0.629   8.937  20.825  0.00  0.00    +0.000 HD
ENDBRANCH   1  21
BRANCH   9  23
ATOM     23  C   UNL     1       3.872   6.881  16.581  0.00  0.00    +0.000 C 
BRANCH  23  24
ATOM     24  C   UNL     1       5.160   6.173  16.885  0.00  0.00    +0.000 A 
ATOM     25  C   UNL     1       5.382   4.865  16.457  0.00  0.00    +0.000 A 
ATOM     26  F   UNL     1       4.429   4.218  15.775  0.00  0.00    +0.000 F 
ATOM     27  C   UNL     1       6.594   4.219  16.696  0.00  0.00    +0.000 A 
ATOM     28  C   UNL     1       7.620   4.891  17.358  0.00  0.00    +0.000 A 
ATOM     29  C   UNL     1       7.427   6.208  17.772  0.00  0.00    +0.000 A 
ATOM     30  C   UNL     1       6.206   6.835  17.529  0.00  0.00    +0.000 A 
ATOM     31  F   UNL     1       6.046   8.104  17.927  0.00  0.00    +0.000 F 
ENDBRANCH  23  24
ENDBRANCH   9  23
TORSDOF 4
ENDMDL
MODEL 9
REMARK VINA RESULT:      -8.0      1.504      1.849
REMARK  Name = 
REMARK  5 active torsions:
REMARK  status: ('A' for Active; 'I' for Inactive)
REMARK    1  A    between atoms: C_1  and  C_2
REMARK    2  A    between atoms: N_4  and  C_5
REMARK    3  A    between atoms: C_12  and  C_13
REMARK    4  A    between atoms: N_21  and  C_22
REMARK    5  A    between atoms: C_22  and  C_23
REMARK                            x       y       z     vdW  Elec       q    Type
REMARK                         _______ _______ _______ _____ _____    ______ ____
ROOT
ATOM      1  C   UNL     1       1.252   9.134  20.029  0.00  0.00    +0.000 A 
ATOM      2  C   UNL     1       1.344  10.390  19.407  0.00  0.00    +0.000 A 
ATOM      3  C   UNL     1       1.919  10.539  18.149  0.00  0.00    +0.000 A 
ATOM      4  C   UNL     1       2.460   9.449  17.474  0.00  0.00    +0.000 A 
ATOM      5  C   UNL     1       2.454   8.212  18.130  0.00  0.00    +0.000 A 
ATOM      6  C   UNL     1       1.861   8.029  19.376  0.00  0.00    +0.000 A 
ATOM      7  N   UNL     1       1.951   6.704  19.754  0.00  0.00    +0.000 NA
ATOM      8  C   UNL     1       2.604   6.066  18.788  0.00  0.00    +0.000 A 
ATOM      9  N   UNL     1       2.966   6.971  17.793  0.00  0.00    +0.000 N 
ENDROOT
BRANCH   8  10
ATOM     10  C   UNL     1       2.941   4.630  18.819  0.00  0.00    +0.000 A 
ATOM     11  C   UNL     1       2.131   3.644  18.237  0.00  0.00    +0.000 A 
ATOM     12  F   UNL     1       0.935   3.961  17.718  0.00  0.00    +0.000 F 
ATOM     13  C   UNL     1       2.528   2.307  18.153  0.00  0.00    +0.000 A 
ATOM     14  C   UNL     1       3.723   1.901  18.735  0.00  0.00    +0.000 A 
ATOM     15  C   UNL     1       4.502   2.840  19.405  0.00  0.00    +0.000 A 
ATOM     16  C   UNL     1       4.116   4.184  19.438  0.00  0.00    +0.000 A 
ATOM     17  F   UNL     1       4.928   5.045  20.072  0.00  0.00    +0.000 F 
ENDBRANCH   8  10
BRANCH   1  21
ATOM     18  C   UNL     1      -0.432   9.416  23.407  0.00  0.00    +0.000 C 
ATOM     19  C   UNL     1       0.279   9.928  22.184  0.00  0.00    +0.000 C 
ATOM     20  O   UNL     1       0.545  11.124  22.089  0.00  0.00    +0.000 OA
ATOM     21  N   UNL     1       0.575   8.939  21.260  0.00  0.00    +0.000 N 
ATOM     22  H   UNL     1       0.163   8.017  21.370  0.00  0.00    +0.000 HD
ENDBRANCH   1  21
BRANCH   9  23
ATOM     23  C   UNL     1       3.714   6.697  16.565  0.00  0.00    +0.000 C 
BRANCH  23  24
ATOM     24  C   UNL     1       5.073   6.093  16.767  0.00  0.00    +0.000 A 
ATOM     25  C   UNL     1       6.087   6.799  17.412  0.00  0.00    +0.000 A 
ATOM     26  F   UNL     1       5.857   8.044  17.849  0.00  0.00    +0.000 F 
ATOM     27  C   UNL     1       7.336   6.227  17.644  0.00  0.00    +0.000 A 
ATOM     28  C   UNL     1       7.582   4.914  17.244  0.00  0.00    +0.000 A 
ATOM     29  C   UNL     1       6.573   4.182  16.621  0.00  0.00    +0.000 A 
ATOM     30  C   UNL     1       5.333   4.774  16.393  0.00  0.00    +0.000 A 
ATOM     31  F   UNL     1       4.374   4.049  15.801  0.00  0.00    +0.000 F 
ENDBRANCH  23  24
ENDBRANCH   9  23
TORSDOF 4
ENDMDL
