MODEL 1
REMARK VINA RESULT:      -8.3      0.000      0.000
REMARK  Name = 
REMARK  12 active torsions:
REMARK  status: ('A' for Active; 'I' for Inactive)
REMARK    1  A    between atoms: C_2  and  C_4
REMARK    2  A    between atoms: N_7  and  C_8
REMARK    3  A    between atoms: C_8  and  C_9
REMARK    4  A    between atoms: C_9  and  C_10
REMARK    5  A    between atoms: C_10  and  O_11
REMARK    6  A    between atoms: C_15  and  O_16
REMARK    7  A    between atoms: O_16  and  C_17
REMARK    8  A    between atoms: C_17  and  C_18
REMARK    9  A    between atoms: C_24  and  O_25
REMARK   10  A    between atoms: O_25  and  C_26
REMARK   11  A    between atoms: C_26  and  C_27
REMARK   12  A    between atoms: C_33  and  C_34
REMARK                            x       y       z     vdW  Elec       q    Type
REMARK                         _______ _______ _______ _____ _____    ______ ____
ROOT
ATOM      1  C   UNL     1       4.447   6.073  18.114  0.00  0.00    +0.000 C 
ATOM      2  N   UNL     1       5.763   6.598  18.015  0.00  0.00    +0.000 N 
ATOM      3  C   UNL     1       6.456   6.064  16.958  0.00  0.00    +0.000 C 
ATOM      4  O   UNL     1       7.547   6.443  16.572  0.00  0.00    +0.000 OA
ATOM      5  C   UNL     1       5.644   4.957  16.398  0.00  0.00    +0.000 C 
ATOM      6  C   UNL     1       4.522   4.919  17.140  0.00  0.00    +0.000 C 
ATOM      7  H   UNL     1       6.157   7.360  18.548  0.00  0.00    +0.000 HD
ENDROOT
BRANCH   1   8
ATOM      8  O   UNL     1       4.264   5.602  19.425  0.00  0.00    +0.000 OA
ATOM      9  H   UNL     1       5.111   5.678  19.890  0.00  0.00    +0.000 HD
ENDBRANCH   1   8
BRANCH   1  10
ATOM     10  C   UNL     1       3.377   7.097  17.700  0.00  0.00    +0.000 C 
BRANCH  10  11
ATOM     11  C   UNL     1       2.386   7.416  18.828  0.00  0.00    +0.000 C 
BRANCH  11  15
ATOM     12  C   UNL     1       0.842  10.613  19.503  0.00  0.00    +0.000 A 
ATOM     13  N   UNL     1       1.360  10.832  18.232  0.00  0.00    +0.000 NA
ATOM     14  C   UNL     1       1.945   9.712  17.886  0.00  0.00    +0.000 A 
ATOM     15  N   UNL     1       1.831   8.765  18.861  0.00  0.00    +0.000 N 
ATOM     16  C   UNL     1       1.130   9.315  19.930  0.00  0.00    +0.000 A 
BRANCH  12  18
ATOM     17  N   UNL     1      -1.262  11.511  20.110  0.00  0.00    +0.000 N 
ATOM     18  C   UNL     1       0.089  11.664  20.187  0.00  0.00    +0.000 C 
ATOM     19  O   UNL     1       0.589  12.623  20.772  0.00  0.00    +0.000 OA
ATOM     20  H   UNL     1      -1.874  12.185  20.541  0.00  0.00    +0.000 HD
ATOM     21  H   UNL     1      -1.637  10.721  19.593  0.00  0.00    +0.000 HD
ENDBRANCH  12  18
BRANCH  16  22
ATOM     22  C   UNL     1       0.810   8.596  21.142  0.00  0.00    +0.000 C 
ATOM     23  N   UNL     1       1.782   8.475  22.085  0.00  0.00    +0.000 N 
ATOM     24  O   UNL     1      -0.278   8.063  21.343  0.00  0.00    +0.000 OA
ATOM     25  H   UNL     1       2.610   9.066  22.075  0.00  0.00    +0.000 HD
ATOM     26  H   UNL     1       1.508   8.106  22.983  0.00  0.00    +0.000 HD
ENDBRANCH  16  22
ENDBRANCH  11  15
ENDBRANCH  10  11
ENDBRANCH   1  10
BRANCH   5  27
ATOM     27  O   UNL     1       5.960   4.147  15.341  0.00  0.00    +0.000 OA
BRANCH  27  28
ATOM     28  C   UNL     1       6.027   4.832  14.086  0.00  0.00    +0.000 C 
BRANCH  28  29
ATOM     29  C   UNL     1       5.948   3.815  12.973  0.00  0.00    +0.000 A 
ATOM     30  C   UNL     1       4.704   3.444  12.439  0.00  0.00    +0.000 A 
ATOM     31  C   UNL     1       4.626   2.508  11.406  0.00  0.00    +0.000 A 
ATOM     32  C   UNL     1       5.789   1.934  10.897  0.00  0.00    +0.000 A 
ATOM     33  C   UNL     1       7.030   2.295  11.419  0.00  0.00    +0.000 A 
ATOM     34  C   UNL     1       7.111   3.231  12.452  0.00  0.00    +0.000 A 
ENDBRANCH  28  29
ENDBRANCH  27  28
ENDBRANCH   5  27
BRANCH   6  35
ATOM     35  O   UNL     1       3.484   4.022  17.116  0.00  0.00    +0.000 OA
BRANCH  35  36
ATOM     36  C   UNL     1       3.689   2.789  17.821  0.00  0.00    +0.000 C 
BRANCH  36  37
ATOM     37  C   UNL     1       2.876   2.825  19.094  0.00  0.00    +0.000 A 
ATOM     38  C   UNL     1       3.441   2.483  20.330  0.00  0.00    +0.000 A 
ATOM     39  C   UNL     1       2.671   2.517  21.495  0.00  0.00    +0.000 A 
ATOM     40  C   UNL     1       1.331   2.899  21.438  0.00  0.00    +0.000 A 
ATOM     41  C   UNL     1       0.763   3.258  20.219  0.00  0.00    +0.000 A 
ATOM     42  C   UNL     1       1.530   3.226  19.054  0.00  0.00    +0.000 A 
ENDBRANCH  36  37
ENDBRANCH  35  36
ENDBRANCH   6  35
TORSDOF 12
ENDMDL
MODEL 2
REMARK VINA RESULT:      -8.3      1.135      1.806
REMARK  Name = 
REMARK  12 active torsions:
REMARK  status: ('A' for Active; 'I' for Inactive)
REMARK    1  A    between atoms: C_2  and  C_4
REMARK    2  A    between atoms: N_7  and  C_8
REMARK    3  A    between atoms: C_8  and  C_9
REMARK    4  A    between atoms: C_9  and  C_10
REMARK    5  A    between atoms: C_10  and  O_11
REMARK    6  A    between atoms: C_15  and  O_16
REMARK    7  A    between atoms: O_16  and  C_17
REMARK    8  A    between atoms: C_17  and  C_18
REMARK    9  A    between atoms: C_24  and  O_25
REMARK   10  A    between atoms: O_25  and  C_26
REMARK   11  A    between atoms: C_26  and  C_27
REMARK   12  A    between atoms: C_33  and  C_34
REMARK                            x       y       z     vdW  Elec       q    Type
REMARK                         _______ _______ _______ _____ _____    ______ ____
ROOT
ATOM      1  C   UNL     1       4.711   6.142  18.014  0.00  0.00    +0.000 C 
ATOM      2  N   UNL     1       6.041   6.608  17.840  0.00  0.00    +0.000 N 
ATOM      3  C   UNL     1       6.656   6.032  16.757  0.00  0.00    +0.000 C 
ATOM      4  O   UNL     1       7.741   6.359  16.311  0.00  0.00    +0.000 OA
ATOM      5  C   UNL     1       5.770   4.954  16.255  0.00  0.00    +0.000 C 
ATOM      6  C   UNL     1       4.687   4.974  17.053  0.00  0.00    +0.000 C 
ATOM      7  H   UNL     1       6.494   7.359  18.341  0.00  0.00    +0.000 HD
ENDROOT
BRANCH   1   8
ATOM      8  O   UNL     1       4.576   5.696  19.339  0.00  0.00    +0.000 OA
ATOM      9  H   UNL     1       5.457   5.690  19.743  0.00  0.00    +0.000 HD
ENDBRANCH   1   8
BRANCH   1  10
ATOM     10  C   UNL     1       3.666   7.207  17.640  0.00  0.00    +0.000 C 
BRANCH  10  11
ATOM     11  C   UNL     1       2.276   6.910  18.219  0.00  0.00    +0.000 C 
BRANCH  11  15
ATOM     12  C   UNL     1       1.093   9.278  20.679  0.00  0.00    +0.000 A 
ATOM     13  N   UNL     1       1.386   8.183  21.485  0.00  0.00    +0.000 NA
ATOM     14  C   UNL     1       1.836   7.256  20.677  0.00  0.00    +0.000 A 
ATOM     15  N   UNL     1       1.863   7.686  19.383  0.00  0.00    +0.000 N 
ATOM     16  C   UNL     1       1.379   8.991  19.342  0.00  0.00    +0.000 A 
BRANCH  12  18
ATOM     17  N   UNL     1       1.088  11.645  20.689  0.00  0.00    +0.000 N 
ATOM     18  C   UNL     1       0.591  10.518  21.269  0.00  0.00    +0.000 C 
ATOM     19  O   UNL     1      -0.194  10.581  22.214  0.00  0.00    +0.000 OA
ATOM     20  H   UNL     1       0.812  12.553  21.026  0.00  0.00    +0.000 HD
ATOM     21  H   UNL     1       1.756  11.551  19.929  0.00  0.00    +0.000 HD
ENDBRANCH  12  18
BRANCH  16  22
ATOM     22  C   UNL     1       1.270   9.776  18.134  0.00  0.00    +0.000 C 
ATOM     23  N   UNL     1       0.071   9.794  17.493  0.00  0.00    +0.000 N 
ATOM     24  O   UNL     1       2.212  10.392  17.643  0.00  0.00    +0.000 OA
ATOM     25  H   UNL     1      -0.784   9.491  17.954  0.00  0.00    +0.000 HD
ATOM     26  H   UNL     1      -0.037  10.458  16.741  0.00  0.00    +0.000 HD
ENDBRANCH  16  22
ENDBRANCH  11  15
ENDBRANCH  10  11
ENDBRANCH   1  10
BRANCH   5  27
ATOM     27  O   UNL     1       5.996   4.119  15.195  0.00  0.00    +0.000 OA
BRANCH  27  28
ATOM     28  C   UNL     1       5.552   4.642  13.939  0.00  0.00    +0.000 C 
BRANCH  28  29
ATOM     29  C   UNL     1       5.890   3.650  12.852  0.00  0.00    +0.000 A 
ATOM     30  C   UNL     1       4.876   2.904  12.233  0.00  0.00    +0.000 A 
ATOM     31  C   UNL     1       5.183   1.990  11.224  0.00  0.00    +0.000 A 
ATOM     32  C   UNL     1       6.506   1.812  10.824  0.00  0.00    +0.000 A 
ATOM     33  C   UNL     1       7.522   2.549  11.432  0.00  0.00    +0.000 A 
ATOM     34  C   UNL     1       7.217   3.464  12.441  0.00  0.00    +0.000 A 
ENDBRANCH  28  29
ENDBRANCH  27  28
ENDBRANCH   5  27
BRANCH   6  35
ATOM     35  O   UNL     1       3.611   4.123  17.095  0.00  0.00    +0.000 OA
BRANCH  35  36
ATOM     36  C   UNL     1       3.803   2.886  17.797  0.00  0.00    +0.000 C 
BRANCH  36  37
ATOM     37  C   UNL     1       2.949   2.906  19.044  0.00  0.00    +0.000 A 
ATOM     38  C   UNL     1       3.479   2.570  20.297  0.00  0.00    +0.000 A 
ATOM     39  C   UNL     1       2.671   2.588  21.436  0.00  0.00    +0.000 A 
ATOM     40  C   UNL     1       1.328   2.949  21.337  0.00  0.00    +0.000 A 
ATOM     41  C   UNL     1       0.794   3.304  20.101  0.00  0.00    +0.000 A 
ATOM     42  C   UNL     1       1.599   3.286  18.961  0.00  0.00    +0.000 A 
ENDBRANCH  36  37
ENDBRANCH  35  36
ENDBRANCH   6  35
TORSDOF 12
ENDMDL
MODEL 3
REMARK VINA RESULT:      -8.3      3.744      7.641
REMARK  Name = 
REMARK  12 active torsions:
REMARK  status: ('A' for Active; 'I' for Inactive)
REMARK    1  A    between atoms: C_2  and  C_4
REMARK    2  A    between atoms: N_7  and  C_8
REMARK    3  A    between atoms: C_8  and  C_9
REMARK    4  A    between atoms: C_9  and  C_10
REMARK    5  A    between atoms: C_10  and  O_11
REMARK    6  A    between atoms: C_15  and  O_16
REMARK    7  A    between atoms: O_16  and  C_17
REMARK    8  A    between atoms: C_17  and  C_18
REMARK    9  A    between atoms: C_24  and  O_25
REMARK   10  A    between atoms: O_25  and  C_26
REMARK   11  A    between atoms: C_26  and  C_27
REMARK   12  A    between atoms: C_33  and  C_34
REMARK                            x       y       z     vdW  Elec       q    Type
REMARK                         _______ _______ _______ _____ _____    ______ ____
ROOT
ATOM      1  C   UNL     1       5.591   4.774  17.310  0.00  0.00    +0.000 C 
ATOM      2  N   UNL     1       6.028   4.668  18.658  0.00  0.00    +0.000 N 
ATOM      3  C   UNL     1       6.916   5.657  18.995  0.00  0.00    +0.000 C 
ATOM      4  O   UNL     1       7.332   5.873  20.119  0.00  0.00    +0.000 OA
ATOM      5  C   UNL     1       7.271   6.387  17.754  0.00  0.00    +0.000 C 
ATOM      6  C   UNL     1       6.561   5.802  16.772  0.00  0.00    +0.000 C 
ATOM      7  H   UNL     1       5.673   4.040  19.366  0.00  0.00    +0.000 HD
ENDROOT
BRANCH   1   8
ATOM      8  O   UNL     1       5.793   3.530  16.689  0.00  0.00    +0.000 OA
ATOM      9  H   UNL     1       5.821   3.676  15.732  0.00  0.00    +0.000 HD
ENDBRANCH   1   8
BRANCH   1  10
ATOM     10  C   UNL     1       4.135   5.257  17.205  0.00  0.00    +0.000 C 
BRANCH  10  11
ATOM     11  C   UNL     1       3.115   4.119  17.352  0.00  0.00    +0.000 C 
BRANCH  11  15
ATOM     12  C   UNL     1       2.113   3.132  20.681  0.00  0.00    +0.000 A 
ATOM     13  N   UNL     1       1.315   4.254  20.486  0.00  0.00    +0.000 NA
ATOM     14  C   UNL     1       1.602   4.691  19.285  0.00  0.00    +0.000 A 
ATOM     15  N   UNL     1       2.540   3.910  18.677  0.00  0.00    +0.000 N 
ATOM     16  C   UNL     1       2.904   2.894  19.555  0.00  0.00    +0.000 A 
BRANCH  12  18
ATOM     17  N   UNL     1       0.803   2.429  22.523  0.00  0.00    +0.000 N 
ATOM     18  C   UNL     1       2.024   2.367  21.925  0.00  0.00    +0.000 C 
ATOM     19  O   UNL     1       2.948   1.729  22.427  0.00  0.00    +0.000 OA
ATOM     20  H   UNL     1       0.638   1.944  23.390  0.00  0.00    +0.000 HD
ATOM     21  H   UNL     1       0.074   2.991  22.092  0.00  0.00    +0.000 HD
ENDBRANCH  12  18
BRANCH  16  22
ATOM     22  C   UNL     1       3.872   1.866  19.245  0.00  0.00    +0.000 C 
ATOM     23  N   UNL     1       5.004   1.812  19.996  0.00  0.00    +0.000 N 
ATOM     24  O   UNL     1       3.738   1.070  18.320  0.00  0.00    +0.000 OA
ATOM     25  H   UNL     1       5.072   2.291  20.892  0.00  0.00    +0.000 HD
ATOM     26  H   UNL     1       5.599   1.008  19.873  0.00  0.00    +0.000 HD
ENDBRANCH  16  22
ENDBRANCH  11  15
ENDBRANCH  10  11
ENDBRANCH   1  10
BRANCH   5  27
ATOM     27  O   UNL     1       8.131   7.444  17.629  0.00  0.00    +0.000 OA
BRANCH  27  28
ATOM     28  C   UNL     1       7.480   8.715  17.535  0.00  0.00    +0.000 C 
BRANCH  28  29
ATOM     29  C   UNL     1       8.377   9.767  18.141  0.00  0.00    +0.000 A 
ATOM     30  C   UNL     1       9.065   9.508  19.337  0.00  0.00    +0.000 A 
ATOM     31  C   UNL     1       9.900  10.475  19.899  0.00  0.00    +0.000 A 
ATOM     32  C   UNL     1      10.056  11.710  19.273  0.00  0.00    +0.000 A 
ATOM     33  C   UNL     1       9.378  11.978  18.084  0.00  0.00    +0.000 A 
ATOM     34  C   UNL     1       8.543  11.012  17.520  0.00  0.00    +0.000 A 
ENDBRANCH  28  29
ENDBRANCH  27  28
ENDBRANCH   5  27
BRANCH   6  35
ATOM     35  O   UNL     1       6.591   6.018  15.417  0.00  0.00    +0.000 OA
BRANCH  35  36
ATOM     36  C   UNL     1       7.556   5.260  14.673  0.00  0.00    +0.000 C 
BRANCH  36  37
ATOM     37  C   UNL     1       6.828   4.486  13.597  0.00  0.00    +0.000 A 
ATOM     38  C   UNL     1       7.496   4.019  12.457  0.00  0.00    +0.000 A 
ATOM     39  C   UNL     1       6.805   3.311  11.471  0.00  0.00    +0.000 A 
ATOM     40  C   UNL     1       5.442   3.056  11.618  0.00  0.00    +0.000 A 
ATOM     41  C   UNL     1       4.771   3.498  12.755  0.00  0.00    +0.000 A 
ATOM     42  C   UNL     1       5.460   4.206  13.741  0.00  0.00    +0.000 A 
ENDBRANCH  36  37
ENDBRANCH  35  36
ENDBRANCH   6  35
TORSDOF 12
ENDMDL
MODEL 4
REMARK VINA RESULT:      -8.2      1.061      2.028
REMARK  Name = 
REMARK  12 active torsions:
REMARK  status: ('A' for Active; 'I' for Inactive)
REMARK    1  A    between atoms: C_2  and  C_4
REMARK    2  A    between atoms: N_7  and  C_8
REMARK    3  A    between atoms: C_8  and  C_9
REMARK    4  A    between atoms: C_9  and  C_10
REMARK    5  A    between atoms: C_10  and  O_11
REMARK    6  A    between atoms: C_15  and  O_16
REMARK    7  A    between atoms: O_16  and  C_17
REMARK    8  A    between atoms: C_17  and  C_18
REMARK    9  A    between atoms: C_24  and  O_25
REMARK   10  A    between atoms: O_25  and  C_26
REMARK   11  A    between atoms: C_26  and  C_27
REMARK   12  A    between atoms: C_33  and  C_34
REMARK                            x       y       z     vdW  Elec       q    Type
REMARK                         _______ _______ _______ _____ _____    ______ ____
ROOT
ATOM      1  C   UNL     1       4.627   6.215  17.935  0.00  0.00    +0.000 C 
ATOM      2  N   UNL     1       5.970   6.576  17.643  0.00  0.00    +0.000 N 
ATOM      3  C   UNL     1       6.436   5.967  16.505  0.00  0.00    +0.000 C 
ATOM      4  O   UNL     1       7.498   6.213  15.964  0.00  0.00    +0.000 OA
ATOM      5  C   UNL     1       5.423   4.970  16.081  0.00  0.00    +0.000 C 
ATOM      6  C   UNL     1       4.422   5.065  16.974  0.00  0.00    +0.000 C 
ATOM      7  H   UNL     1       6.525   7.282  18.105  0.00  0.00    +0.000 HD
ENDROOT
BRANCH   1   8
ATOM      8  O   UNL     1       4.578   5.764  19.265  0.00  0.00    +0.000 OA
ATOM      9  H   UNL     1       3.647   5.664  19.512  0.00  0.00    +0.000 HD
ENDBRANCH   1   8
BRANCH   1  10
ATOM     10  C   UNL     1       3.642   7.364  17.665  0.00  0.00    +0.000 C 
BRANCH  10  11
ATOM     11  C   UNL     1       2.235   7.088  18.215  0.00  0.00    +0.000 C 
BRANCH  11  15
ATOM     12  C   UNL     1       1.049   9.310  20.806  0.00  0.00    +0.000 A 
ATOM     13  N   UNL     1       1.466   8.221  21.562  0.00  0.00    +0.000 NA
ATOM     14  C   UNL     1       1.927   7.346  20.703  0.00  0.00    +0.000 A 
ATOM     15  N   UNL     1       1.843   7.807  19.422  0.00  0.00    +0.000 N 
ATOM     16  C   UNL     1       1.269   9.074  19.447  0.00  0.00    +0.000 A 
BRANCH  12  18
ATOM     17  N   UNL     1      -0.590  10.245  22.236  0.00  0.00    +0.000 N 
ATOM     18  C   UNL     1       0.500  10.498  21.459  0.00  0.00    +0.000 C 
ATOM     19  O   UNL     1       0.940  11.639  21.331  0.00  0.00    +0.000 OA
ATOM     20  H   UNL     1      -1.050  10.997  22.724  0.00  0.00    +0.000 HD
ATOM     21  H   UNL     1      -0.941   9.294  22.292  0.00  0.00    +0.000 HD
ENDBRANCH  12  18
BRANCH  16  22
ATOM     22  C   UNL     1       1.032   9.877  18.269  0.00  0.00    +0.000 C 
ATOM     23  N   UNL     1       2.035  10.690  17.842  0.00  0.00    +0.000 N 
ATOM     24  O   UNL     1      -0.035   9.887  17.663  0.00  0.00    +0.000 OA
ATOM     25  H   UNL     1       2.993  10.568  18.162  0.00  0.00    +0.000 HD
ATOM     26  H   UNL     1       1.917  11.131  16.942  0.00  0.00    +0.000 HD
ENDBRANCH  16  22
ENDBRANCH  11  15
ENDBRANCH  10  11
ENDBRANCH   1  10
BRANCH   5  27
ATOM     27  O   UNL     1       5.485   4.133  14.999  0.00  0.00    +0.000 OA
BRANCH  27  28
ATOM     28  C   UNL     1       6.152   4.697  13.866  0.00  0.00    +0.000 C 
BRANCH  28  29
ATOM     29  C   UNL     1       6.257   3.644  12.789  0.00  0.00    +0.000 A 
ATOM     30  C   UNL     1       7.486   3.398  12.157  0.00  0.00    +0.000 A 
ATOM     31  C   UNL     1       7.589   2.421  11.165  0.00  0.00    +0.000 A 
ATOM     32  C   UNL     1       6.468   1.683  10.795  0.00  0.00    +0.000 A 
ATOM     33  C   UNL     1       5.242   1.919  11.417  0.00  0.00    +0.000 A 
ATOM     34  C   UNL     1       5.136   2.894  12.409  0.00  0.00    +0.000 A 
ENDBRANCH  28  29
ENDBRANCH  27  28
ENDBRANCH   5  27
BRANCH   6  35
ATOM     35  O   UNL     1       3.290   4.301  17.109  0.00  0.00    +0.000 OA
BRANCH  35  36
ATOM     36  C   UNL     1       3.460   3.010  17.710  0.00  0.00    +0.000 C 
BRANCH  36  37
ATOM     37  C   UNL     1       2.723   2.996  19.030  0.00  0.00    +0.000 A 
ATOM     38  C   UNL     1       1.378   3.380  19.119  0.00  0.00    +0.000 A 
ATOM     39  C   UNL     1       0.717   3.367  20.350  0.00  0.00    +0.000 A 
ATOM     40  C   UNL     1       1.391   2.964  21.502  0.00  0.00    +0.000 A 
ATOM     41  C   UNL     1       2.722   2.563  21.424  0.00  0.00    +0.000 A 
ATOM     42  C   UNL     1       3.384   2.575  20.196  0.00  0.00    +0.000 A 
ENDBRANCH  36  37
ENDBRANCH  35  36
ENDBRANCH   6  35
TORSDOF 12
ENDMDL
MODEL 5
REMARK VINA RESULT:      -8.2      3.885      7.655
REMARK  Name = 
REMARK  12 active torsions:
REMARK  status: ('A' for Active; 'I' for Inactive)
REMARK    1  A    between atoms: C_2  and  C_4
REMARK    2  A    between atoms: N_7  and  C_8
REMARK    3  A    between atoms: C_8  and  C_9
REMARK    4  A    between atoms: C_9  and  C_10
REMARK    5  A    between atoms: C_10  and  O_11
REMARK    6  A    between atoms: C_15  and  O_16
REMARK    7  A    between atoms: O_16  and  C_17
REMARK    8  A    between atoms: C_17  and  C_18
REMARK    9  A    between atoms: C_24  and  O_25
REMARK   10  A    between atoms: O_25  and  C_26
REMARK   11  A    between atoms: C_26  and  C_27
REMARK   12  A    between atoms: C_33  and  C_34
REMARK                            x       y       z     vdW  Elec       q    Type
REMARK                         _______ _______ _______ _____ _____    ______ ____
ROOT
ATOM      1  C   UNL     1       5.664   4.359  16.771  0.00  0.00    +0.000 C 
ATOM      2  N   UNL     1       6.133   4.257  18.109  0.00  0.00    +0.000 N 
ATOM      3  C   UNL     1       6.941   5.310  18.457  0.00  0.00    +0.000 C 
ATOM      4  O   UNL     1       7.358   5.533  19.579  0.00  0.00    +0.000 OA
ATOM      5  C   UNL     1       7.210   6.098  17.229  0.00  0.00    +0.000 C 
ATOM      6  C   UNL     1       6.534   5.479  16.245  0.00  0.00    +0.000 C 
ATOM      7  H   UNL     1       5.846   3.585  18.806  0.00  0.00    +0.000 HD
ENDROOT
BRANCH   1   8
ATOM      8  O   UNL     1       5.958   3.153  16.115  0.00  0.00    +0.000 OA
ATOM      9  H   UNL     1       6.635   3.334  15.446  0.00  0.00    +0.000 HD
ENDBRANCH   1   8
BRANCH   1  10
ATOM     10  C   UNL     1       4.171   4.719  16.703  0.00  0.00    +0.000 C 
BRANCH  10  11
ATOM     11  C   UNL     1       3.252   3.513  16.946  0.00  0.00    +0.000 C 
BRANCH  11  15
ATOM     12  C   UNL     1       1.955   3.029  20.284  0.00  0.00    +0.000 A 
ATOM     13  N   UNL     1       1.040   3.944  19.774  0.00  0.00    +0.000 NA
ATOM     14  C   UNL     1       1.423   4.185  18.545  0.00  0.00    +0.000 A 
ATOM     15  N   UNL     1       2.538   3.469  18.217  0.00  0.00    +0.000 N 
ATOM     16  C   UNL     1       2.919   2.715  19.323  0.00  0.00    +0.000 A 
BRANCH  12  18
ATOM     17  N   UNL     1       2.984   2.163  22.232  0.00  0.00    +0.000 N 
ATOM     18  C   UNL     1       1.807   2.513  21.645  0.00  0.00    +0.000 C 
ATOM     19  O   UNL     1       0.735   2.375  22.233  0.00  0.00    +0.000 OA
ATOM     20  H   UNL     1       2.993   1.788  23.167  0.00  0.00    +0.000 HD
ATOM     21  H   UNL     1       3.845   2.265  21.702  0.00  0.00    +0.000 HD
ENDBRANCH  12  18
BRANCH  16  22
ATOM     22  C   UNL     1       4.056   1.824  19.340  0.00  0.00    +0.000 C 
ATOM     23  N   UNL     1       4.011   0.721  18.547  0.00  0.00    +0.000 N 
ATOM     24  O   UNL     1       5.036   1.995  20.059  0.00  0.00    +0.000 OA
ATOM     25  H   UNL     1       3.341   0.639  17.785  0.00  0.00    +0.000 HD
ATOM     26  H   UNL     1       4.862   0.188  18.452  0.00  0.00    +0.000 HD
ENDBRANCH  16  22
ENDBRANCH  11  15
ENDBRANCH  10  11
ENDBRANCH   1  10
BRANCH   5  27
ATOM     27  O   UNL     1       7.976   7.227  17.118  0.00  0.00    +0.000 OA
BRANCH  27  28
ATOM     28  C   UNL     1       7.240   8.445  17.273  0.00  0.00    +0.000 C 
BRANCH  28  29
ATOM     29  C   UNL     1       8.132   9.472  17.928  0.00  0.00    +0.000 A 
ATOM     30  C   UNL     1       8.869   9.140  19.076  0.00  0.00    +0.000 A 
ATOM     31  C   UNL     1       9.699  10.085  19.682  0.00  0.00    +0.000 A 
ATOM     32  C   UNL     1       9.801  11.367  19.149  0.00  0.00    +0.000 A 
ATOM     33  C   UNL     1       9.074  11.708  18.009  0.00  0.00    +0.000 A 
ATOM     34  C   UNL     1       8.243  10.765  17.401  0.00  0.00    +0.000 A 
ENDBRANCH  28  29
ENDBRANCH  27  28
ENDBRANCH   5  27
BRANCH   6  35
ATOM     35  O   UNL     1       6.521   5.730  14.896  0.00  0.00    +0.000 OA
BRANCH  35  36
ATOM     36  C   UNL     1       7.453   4.984  14.100  0.00  0.00    +0.000 C 
BRANCH  36  37
ATOM     37  C   UNL     1       6.673   4.116  13.139  0.00  0.00    +0.000 A 
ATOM     38  C   UNL     1       5.272   4.150  13.097  0.00  0.00    +0.000 A 
ATOM     39  C   UNL     1       4.570   3.335  12.206  0.00  0.00    +0.000 A 
ATOM     40  C   UNL     1       5.260   2.482  11.344  0.00  0.00    +0.000 A 
ATOM     41  C   UNL     1       6.652   2.453  11.364  0.00  0.00    +0.000 A 
ATOM     42  C   UNL     1       7.355   3.266  12.253  0.00  0.00    +0.000 A 
ENDBRANCH  36  37
ENDBRANCH  35  36
ENDBRANCH   6  35
TORSDOF 12
ENDMDL
MODEL 6
REMARK VINA RESULT:      -8.2      0.609      1.286
REMARK  Name = 
REMARK  12 active torsions:
REMARK  status: ('A' for Active; 'I' for Inactive)
REMARK    1  A    between atoms: C_2  and  C_4
REMARK    2  A    between atoms: N_7  and  C_8
REMARK    3  A    between atoms: C_8  and  C_9
REMARK    4  A    between atoms: C_9  and  C_10
REMARK    5  A    between atoms: C_10  and  O_11
REMARK    6  A    between atoms: C_15  and  O_16
REMARK    7  A    between atoms: O_16  and  C_17
REMARK    8  A    between atoms: C_17  and  C_18
REMARK    9  A    between atoms: C_24  and  O_25
REMARK   10  A    between atoms: O_25  and  C_26
REMARK   11  A    between atoms: C_26  and  C_27
REMARK   12  A    between atoms: C_33  and  C_34
REMARK                            x       y       z     vdW  Elec       q    Type
REMARK                         _______ _______ _______ _____ _____    ______ ____
ROOT
ATOM      1  C   UNL     1       4.505   6.197  17.995  0.00  0.00    +0.000 C 
ATOM      2  N   UNL     1       5.839   6.607  17.729  0.00  0.00    +0.000 N 
ATOM      3  C   UNL     1       6.354   6.003  16.611  0.00  0.00    +0.000 C 
ATOM      4  O   UNL     1       7.419   6.283  16.090  0.00  0.00    +0.000 OA
ATOM      5  C   UNL     1       5.392   4.961  16.176  0.00  0.00    +0.000 C 
ATOM      6  C   UNL     1       4.368   5.028  17.045  0.00  0.00    +0.000 C 
ATOM      7  H   UNL     1       6.355   7.340  18.194  0.00  0.00    +0.000 HD
ENDROOT
BRANCH   1   8
ATOM      8  O   UNL     1       4.442   5.761  19.329  0.00  0.00    +0.000 OA
ATOM      9  H   UNL     1       4.940   6.390  19.872  0.00  0.00    +0.000 HD
ENDBRANCH   1   8
BRANCH   1  10
ATOM     10  C   UNL     1       3.482   7.303  17.687  0.00  0.00    +0.000 C 
BRANCH  10  11
ATOM     11  C   UNL     1       2.446   7.489  18.805  0.00  0.00    +0.000 C 
BRANCH  11  15
ATOM     12  C   UNL     1       0.580  10.501  19.515  0.00  0.00    +0.000 A 
ATOM     13  N   UNL     1       0.988  10.744  18.208  0.00  0.00    +0.000 NA
ATOM     14  C   UNL     1       1.678   9.691  17.848  0.00  0.00    +0.000 A 
ATOM     15  N   UNL     1       1.739   8.764  18.847  0.00  0.00    +0.000 N 
ATOM     16  C   UNL     1       1.047   9.258  19.949  0.00  0.00    +0.000 A 
BRANCH  12  18
ATOM     17  N   UNL     1       0.423  12.174  21.184  0.00  0.00    +0.000 N 
ATOM     18  C   UNL     1      -0.248  11.475  20.226  0.00  0.00    +0.000 C 
ATOM     19  O   UNL     1      -1.446  11.664  20.021  0.00  0.00    +0.000 OA
ATOM     20  H   UNL     1      -0.058  12.864  21.737  0.00  0.00    +0.000 HD
ATOM     21  H   UNL     1       1.405  11.968  21.343  0.00  0.00    +0.000 HD
ENDBRANCH  12  18
BRANCH  16  22
ATOM     22  C   UNL     1       0.891   8.541  21.193  0.00  0.00    +0.000 C 
ATOM     23  N   UNL     1       1.912   8.593  22.089  0.00  0.00    +0.000 N 
ATOM     24  O   UNL     1      -0.096   7.862  21.462  0.00  0.00    +0.000 OA
ATOM     25  H   UNL     1       2.644   9.297  22.022  0.00  0.00    +0.000 HD
ATOM     26  H   UNL     1       1.737   8.218  23.009  0.00  0.00    +0.000 HD
ENDBRANCH  16  22
ENDBRANCH  11  15
ENDBRANCH  10  11
ENDBRANCH   1  10
BRANCH   5  27
ATOM     27  O   UNL     1       5.511   4.114  15.108  0.00  0.00    +0.000 OA
BRANCH  27  28
ATOM     28  C   UNL     1       6.265   4.656  14.019  0.00  0.00    +0.000 C 
BRANCH  28  29
ATOM     29  C   UNL     1       6.252   3.667  12.878  0.00  0.00    +0.000 A 
ATOM     30  C   UNL     1       7.454   3.266  12.275  0.00  0.00    +0.000 A 
ATOM     31  C   UNL     1       7.448   2.347  11.224  0.00  0.00    +0.000 A 
ATOM     32  C   UNL     1       6.242   1.821  10.766  0.00  0.00    +0.000 A 
ATOM     33  C   UNL     1       5.042   2.211  11.359  0.00  0.00    +0.000 A 
ATOM     34  C   UNL     1       5.046   3.129  12.410  0.00  0.00    +0.000 A 
ENDBRANCH  28  29
ENDBRANCH  27  28
ENDBRANCH   5  27
BRANCH   6  35
ATOM     35  O   UNL     1       3.263   4.223  17.165  0.00  0.00    +0.000 OA
BRANCH  35  36
ATOM     36  C   UNL     1       3.472   2.941  17.774  0.00  0.00    +0.000 C 
BRANCH  36  37
ATOM     37  C   UNL     1       2.730   2.911  19.091  0.00  0.00    +0.000 A 
ATOM     38  C   UNL     1       1.360   3.200  19.163  0.00  0.00    +0.000 A 
ATOM     39  C   UNL     1       0.694   3.173  20.391  0.00  0.00    +0.000 A 
ATOM     40  C   UNL     1       1.388   2.851  21.557  0.00  0.00    +0.000 A 
ATOM     41  C   UNL     1       2.744   2.544  21.495  0.00  0.00    +0.000 A 
ATOM     42  C   UNL     1       3.411   2.570  20.271  0.00  0.00    +0.000 A 
ENDBRANCH  36  37
ENDBRANCH  35  36
ENDBRANCH   6  35
TORSDOF 12
ENDMDL
MODEL 7
REMARK VINA RESULT:      -8.1      3.491      5.749
REMARK  Name = 
REMARK  12 active torsions:
REMARK  status: ('A' for Active; 'I' for Inactive)
REMARK    1  A    between atoms: C_2  and  C_4
REMARK    2  A    between atoms: N_7  and  C_8
REMARK    3  A    between atoms: C_8  and  C_9
REMARK    4  A    between atoms: C_9  and  C_10
REMARK    5  A    between atoms: C_10  and  O_11
REMARK    6  A    between atoms: C_15  and  O_16
REMARK    7  A    between atoms: O_16  and  C_17
REMARK    8  A    between atoms: C_17  and  C_18
REMARK    9  A    between atoms: C_24  and  O_25
REMARK   10  A    between atoms: O_25  and  C_26
REMARK   11  A    between atoms: C_26  and  C_27
REMARK   12  A    between atoms: C_33  and  C_34
REMARK                            x       y       z     vdW  Elec       q    Type
REMARK                         _______ _______ _______ _____ _____    ______ ____
ROOT
ATOM      1  C   UNL     1       0.892   9.949  20.265  0.00  0.00    +0.000 C 
ATOM      2  N   UNL     1       1.602  10.773  19.351  0.00  0.00    +0.000 N 
ATOM      3  C   UNL     1       2.108  10.059  18.294  0.00  0.00    +0.000 C 
ATOM      4  O   UNL     1       2.634  10.544  17.308  0.00  0.00    +0.000 OA
ATOM      5  C   UNL     1       1.905   8.619  18.583  0.00  0.00    +0.000 C 
ATOM      6  C   UNL     1       1.279   8.572  19.773  0.00  0.00    +0.000 C 
ATOM      7  H   UNL     1       1.659  11.781  19.356  0.00  0.00    +0.000 HD
ENDROOT
BRANCH   1   8
ATOM      8  O   UNL     1       1.411  10.179  21.550  0.00  0.00    +0.000 OA
ATOM      9  H   UNL     1       1.317   9.362  22.061  0.00  0.00    +0.000 HD
ENDBRANCH   1   8
BRANCH   1  10
ATOM     10  C   UNL     1      -0.627  10.172  20.192  0.00  0.00    +0.000 C 
BRANCH  10  11
ATOM     11  C   UNL     1      -1.020  11.311  19.241  0.00  0.00    +0.000 C 
BRANCH  11  15
ATOM     12  C   UNL     1      -4.524  12.027  18.720  0.00  0.00    +0.000 A 
ATOM     13  N   UNL     1      -4.318  12.606  19.966  0.00  0.00    +0.000 NA
ATOM     14  C   UNL     1      -3.055  12.405  20.249  0.00  0.00    +0.000 A 
ATOM     15  N   UNL     1      -2.417  11.730  19.250  0.00  0.00    +0.000 N 
ATOM     16  C   UNL     1      -3.339  11.459  18.244  0.00  0.00    +0.000 A 
BRANCH  12  18
ATOM     17  N   UNL     1      -6.145  13.326  17.586  0.00  0.00    +0.000 N 
ATOM     18  C   UNL     1      -5.837  12.095  18.079  0.00  0.00    +0.000 C 
ATOM     19  O   UNL     1      -6.626  11.156  17.989  0.00  0.00    +0.000 OA
ATOM     20  H   UNL     1      -7.031  13.483  17.132  0.00  0.00    +0.000 HD
ATOM     21  H   UNL     1      -5.478  14.083  17.706  0.00  0.00    +0.000 HD
ENDBRANCH  12  18
BRANCH  16  22
ATOM     22  C   UNL     1      -3.018  10.764  17.019  0.00  0.00    +0.000 C 
ATOM     23  N   UNL     1      -2.536  11.496  15.979  0.00  0.00    +0.000 N 
ATOM     24  O   UNL     1      -3.192   9.558  16.861  0.00  0.00    +0.000 OA
ATOM     25  H   UNL     1      -2.173  12.437  16.114  0.00  0.00    +0.000 HD
ATOM     26  H   UNL     1      -2.177  10.988  15.186  0.00  0.00    +0.000 HD
ENDBRANCH  16  22
ENDBRANCH  11  15
ENDBRANCH  10  11
ENDBRANCH   1  10
BRANCH   5  27
ATOM     27  O   UNL     1       2.266   7.556  17.801  0.00  0.00    +0.000 OA
BRANCH  27  28
ATOM     28  C   UNL     1       3.680   7.350  17.717  0.00  0.00    +0.000 C 
BRANCH  28  29
ATOM     29  C   UNL     1       3.978   5.896  17.996  0.00  0.00    +0.000 A 
ATOM     30  C   UNL     1       4.918   5.541  18.976  0.00  0.00    +0.000 A 
ATOM     31  C   UNL     1       5.192   4.198  19.241  0.00  0.00    +0.000 A 
ATOM     32  C   UNL     1       4.532   3.199  18.531  0.00  0.00    +0.000 A 
ATOM     33  C   UNL     1       3.595   3.540  17.556  0.00  0.00    +0.000 A 
ATOM     34  C   UNL     1       3.319   4.882  17.289  0.00  0.00    +0.000 A 
ENDBRANCH  28  29
ENDBRANCH  27  28
ENDBRANCH   5  27
BRANCH   6  35
ATOM     35  O   UNL     1       0.950   7.490  20.551  0.00  0.00    +0.000 OA
BRANCH  35  36
ATOM     36  C   UNL     1       2.045   6.742  21.098  0.00  0.00    +0.000 C 
BRANCH  36  37
ATOM     37  C   UNL     1       1.786   5.272  20.858  0.00  0.00    +0.000 A 
ATOM     38  C   UNL     1       0.906   4.840  19.857  0.00  0.00    +0.000 A 
ATOM     39  C   UNL     1       0.676   3.477  19.655  0.00  0.00    +0.000 A 
ATOM     40  C   UNL     1       1.327   2.532  20.448  0.00  0.00    +0.000 A 
ATOM     41  C   UNL     1       2.218   2.948  21.433  0.00  0.00    +0.000 A 
ATOM     42  C   UNL     1       2.449   4.309  21.636  0.00  0.00    +0.000 A 
ENDBRANCH  36  37
ENDBRANCH  35  36
ENDBRANCH   6  35
TORSDOF 12
ENDMDL
MODEL 8
REMARK VINA RESULT:      -8.1      0.976      1.252
REMARK  Name = 
REMARK  12 active torsions:
REMARK  status: ('A' for Active; 'I' for Inactive)
REMARK    1  A    between atoms: C_2  and  C_4
REMARK    2  A    between atoms: N_7  and  C_8
REMARK    3  A    between atoms: C_8  and  C_9
REMARK    4  A    between atoms: C_9  and  C_10
REMARK    5  A    between atoms: C_10  and  O_11
REMARK    6  A    between atoms: C_15  and  O_16
REMARK    7  A    between atoms: O_16  and  C_17
REMARK    8  A    between atoms: C_17  and  C_18
REMARK    9  A    between atoms: C_24  and  O_25
REMARK   10  A    between atoms: O_25  and  C_26
REMARK   11  A    between atoms: C_26  and  C_27
REMARK   12  A    between atoms: C_33  and  C_34
REMARK                            x       y       z     vdW  Elec       q    Type
REMARK                         _______ _______ _______ _____ _____    ______ ____
ROOT
ATOM      1  C   UNL     1       5.085   5.530  18.160  0.00  0.00    +0.000 C 
ATOM      2  N   UNL     1       6.180   6.368  17.821  0.00  0.00    +0.000 N 
ATOM      3  C   UNL     1       6.847   5.927  16.707  0.00  0.00    +0.000 C 
ATOM      4  O   UNL     1       7.731   6.536  16.131  0.00  0.00    +0.000 OA
ATOM      5  C   UNL     1       6.304   4.592  16.355  0.00  0.00    +0.000 C 
ATOM      6  C   UNL     1       5.345   4.340  17.263  0.00  0.00    +0.000 C 
ATOM      7  H   UNL     1       6.416   7.259  18.235  0.00  0.00    +0.000 HD
ENDROOT
BRANCH   1   8
ATOM      8  O   UNL     1       5.214   5.169  19.511  0.00  0.00    +0.000 OA
ATOM      9  H   UNL     1       4.325   5.052  19.876  0.00  0.00    +0.000 HD
ENDBRANCH   1   8
BRANCH   1  10
ATOM     10  C   UNL     1       3.730   6.188  17.852  0.00  0.00    +0.000 C 
BRANCH  10  11
ATOM     11  C   UNL     1       3.100   6.863  19.078  0.00  0.00    +0.000 C 
BRANCH  11  15
ATOM     12  C   UNL     1       0.926   9.750  19.090  0.00  0.00    +0.000 A 
ATOM     13  N   UNL     1       1.438   9.810  17.798  0.00  0.00    +0.000 NA
ATOM     14  C   UNL     1       2.246   8.785  17.688  0.00  0.00    +0.000 A 
ATOM     15  N   UNL     1       2.286   8.050  18.836  0.00  0.00    +0.000 N 
ATOM     16  C   UNL     1       1.450   8.650  19.773  0.00  0.00    +0.000 A 
BRANCH  12  18
ATOM     17  N   UNL     1       0.508  11.796  20.206  0.00  0.00    +0.000 N 
ATOM     18  C   UNL     1      -0.048  10.742  19.547  0.00  0.00    +0.000 C 
ATOM     19  O   UNL     1      -1.265  10.660  19.387  0.00  0.00    +0.000 OA
ATOM     20  H   UNL     1      -0.076  12.531  20.569  0.00  0.00    +0.000 HD
ATOM     21  H   UNL     1       1.514  11.812  20.343  0.00  0.00    +0.000 HD
ENDBRANCH  12  18
BRANCH  16  22
ATOM     22  C   UNL     1       1.233   8.140  21.107  0.00  0.00    +0.000 C 
ATOM     23  N   UNL     1       1.801   8.812  22.144  0.00  0.00    +0.000 N 
ATOM     24  O   UNL     1       0.597   7.117  21.343  0.00  0.00    +0.000 OA
ATOM     25  H   UNL     1       2.147   9.763  22.037  0.00  0.00    +0.000 HD
ATOM     26  H   UNL     1       1.524   8.539  23.075  0.00  0.00    +0.000 HD
ENDBRANCH  16  22
ENDBRANCH  11  15
ENDBRANCH  10  11
ENDBRANCH   1  10
BRANCH   5  27
ATOM     27  O   UNL     1       6.688   3.787  15.317  0.00  0.00    +0.000 OA
BRANCH  27  28
ATOM     28  C   UNL     1       6.868   4.482  14.079  0.00  0.00    +0.000 C 
BRANCH  28  29
ATOM     29  C   UNL     1       6.147   3.727  12.988  0.00  0.00    +0.000 A 
ATOM     30  C   UNL     1       6.821   2.750  12.238  0.00  0.00    +0.000 A 
ATOM     31  C   UNL     1       6.158   2.046  11.233  0.00  0.00    +0.000 A 
ATOM     32  C   UNL     1       4.817   2.310  10.965  0.00  0.00    +0.000 A 
ATOM     33  C   UNL     1       4.137   3.277  11.704  0.00  0.00    +0.000 A 
ATOM     34  C   UNL     1       4.798   3.983  12.711  0.00  0.00    +0.000 A 
ENDBRANCH  28  29
ENDBRANCH  27  28
ENDBRANCH   5  27
BRANCH   6  35
ATOM     35  O   UNL     1       4.600   3.204  17.461  0.00  0.00    +0.000 OA
BRANCH  35  36
ATOM     36  C   UNL     1       3.180   3.338  17.307  0.00  0.00    +0.000 C 
BRANCH  36  37
ATOM     37  C   UNL     1       2.537   3.207  18.669  0.00  0.00    +0.000 A 
ATOM     38  C   UNL     1       3.211   2.603  19.739  0.00  0.00    +0.000 A 
ATOM     39  C   UNL     1       2.597   2.486  20.988  0.00  0.00    +0.000 A 
ATOM     40  C   UNL     1       1.306   2.977  21.183  0.00  0.00    +0.000 A 
ATOM     41  C   UNL     1       0.633   3.596  20.133  0.00  0.00    +0.000 A 
ATOM     42  C   UNL     1       1.245   3.714  18.885  0.00  0.00    +0.000 A 
ENDBRANCH  36  37
ENDBRANCH  35  36
ENDBRANCH   6  35
TORSDOF 12
ENDMDL
MODEL 9
REMARK VINA RESULT:      -8.0      3.437      4.932
REMARK  Name = 
REMARK  12 active torsions:
REMARK  status: ('A' for Active; 'I' for Inactive)
REMARK    1  A    between atoms: C_2  and  C_4
REMARK    2  A    between atoms: N_7  and  C_8
REMARK    3  A    between atoms: C_8  and  C_9
REMARK    4  A    between atoms: C_9  and  C_10
REMARK    5  A    between atoms: C_10  and  O_11
REMARK    6  A    between atoms: C_15  and  O_16
REMARK    7  A    between atoms: O_16  and  C_17
REMARK    8  A    between atoms: C_17  and  C_18
REMARK    9  A    between atoms: C_24  and  O_25
REMARK   10  A    between atoms: O_25  and  C_26
REMARK   11  A    between atoms: C_26  and  C_27
REMARK   12  A    between atoms: C_33  and  C_34
REMARK                            x       y       z     vdW  Elec       q    Type
REMARK                         _______ _______ _______ _____ _____    ______ ____
ROOT
ATOM      1  C   UNL     1       1.406   8.364  20.681  0.00  0.00    +0.000 C 
ATOM      2  N   UNL     1       1.668   9.356  19.698  0.00  0.00    +0.000 N 
ATOM      3  C   UNL     1       2.097   8.812  18.513  0.00  0.00    +0.000 C 
ATOM      4  O   UNL     1       2.257   9.429  17.476  0.00  0.00    +0.000 OA
ATOM      5  C   UNL     1       2.333   7.365  18.740  0.00  0.00    +0.000 C 
ATOM      6  C   UNL     1       2.012   7.143  20.028  0.00  0.00    +0.000 C 
ATOM      7  H   UNL     1       1.467  10.344  19.760  0.00  0.00    +0.000 HD
ENDROOT
BRANCH   1   8
ATOM      8  O   UNL     1       2.114   8.708  21.844  0.00  0.00    +0.000 OA
ATOM      9  H   UNL     1       2.920   9.174  21.577  0.00  0.00    +0.000 HD
ENDBRANCH   1   8
BRANCH   1  10
ATOM     10  C   UNL     1      -0.099   8.183  20.938  0.00  0.00    +0.000 C 
BRANCH  10  11
ATOM     11  C   UNL     1      -0.924   9.423  20.565  0.00  0.00    +0.000 C 
BRANCH  11  15
ATOM     12  C   UNL     1      -0.506  12.666  22.104  0.00  0.00    +0.000 A 
ATOM     13  N   UNL     1      -0.676  11.861  23.224  0.00  0.00    +0.000 NA
ATOM     14  C   UNL     1      -0.832  10.643  22.768  0.00  0.00    +0.000 A 
ATOM     15  N   UNL     1      -0.764  10.603  21.407  0.00  0.00    +0.000 N 
ATOM     16  C   UNL     1      -0.563  11.898  20.938  0.00  0.00    +0.000 A 
BRANCH  12  18
ATOM     17  N   UNL     1      -1.364  14.868  21.978  0.00  0.00    +0.000 N 
ATOM     18  C   UNL     1      -0.272  14.102  22.252  0.00  0.00    +0.000 C 
ATOM     19  O   UNL     1       0.799  14.612  22.575  0.00  0.00    +0.000 OA
ATOM     20  H   UNL     1      -1.308  15.872  22.042  0.00  0.00    +0.000 HD
ATOM     21  H   UNL     1      -2.223  14.411  21.686  0.00  0.00    +0.000 HD
ENDBRANCH  12  18
BRANCH  16  22
ATOM     22  C   UNL     1      -0.431  12.241  19.541  0.00  0.00    +0.000 C 
ATOM     23  N   UNL     1      -1.528  12.722  18.898  0.00  0.00    +0.000 N 
ATOM     24  O   UNL     1       0.606  12.083  18.902  0.00  0.00    +0.000 OA
ATOM     25  H   UNL     1      -2.334  13.073  19.410  0.00  0.00    +0.000 HD
ATOM     26  H   UNL     1      -1.390  13.096  17.971  0.00  0.00    +0.000 HD
ENDBRANCH  16  22
ENDBRANCH  11  15
ENDBRANCH  10  11
ENDBRANCH   1  10
BRANCH   5  27
ATOM     27  O   UNL     1       2.774   6.443  17.831  0.00  0.00    +0.000 OA
BRANCH  27  28
ATOM     28  C   UNL     1       3.858   6.902  17.016  0.00  0.00    +0.000 C 
BRANCH  28  29
ATOM     29  C   UNL     1       5.159   6.492  17.663  0.00  0.00    +0.000 A 
ATOM     30  C   UNL     1       6.362   7.112  17.290  0.00  0.00    +0.000 A 
ATOM     31  C   UNL     1       7.567   6.740  17.888  0.00  0.00    +0.000 A 
ATOM     32  C   UNL     1       7.582   5.746  18.863  0.00  0.00    +0.000 A 
ATOM     33  C   UNL     1       6.394   5.124  19.242  0.00  0.00    +0.000 A 
ATOM     34  C   UNL     1       5.187   5.494  18.646  0.00  0.00    +0.000 A 
ENDBRANCH  28  29
ENDBRANCH  27  28
ENDBRANCH   5  27
BRANCH   6  35
ATOM     35  O   UNL     1       2.145   6.004  20.781  0.00  0.00    +0.000 OA
BRANCH  35  36
ATOM     36  C   UNL     1       1.234   4.935  20.488  0.00  0.00    +0.000 C 
BRANCH  36  37
ATOM     37  C   UNL     1       1.999   3.830  19.797  0.00  0.00    +0.000 A 
ATOM     38  C   UNL     1       3.097   3.210  20.409  0.00  0.00    +0.000 A 
ATOM     39  C   UNL     1       3.795   2.194  19.751  0.00  0.00    +0.000 A 
ATOM     40  C   UNL     1       3.400   1.785  18.478  0.00  0.00    +0.000 A 
ATOM     41  C   UNL     1       2.301   2.381  17.867  0.00  0.00    +0.000 A 
ATOM     42  C   UNL     1       1.602   3.395  18.522  0.00  0.00    +0.000 A 
ENDBRANCH  36  37
ENDBRANCH  35  36
ENDBRANCH   6  35
TORSDOF 12
ENDMDL
