MODEL 1
REMARK VINA RESULT:      -7.1      0.000      0.000
REMARK  Name = 
REMARK  7 active torsions:
REMARK  status: ('A' for Active; 'I' for Inactive)
REMARK    1  A    between atoms: C_1  and  C_2
REMARK    2  A    between atoms: C_2  and  C_3
REMARK    3  A    between atoms: C_5  and  C_6
REMARK    4  A    between atoms: C_6  and  C_7
REMARK    5  A    between atoms: C_10  and  C_11
REMARK    6  A    between atoms: C_14  and  O_15
REMARK    7  A    between atoms: O_15  and  C_16
REMARK                            x       y       z     vdW  Elec       q    Type
REMARK                         _______ _______ _______ _____ _____    ______ ____
ROOT
ATOM      1  C   UNL     1       5.534   4.533  15.960  0.00  0.00    +0.000 A 
ATOM      2  N   UNL     1       4.656   3.552  16.392  0.00  0.00    +0.000 NA
ATOM      3  C   UNL     1       3.674   3.925  17.160  0.00  0.00    +0.000 A 
ATOM      4  N   UNL     1       3.524   5.264  17.510  0.00  0.00    +0.000 N 
ATOM      5  N   UNL     1       2.551   5.791  18.279  0.00  0.00    +0.000 NA
ATOM      6  C   UNL     1       2.812   7.118  18.260  0.00  0.00    +0.000 A 
ATOM      7  C   UNL     1       3.986   7.393  17.509  0.00  0.00    +0.000 A 
ATOM      8  C   UNL     1       4.419   6.184  17.034  0.00  0.00    +0.000 A 
ATOM      9  N   UNL     1       5.453   5.800  16.245  0.00  0.00    +0.000 NA
ENDROOT
BRANCH   6  10
ATOM     10  C   UNL     1       1.947   8.098  18.917  0.00  0.00    +0.000 A 
ATOM     11  C   UNL     1       1.376   9.151  18.195  0.00  0.00    +0.000 A 
ATOM     12  C   UNL     1       0.587  10.106  18.845  0.00  0.00    +0.000 A 
ATOM     13  C   UNL     1       0.345  10.018  20.217  0.00  0.00    +0.000 A 
ATOM     14  C   UNL     1       0.899   8.967  20.944  0.00  0.00    +0.000 A 
ATOM     15  C   UNL     1       1.691   8.011  20.296  0.00  0.00    +0.000 A 
BRANCH  13  16
ATOM     16  O   UNL     1      -0.390  11.047  20.741  0.00  0.00    +0.000 OA
ATOM     17  C   UNL     1      -0.256  12.308  20.097  0.00  0.00    +0.000 C 
ENDBRANCH  13  16
ENDBRANCH   6  10
BRANCH   1  19
ATOM     18  C   UNL     1       6.114   3.884  13.639  0.00  0.00    +0.000 C 
ATOM     19  C   UNL     1       6.642   4.058  15.052  0.00  0.00    +0.000 C 
ENDBRANCH   1  19
BRANCH   3  20
ATOM     20  C   UNL     1       2.648   2.962  17.695  0.00  0.00    +0.000 C 
ATOM     21  C   UNL     1       3.311   1.794  18.409  0.00  0.00    +0.000 C 
ENDBRANCH   3  20
TORSDOF 4
ENDMDL
MODEL 2
REMARK VINA RESULT:      -7.1      0.716      1.297
REMARK  Name = 
REMARK  7 active torsions:
REMARK  status: ('A' for Active; 'I' for Inactive)
REMARK    1  A    between atoms: C_1  and  C_2
REMARK    2  A    between atoms: C_2  and  C_3
REMARK    3  A    between atoms: C_5  and  C_6
REMARK    4  A    between atoms: C_6  and  C_7
REMARK    5  A    between atoms: C_10  and  C_11
REMARK    6  A    between atoms: C_14  and  O_15
REMARK    7  A    between atoms: O_15  and  C_16
REMARK                            x       y       z     vdW  Elec       q    Type
REMARK                         _______ _______ _______ _____ _____    ______ ____
ROOT
ATOM      1  C   UNL     1       5.784   4.759  15.476  0.00  0.00    +0.000 A 
ATOM      2  N   UNL     1       5.308   3.721  16.262  0.00  0.00    +0.000 NA
ATOM      3  C   UNL     1       4.466   4.024  17.206  0.00  0.00    +0.000 A 
ATOM      4  N   UNL     1       4.063   5.343  17.392  0.00  0.00    +0.000 N 
ATOM      5  N   UNL     1       3.190   5.795  18.313  0.00  0.00    +0.000 NA
ATOM      6  C   UNL     1       3.091   7.116  18.039  0.00  0.00    +0.000 A 
ATOM      7  C   UNL     1       3.953   7.477  16.969  0.00  0.00    +0.000 A 
ATOM      8  C   UNL     1       4.560   6.317  16.569  0.00  0.00    +0.000 A 
ATOM      9  N   UNL     1       5.449   6.010  15.593  0.00  0.00    +0.000 NA
ENDROOT
BRANCH   6  10
ATOM     10  C   UNL     1       2.178   8.002  18.762  0.00  0.00    +0.000 A 
ATOM     11  C   UNL     1       1.875   7.778  20.110  0.00  0.00    +0.000 A 
ATOM     12  C   UNL     1       0.967   8.607  20.776  0.00  0.00    +0.000 A 
ATOM     13  C   UNL     1       0.359   9.676  20.115  0.00  0.00    +0.000 A 
ATOM     14  C   UNL     1       0.661   9.916  18.777  0.00  0.00    +0.000 A 
ATOM     15  C   UNL     1       1.570   9.086  18.107  0.00  0.00    +0.000 A 
BRANCH  13  16
ATOM     16  O   UNL     1      -0.555  10.371  20.861  0.00  0.00    +0.000 OA
ATOM     17  C   UNL     1      -0.031  11.370  21.727  0.00  0.00    +0.000 C 
ENDBRANCH  13  16
ENDBRANCH   6  10
BRANCH   1  19
ATOM     18  C   UNL     1       5.963   3.822  13.188  0.00  0.00    +0.000 C 
ATOM     19  C   UNL     1       6.739   4.357  14.378  0.00  0.00    +0.000 C 
ENDBRANCH   1  19
BRANCH   3  20
ATOM     20  C   UNL     1       3.871   2.992  18.127  0.00  0.00    +0.000 C 
ATOM     21  C   UNL     1       2.575   2.434  17.562  0.00  0.00    +0.000 C 
ENDBRANCH   3  20
TORSDOF 4
ENDMDL
MODEL 3
REMARK VINA RESULT:      -7.0      1.111      1.601
REMARK  Name = 
REMARK  7 active torsions:
REMARK  status: ('A' for Active; 'I' for Inactive)
REMARK    1  A    between atoms: C_1  and  C_2
REMARK    2  A    between atoms: C_2  and  C_3
REMARK    3  A    between atoms: C_5  and  C_6
REMARK    4  A    between atoms: C_6  and  C_7
REMARK    5  A    between atoms: C_10  and  C_11
REMARK    6  A    between atoms: C_14  and  O_15
REMARK    7  A    between atoms: O_15  and  C_16
REMARK                            x       y       z     vdW  Elec       q    Type
REMARK                         _______ _______ _______ _____ _____    ______ ____
ROOT
ATOM      1  C   UNL     1       5.041   4.295  16.400  0.00  0.00    +0.000 A 
ATOM      2  N   UNL     1       4.470   3.340  17.226  0.00  0.00    +0.000 NA
ATOM      3  C   UNL     1       3.672   3.761  18.164  0.00  0.00    +0.000 A 
ATOM      4  N   UNL     1       3.408   5.121  18.304  0.00  0.00    +0.000 N 
ATOM      5  N   UNL     1       2.595   5.693  19.214  0.00  0.00    +0.000 NA
ATOM      6  C   UNL     1       2.630   7.006  18.893  0.00  0.00    +0.000 A 
ATOM      7  C   UNL     1       3.514   7.239  17.805  0.00  0.00    +0.000 A 
ATOM      8  C   UNL     1       3.994   6.009  17.443  0.00  0.00    +0.000 A 
ATOM      9  N   UNL     1       4.838   5.578  16.473  0.00  0.00    +0.000 NA
ENDROOT
BRANCH   6  10
ATOM     10  C   UNL     1       1.819   8.007  19.589  0.00  0.00    +0.000 A 
ATOM     11  C   UNL     1       1.423   7.813  20.916  0.00  0.00    +0.000 A 
ATOM     12  C   UNL     1       0.612   8.757  21.555  0.00  0.00    +0.000 A 
ATOM     13  C   UNL     1       0.197   9.910  20.887  0.00  0.00    +0.000 A 
ATOM     14  C   UNL     1       0.595  10.119  19.568  0.00  0.00    +0.000 A 
ATOM     15  C   UNL     1       1.406   9.174  18.926  0.00  0.00    +0.000 A 
BRANCH  13  16
ATOM     16  O   UNL     1      -0.643  10.721  21.601  0.00  0.00    +0.000 OA
ATOM     17  C   UNL     1      -0.781  10.421  22.984  0.00  0.00    +0.000 C 
ENDBRANCH  13  16
ENDBRANCH   6  10
BRANCH   1  19
ATOM     18  C   UNL     1       6.654   4.907  14.620  0.00  0.00    +0.000 C 
ATOM     19  C   UNL     1       5.940   3.759  15.312  0.00  0.00    +0.000 C 
ENDBRANCH   1  19
BRANCH   3  20
ATOM     20  C   UNL     1       2.983   2.830  19.125  0.00  0.00    +0.000 C 
ATOM     21  C   UNL     1       3.912   2.425  20.258  0.00  0.00    +0.000 C 
ENDBRANCH   3  20
TORSDOF 4
ENDMDL
MODEL 4
REMARK VINA RESULT:      -7.0      1.009      1.136
REMARK  Name = 
REMARK  7 active torsions:
REMARK  status: ('A' for Active; 'I' for Inactive)
REMARK    1  A    between atoms: C_1  and  C_2
REMARK    2  A    between atoms: C_2  and  C_3
REMARK    3  A    between atoms: C_5  and  C_6
REMARK    4  A    between atoms: C_6  and  C_7
REMARK    5  A    between atoms: C_10  and  C_11
REMARK    6  A    between atoms: C_14  and  O_15
REMARK    7  A    between atoms: O_15  and  C_16
REMARK                            x       y       z     vdW  Elec       q    Type
REMARK                         _______ _______ _______ _____ _____    ______ ____
ROOT
ATOM      1  C   UNL     1       5.067   4.494  16.234  0.00  0.00    +0.000 A 
ATOM      2  N   UNL     1       4.598   3.512  17.092  0.00  0.00    +0.000 NA
ATOM      3  C   UNL     1       3.828   3.892  18.070  0.00  0.00    +0.000 A 
ATOM      4  N   UNL     1       3.492   5.235  18.220  0.00  0.00    +0.000 N 
ATOM      5  N   UNL     1       2.697   5.764  19.170  0.00  0.00    +0.000 NA
ATOM      6  C   UNL     1       2.637   7.074  18.843  0.00  0.00    +0.000 A 
ATOM      7  C   UNL     1       3.446   7.352  17.709  0.00  0.00    +0.000 A 
ATOM      8  C   UNL     1       3.978   6.150  17.326  0.00  0.00    +0.000 A 
ATOM      9  N   UNL     1       4.793   5.763  16.314  0.00  0.00    +0.000 NA
ENDROOT
BRANCH   6  10
ATOM     10  C   UNL     1       1.807   8.030  19.578  0.00  0.00    +0.000 A 
ATOM     11  C   UNL     1       1.417   9.240  18.994  0.00  0.00    +0.000 A 
ATOM     12  C   UNL     1       0.661  10.164  19.724  0.00  0.00    +0.000 A 
ATOM     13  C   UNL     1       0.273   9.890  21.037  0.00  0.00    +0.000 A 
ATOM     14  C   UNL     1       0.646   8.684  21.624  0.00  0.00    +0.000 A 
ATOM     15  C   UNL     1       1.405   7.758  20.896  0.00  0.00    +0.000 A 
BRANCH  13  16
ATOM     16  O   UNL     1      -0.409  10.900  21.660  0.00  0.00    +0.000 OA
ATOM     17  C   UNL     1      -0.858  10.634  22.983  0.00  0.00    +0.000 C 
ENDBRANCH  13  16
ENDBRANCH   6  10
BRANCH   1  19
ATOM     18  C   UNL     1       7.130   4.927  14.930  0.00  0.00    +0.000 C 
ATOM     19  C   UNL     1       5.937   4.004  15.101  0.00  0.00    +0.000 C 
ENDBRANCH   1  19
BRANCH   3  20
ATOM     20  C   UNL     1       3.247   2.928  19.070  0.00  0.00    +0.000 C 
ATOM     21  C   UNL     1       3.344   1.495  18.570  0.00  0.00    +0.000 C 
ENDBRANCH   3  20
TORSDOF 4
ENDMDL
MODEL 5
REMARK VINA RESULT:      -6.9      3.246      7.800
REMARK  Name = 
REMARK  7 active torsions:
REMARK  status: ('A' for Active; 'I' for Inactive)
REMARK    1  A    between atoms: C_1  and  C_2
REMARK    2  A    between atoms: C_2  and  C_3
REMARK    3  A    between atoms: C_5  and  C_6
REMARK    4  A    between atoms: C_6  and  C_7
REMARK    5  A    between atoms: C_10  and  C_11
REMARK    6  A    between atoms: C_14  and  O_15
REMARK    7  A    between atoms: O_15  and  C_16
REMARK                            x       y       z     vdW  Elec       q    Type
REMARK                         _______ _______ _______ _____ _____    ______ ____
ROOT
ATOM      1  C   UNL     1      -0.085  11.444  19.667  0.00  0.00    +0.000 A 
ATOM      2  N   UNL     1       0.076  10.889  20.926  0.00  0.00    +0.000 NA
ATOM      3  C   UNL     1       0.702   9.751  21.002  0.00  0.00    +0.000 A 
ATOM      4  N   UNL     1       1.194   9.141  19.851  0.00  0.00    +0.000 N 
ATOM      5  N   UNL     1       1.871   7.978  19.784  0.00  0.00    +0.000 NA
ATOM      6  C   UNL     1       2.177   7.861  18.472  0.00  0.00    +0.000 A 
ATOM      7  C   UNL     1       1.635   8.943  17.727  0.00  0.00    +0.000 A 
ATOM      8  C   UNL     1       1.014   9.752  18.640  0.00  0.00    +0.000 A 
ATOM      9  N   UNL     1       0.350  10.931  18.553  0.00  0.00    +0.000 NA
ENDROOT
BRANCH   6  10
ATOM     10  C   UNL     1       2.987   6.761  17.949  0.00  0.00    +0.000 A 
ATOM     11  C   UNL     1       4.195   7.009  17.288  0.00  0.00    +0.000 A 
ATOM     12  C   UNL     1       4.938   5.951  16.754  0.00  0.00    +0.000 A 
ATOM     13  C   UNL     1       4.496   4.633  16.883  0.00  0.00    +0.000 A 
ATOM     14  C   UNL     1       3.301   4.373  17.548  0.00  0.00    +0.000 A 
ATOM     15  C   UNL     1       2.554   5.431  18.082  0.00  0.00    +0.000 A 
BRANCH  13  16
ATOM     16  O   UNL     1       5.281   3.698  16.263  0.00  0.00    +0.000 OA
ATOM     17  C   UNL     1       6.302   4.199  15.409  0.00  0.00    +0.000 C 
ENDBRANCH  13  16
ENDBRANCH   6  10
BRANCH   1  19
ATOM     18  C   UNL     1      -1.964  12.765  20.599  0.00  0.00    +0.000 C 
ATOM     19  C   UNL     1      -0.795  12.776  19.629  0.00  0.00    +0.000 C 
ENDBRANCH   1  19
BRANCH   3  20
ATOM     20  C   UNL     1       0.948   9.043  22.308  0.00  0.00    +0.000 C 
ATOM     21  C   UNL     1       0.006   9.546  23.391  0.00  0.00    +0.000 C 
ENDBRANCH   3  20
TORSDOF 4
ENDMDL
MODEL 6
REMARK VINA RESULT:      -6.9      0.870      1.371
REMARK  Name = 
REMARK  7 active torsions:
REMARK  status: ('A' for Active; 'I' for Inactive)
REMARK    1  A    between atoms: C_1  and  C_2
REMARK    2  A    between atoms: C_2  and  C_3
REMARK    3  A    between atoms: C_5  and  C_6
REMARK    4  A    between atoms: C_6  and  C_7
REMARK    5  A    between atoms: C_10  and  C_11
REMARK    6  A    between atoms: C_14  and  O_15
REMARK    7  A    between atoms: O_15  and  C_16
REMARK                            x       y       z     vdW  Elec       q    Type
REMARK                         _______ _______ _______ _____ _____    ______ ____
ROOT
ATOM      1  C   UNL     1       5.034   4.250  16.594  0.00  0.00    +0.000 A 
ATOM      2  N   UNL     1       4.405   3.374  17.464  0.00  0.00    +0.000 NA
ATOM      3  C   UNL     1       3.580   3.883  18.332  0.00  0.00    +0.000 A 
ATOM      4  N   UNL     1       3.345   5.255  18.358  0.00  0.00    +0.000 N 
ATOM      5  N   UNL     1       2.510   5.913  19.186  0.00  0.00    +0.000 NA
ATOM      6  C   UNL     1       2.591   7.196  18.769  0.00  0.00    +0.000 A 
ATOM      7  C   UNL     1       3.524   7.325  17.706  0.00  0.00    +0.000 A 
ATOM      8  C   UNL     1       3.988   6.061  17.459  0.00  0.00    +0.000 A 
ATOM      9  N   UNL     1       4.860   5.539  16.561  0.00  0.00    +0.000 NA
ENDROOT
BRANCH   6  10
ATOM     10  C   UNL     1       1.778   8.265  19.352  0.00  0.00    +0.000 A 
ATOM     11  C   UNL     1       1.380   8.215  20.692  0.00  0.00    +0.000 A 
ATOM     12  C   UNL     1       0.567   9.220  21.225  0.00  0.00    +0.000 A 
ATOM     13  C   UNL     1       0.151  10.294  20.435  0.00  0.00    +0.000 A 
ATOM     14  C   UNL     1       0.550  10.360  19.102  0.00  0.00    +0.000 A 
ATOM     15  C   UNL     1       1.363   9.353  18.567  0.00  0.00    +0.000 A 
BRANCH  13  16
ATOM     16  O   UNL     1      -0.691  11.176  21.057  0.00  0.00    +0.000 OA
ATOM     17  C   UNL     1      -1.418  12.057  20.209  0.00  0.00    +0.000 C 
ENDBRANCH  13  16
ENDBRANCH   6  10
BRANCH   1  19
ATOM     18  C   UNL     1       5.923   4.389  14.284  0.00  0.00    +0.000 C 
ATOM     19  C   UNL     1       5.963   3.613  15.589  0.00  0.00    +0.000 C 
ENDBRANCH   1  19
BRANCH   3  20
ATOM     20  C   UNL     1       2.829   3.043  19.330  0.00  0.00    +0.000 C 
ATOM     21  C   UNL     1       1.741   2.226  18.652  0.00  0.00    +0.000 C 
ENDBRANCH   3  20
TORSDOF 4
ENDMDL
MODEL 7
REMARK VINA RESULT:      -6.9      1.875      2.512
REMARK  Name = 
REMARK  7 active torsions:
REMARK  status: ('A' for Active; 'I' for Inactive)
REMARK    1  A    between atoms: C_1  and  C_2
REMARK    2  A    between atoms: C_2  and  C_3
REMARK    3  A    between atoms: C_5  and  C_6
REMARK    4  A    between atoms: C_6  and  C_7
REMARK    5  A    between atoms: C_10  and  C_11
REMARK    6  A    between atoms: C_14  and  O_15
REMARK    7  A    between atoms: O_15  and  C_16
REMARK                            x       y       z     vdW  Elec       q    Type
REMARK                         _______ _______ _______ _____ _____    ______ ____
ROOT
ATOM      1  C   UNL     1       3.881   4.619  17.744  0.00  0.00    +0.000 A 
ATOM      2  N   UNL     1       3.542   3.857  18.851  0.00  0.00    +0.000 NA
ATOM      3  C   UNL     1       2.893   4.452  19.810  0.00  0.00    +0.000 A 
ATOM      4  N   UNL     1       2.553   5.798  19.699  0.00  0.00    +0.000 N 
ATOM      5  N   UNL     1       1.872   6.533  20.600  0.00  0.00    +0.000 NA
ATOM      6  C   UNL     1       1.746   7.738  20.001  0.00  0.00    +0.000 A 
ATOM      7  C   UNL     1       2.402   7.748  18.740  0.00  0.00    +0.000 A 
ATOM      8  C   UNL     1       2.905   6.487  18.570  0.00  0.00    +0.000 A 
ATOM      9  N   UNL     1       3.594   5.876  17.574  0.00  0.00    +0.000 NA
ENDROOT
BRANCH   6  10
ATOM     10  C   UNL     1       0.997   8.841  20.604  0.00  0.00    +0.000 A 
ATOM     11  C   UNL     1       0.561   9.922  19.829  0.00  0.00    +0.000 A 
ATOM     12  C   UNL     1      -0.115  10.990  20.426  0.00  0.00    +0.000 A 
ATOM     13  C   UNL     1      -0.379  10.991  21.797  0.00  0.00    +0.000 A 
ATOM     14  C   UNL     1       0.039   9.915  22.576  0.00  0.00    +0.000 A 
ATOM     15  C   UNL     1       0.719   8.845  21.981  0.00  0.00    +0.000 A 
BRANCH  13  16
ATOM     16  O   UNL     1      -0.992  12.121  22.267  0.00  0.00    +0.000 OA
ATOM     17  C   UNL     1      -2.075  11.922  23.167  0.00  0.00    +0.000 C 
ENDBRANCH  13  16
ENDBRANCH   6  10
BRANCH   1  19
ATOM     18  C   UNL     1       5.993   4.481  16.453  0.00  0.00    +0.000 C 
ATOM     19  C   UNL     1       4.611   3.881  16.647  0.00  0.00    +0.000 C 
ENDBRANCH   1  19
BRANCH   3  20
ATOM     20  C   UNL     1       2.460   3.740  21.063  0.00  0.00    +0.000 C 
ATOM     21  C   UNL     1       1.182   2.950  20.833  0.00  0.00    +0.000 C 
ENDBRANCH   3  20
TORSDOF 4
ENDMDL
MODEL 8
REMARK VINA RESULT:      -6.8      3.267      7.783
REMARK  Name = 
REMARK  7 active torsions:
REMARK  status: ('A' for Active; 'I' for Inactive)
REMARK    1  A    between atoms: C_1  and  C_2
REMARK    2  A    between atoms: C_2  and  C_3
REMARK    3  A    between atoms: C_5  and  C_6
REMARK    4  A    between atoms: C_6  and  C_7
REMARK    5  A    between atoms: C_10  and  C_11
REMARK    6  A    between atoms: C_14  and  O_15
REMARK    7  A    between atoms: O_15  and  C_16
REMARK                            x       y       z     vdW  Elec       q    Type
REMARK                         _______ _______ _______ _____ _____    ______ ____
ROOT
ATOM      1  C   UNL     1      -0.133  11.598  19.696  0.00  0.00    +0.000 A 
ATOM      2  N   UNL     1      -0.050  10.979  20.934  0.00  0.00    +0.000 NA
ATOM      3  C   UNL     1       0.546   9.824  20.986  0.00  0.00    +0.000 A 
ATOM      4  N   UNL     1       1.084   9.258  19.833  0.00  0.00    +0.000 N 
ATOM      5  N   UNL     1       1.739   8.084  19.744  0.00  0.00    +0.000 NA
ATOM      6  C   UNL     1       2.110   8.022  18.445  0.00  0.00    +0.000 A 
ATOM      7  C   UNL     1       1.631   9.152  17.727  0.00  0.00    +0.000 A 
ATOM      8  C   UNL     1       0.981   9.931  18.646  0.00  0.00    +0.000 A 
ATOM      9  N   UNL     1       0.348  11.128  18.583  0.00  0.00    +0.000 NA
ENDROOT
BRANCH   6  10
ATOM     10  C   UNL     1       2.923   6.929  17.910  0.00  0.00    +0.000 A 
ATOM     11  C   UNL     1       2.531   5.596  18.074  0.00  0.00    +0.000 A 
ATOM     12  C   UNL     1       3.340   4.559  17.597  0.00  0.00    +0.000 A 
ATOM     13  C   UNL     1       4.540   4.836  16.940  0.00  0.00    +0.000 A 
ATOM     14  C   UNL     1       4.935   6.159  16.761  0.00  0.00    +0.000 A 
ATOM     15  C   UNL     1       4.127   7.199  17.240  0.00  0.00    +0.000 A 
BRANCH  13  16
ATOM     16  O   UNL     1       5.267   3.734  16.577  0.00  0.00    +0.000 OA
ATOM     17  C   UNL     1       6.292   3.945  15.615  0.00  0.00    +0.000 C 
ENDBRANCH  13  16
ENDBRANCH   6  10
BRANCH   1  19
ATOM     18  C   UNL     1      -0.164  13.844  18.649  0.00  0.00    +0.000 C 
ATOM     19  C   UNL     1      -0.811  12.946  19.688  0.00  0.00    +0.000 C 
ENDBRANCH   1  19
BRANCH   3  20
ATOM     20  C   UNL     1       0.708   9.049  22.266  0.00  0.00    +0.000 C 
ATOM     21  C   UNL     1      -0.161   9.627  23.372  0.00  0.00    +0.000 C 
ENDBRANCH   3  20
TORSDOF 4
ENDMDL
MODEL 9
REMARK VINA RESULT:      -6.8      3.322      8.041
REMARK  Name = 
REMARK  7 active torsions:
REMARK  status: ('A' for Active; 'I' for Inactive)
REMARK    1  A    between atoms: C_1  and  C_2
REMARK    2  A    between atoms: C_2  and  C_3
REMARK    3  A    between atoms: C_5  and  C_6
REMARK    4  A    between atoms: C_6  and  C_7
REMARK    5  A    between atoms: C_10  and  C_11
REMARK    6  A    between atoms: C_14  and  O_15
REMARK    7  A    between atoms: O_15  and  C_16
REMARK                            x       y       z     vdW  Elec       q    Type
REMARK                         _______ _______ _______ _____ _____    ______ ____
ROOT
ATOM      1  C   UNL     1      -0.040   9.772  21.908  0.00  0.00    +0.000 A 
ATOM      2  N   UNL     1      -0.063  10.670  20.853  0.00  0.00    +0.000 NA
ATOM      3  C   UNL     1       0.596  10.346  19.778  0.00  0.00    +0.000 A 
ATOM      4  N   UNL     1       1.279   9.135  19.711  0.00  0.00    +0.000 N 
ATOM      5  N   UNL     1       1.984   8.666  18.662  0.00  0.00    +0.000 NA
ATOM      6  C   UNL     1       2.387   7.441  19.070  0.00  0.00    +0.000 A 
ATOM      7  C   UNL     1       1.962   7.185  20.401  0.00  0.00    +0.000 A 
ATOM      8  C   UNL     1       1.247   8.287  20.785  0.00  0.00    +0.000 A 
ATOM      9  N   UNL     1       0.574   8.625  21.912  0.00  0.00    +0.000 NA
ENDROOT
BRANCH   6  10
ATOM     10  C   UNL     1       3.134   6.530  18.201  0.00  0.00    +0.000 A 
ATOM     11  C   UNL     1       2.844   5.162  18.177  0.00  0.00    +0.000 A 
ATOM     12  C   UNL     1       3.596   4.296  17.375  0.00  0.00    +0.000 A 
ATOM     13  C   UNL     1       4.634   4.782  16.578  0.00  0.00    +0.000 A 
ATOM     14  C   UNL     1       4.924   6.145  16.586  0.00  0.00    +0.000 A 
ATOM     15  C   UNL     1       4.174   7.013  17.390  0.00  0.00    +0.000 A 
BRANCH  13  16
ATOM     16  O   UNL     1       5.331   3.825  15.890  0.00  0.00    +0.000 OA
ATOM     17  C   UNL     1       5.866   4.220  14.633  0.00  0.00    +0.000 C 
ENDBRANCH  13  16
ENDBRANCH   6  10
BRANCH   1  19
ATOM     18  C   UNL     1      -1.409  11.571  22.925  0.00  0.00    +0.000 C 
ATOM     19  C   UNL     1      -0.837  10.178  23.124  0.00  0.00    +0.000 C 
ENDBRANCH   1  19
BRANCH   3  20
ATOM     20  C   UNL     1       0.649  11.228  18.559  0.00  0.00    +0.000 C 
ATOM     21  C   UNL     1       1.668  12.342  18.732  0.00  0.00    +0.000 C 
ENDBRANCH   3  20
TORSDOF 4
ENDMDL
