MODEL 1
REMARK VINA RESULT:      -7.0      0.000      0.000
REMARK  Name = 
REMARK  8 active torsions:
REMARK  status: ('A' for Active; 'I' for Inactive)
REMARK    1  A    between atoms: C_1  and  O_2
REMARK    2  A    between atoms: O_2  and  C_3
REMARK    3  A    between atoms: C_8  and  O_9
REMARK    4  A    between atoms: O_9  and  C_10
REMARK    5  A    between atoms: C_13  and  N_14
REMARK    6  A    between atoms: N_17  and  C_18
REMARK    7  A    between atoms: C_18  and  C_19
REMARK    8  A    between atoms: C_19  and  O_20
REMARK                            x       y       z     vdW  Elec       q    Type
REMARK                         _______ _______ _______ _____ _____    ______ ____
ROOT
ATOM      1  C   UNL     1       0.615  10.855  20.532  0.00  0.00    +0.000 A 
ATOM      2  C   UNL     1       1.048  10.384  19.278  0.00  0.00    +0.000 A 
ATOM      3  C   UNL     1       1.518   9.068  19.111  0.00  0.00    +0.000 A 
ATOM      4  C   UNL     1       1.517   8.238  20.235  0.00  0.00    +0.000 A 
ATOM      5  C   UNL     1       1.047   8.671  21.467  0.00  0.00    +0.000 A 
ATOM      6  C   UNL     1       0.601   9.974  21.651  0.00  0.00    +0.000 A 
ATOM      7  C   UNL     1       2.068   6.910  20.151  0.00  0.00    +0.000 C 
ATOM      8  O   UNL     1       1.663   6.099  20.956  0.00  0.00    +0.000 OA
ATOM      9  C   UNL     1       3.117   6.649  19.079  0.00  0.00    +0.000 C 
ATOM     10  C   UNL     1       2.434   7.034  17.756  0.00  0.00    +0.000 C 
ATOM     11  C   UNL     1       2.043   8.551  17.769  0.00  0.00    +0.000 C 
ENDROOT
BRANCH   9  12
ATOM     12  N   UNL     1       3.802   5.325  19.061  0.00  0.00    +0.000 NA
ATOM     13  C   UNL     1       3.448   4.447  17.929  0.00  0.00    +0.000 C 
ATOM     14  C   UNL     1       4.159   4.861  16.644  0.00  0.00    +0.000 C 
ATOM     15  N   UNL     1       5.620   5.150  16.839  0.00  0.00    +0.000 NA
ATOM     16  C   UNL     1       6.078   5.684  18.167  0.00  0.00    +0.000 C 
ATOM     17  C   UNL     1       5.235   5.204  19.340  0.00  0.00    +0.000 C 
BRANCH  15  18
ATOM     18  C   UNL     1       6.500   4.106  16.298  0.00  0.00    +0.000 C 
BRANCH  18  19
ATOM     19  C   UNL     1       6.938   4.420  14.859  0.00  0.00    +0.000 C 
BRANCH  19  20
ATOM     20  O   UNL     1       7.752   5.565  14.829  0.00  0.00    +0.000 OA
ATOM     21  H   UNL     1       7.204   6.296  14.434  0.00  0.00    +0.000 HD
ENDBRANCH  19  20
ENDBRANCH  18  19
ENDBRANCH  15  18
ENDBRANCH   9  12
BRANCH   1  23
ATOM     22  C   UNL     1       1.028  13.230  20.968  0.00  0.00    +0.000 C 
ATOM     23  O   UNL     1       0.240  12.157  20.605  0.00  0.00    +0.000 OA
ENDBRANCH   1  23
BRANCH   6  24
ATOM     24  O   UNL     1       0.165  10.370  22.874  0.00  0.00    +0.000 OA
ATOM     25  C   UNL     1      -1.158  10.586  23.232  0.00  0.00    +0.000 C 
ENDBRANCH   6  24
TORSDOF 6
ENDMDL
MODEL 2
REMARK VINA RESULT:      -6.5      1.096      1.103
REMARK  Name = 
REMARK  8 active torsions:
REMARK  status: ('A' for Active; 'I' for Inactive)
REMARK    1  A    between atoms: C_1  and  O_2
REMARK    2  A    between atoms: O_2  and  C_3
REMARK    3  A    between atoms: C_8  and  O_9
REMARK    4  A    between atoms: O_9  and  C_10
REMARK    5  A    between atoms: C_13  and  N_14
REMARK    6  A    between atoms: N_17  and  C_18
REMARK    7  A    between atoms: C_18  and  C_19
REMARK    8  A    between atoms: C_19  and  O_20
REMARK                            x       y       z     vdW  Elec       q    Type
REMARK                         _______ _______ _______ _____ _____    ______ ____
ROOT
ATOM      1  C   UNL     1       0.240   9.971  20.372  0.00  0.00    +0.000 A 
ATOM      2  C   UNL     1       0.982   9.799  19.188  0.00  0.00    +0.000 A 
ATOM      3  C   UNL     1       1.722   8.626  18.949  0.00  0.00    +0.000 A 
ATOM      4  C   UNL     1       1.675   7.627  19.925  0.00  0.00    +0.000 A 
ATOM      5  C   UNL     1       0.909   7.761  21.075  0.00  0.00    +0.000 A 
ATOM      6  C   UNL     1       0.190   8.922  21.332  0.00  0.00    +0.000 A 
ATOM      7  C   UNL     1       2.480   6.442  19.784  0.00  0.00    +0.000 C 
ATOM      8  O   UNL     1       2.098   5.449  20.367  0.00  0.00    +0.000 OA
ATOM      9  C   UNL     1       3.740   6.543  18.935  0.00  0.00    +0.000 C 
ATOM     10  C   UNL     1       3.253   7.031  17.562  0.00  0.00    +0.000 C 
ATOM     11  C   UNL     1       2.578   8.439  17.694  0.00  0.00    +0.000 C 
ENDROOT
BRANCH   9  12
ATOM     12  N   UNL     1       4.661   5.372  18.887  0.00  0.00    +0.000 NA
ATOM     13  C   UNL     1       4.321   4.344  17.885  0.00  0.00    +0.000 C 
ATOM     14  C   UNL     1       4.737   4.762  16.478  0.00  0.00    +0.000 C 
ATOM     15  N   UNL     1       6.125   5.332  16.412  0.00  0.00    +0.000 NA
ATOM     16  C   UNL     1       6.663   6.060  17.611  0.00  0.00    +0.000 C 
ATOM     17  C   UNL     1       6.115   5.542  18.933  0.00  0.00    +0.000 C 
BRANCH  15  18
ATOM     18  C   UNL     1       7.103   4.421  15.799  0.00  0.00    +0.000 C 
BRANCH  18  19
ATOM     19  C   UNL     1       7.126   4.559  14.268  0.00  0.00    +0.000 C 
BRANCH  19  20
ATOM     20  O   UNL     1       8.010   5.579  13.877  0.00  0.00    +0.000 OA
ATOM     21  H   UNL     1       8.066   5.544  12.883  0.00  0.00    +0.000 HD
ENDBRANCH  19  20
ENDBRANCH  18  19
ENDBRANCH  15  18
ENDBRANCH   9  12
BRANCH   1  23
ATOM     22  C   UNL     1      -1.384  11.695  19.744  0.00  0.00    +0.000 C 
ATOM     23  O   UNL     1      -0.388  11.162  20.537  0.00  0.00    +0.000 OA
ENDBRANCH   1  23
BRANCH   6  24
ATOM     24  O   UNL     1      -0.534   9.026  22.476  0.00  0.00    +0.000 OA
ATOM     25  C   UNL     1      -0.132   9.679  23.632  0.00  0.00    +0.000 C 
ENDBRANCH   6  24
TORSDOF 6
ENDMDL
MODEL 3
REMARK VINA RESULT:      -6.4      2.133      2.613
REMARK  Name = 
REMARK  8 active torsions:
REMARK  status: ('A' for Active; 'I' for Inactive)
REMARK    1  A    between atoms: C_1  and  O_2
REMARK    2  A    between atoms: O_2  and  C_3
REMARK    3  A    between atoms: C_8  and  O_9
REMARK    4  A    between atoms: O_9  and  C_10
REMARK    5  A    between atoms: C_13  and  N_14
REMARK    6  A    between atoms: N_17  and  C_18
REMARK    7  A    between atoms: C_18  and  C_19
REMARK    8  A    between atoms: C_19  and  O_20
REMARK                            x       y       z     vdW  Elec       q    Type
REMARK                         _______ _______ _______ _____ _____    ______ ____
ROOT
ATOM      1  C   UNL     1       0.474  11.570  19.971  0.00  0.00    +0.000 A 
ATOM      2  C   UNL     1       0.945  10.877  18.839  0.00  0.00    +0.000 A 
ATOM      3  C   UNL     1       1.346   9.531  18.917  0.00  0.00    +0.000 A 
ATOM      4  C   UNL     1       1.241   8.900  20.159  0.00  0.00    +0.000 A 
ATOM      5  C   UNL     1       0.733   9.554  21.273  0.00  0.00    +0.000 A 
ATOM      6  C   UNL     1       0.352  10.889  21.215  0.00  0.00    +0.000 A 
ATOM      7  C   UNL     1       1.720   7.553  20.327  0.00  0.00    +0.000 C 
ATOM      8  O   UNL     1       1.228   6.906  21.227  0.00  0.00    +0.000 OA
ATOM      9  C   UNL     1       2.805   7.068  19.376  0.00  0.00    +0.000 C 
ATOM     10  C   UNL     1       2.215   7.260  17.970  0.00  0.00    +0.000 C 
ATOM     11  C   UNL     1       1.911   8.774  17.712  0.00  0.00    +0.000 C 
ENDROOT
BRANCH   9  12
ATOM     12  N   UNL     1       3.414   5.728  19.616  0.00  0.00    +0.000 NA
ATOM     13  C   UNL     1       2.486   4.693  20.109  0.00  0.00    +0.000 C 
ATOM     14  C   UNL     1       1.618   4.127  18.988  0.00  0.00    +0.000 C 
ATOM     15  N   UNL     1       2.394   3.798  17.744  0.00  0.00    +0.000 NA
ATOM     16  C   UNL     1       3.618   4.607  17.423  0.00  0.00    +0.000 C 
ATOM     17  C   UNL     1       4.343   5.129  18.655  0.00  0.00    +0.000 C 
BRANCH  15  18
ATOM     18  C   UNL     1       2.580   2.355  17.535  0.00  0.00    +0.000 C 
BRANCH  18  19
ATOM     19  C   UNL     1       3.215   1.680  18.761  0.00  0.00    +0.000 C 
BRANCH  19  20
ATOM     20  O   UNL     1       4.104   0.668  18.363  0.00  0.00    +0.000 OA
ATOM     21  H   UNL     1       4.245   0.082  19.155  0.00  0.00    +0.000 HD
ENDBRANCH  19  20
ENDBRANCH  18  19
ENDBRANCH  15  18
ENDBRANCH   9  12
BRANCH   1  23
ATOM     22  C   UNL     1      -0.367  13.479  18.686  0.00  0.00    +0.000 C 
ATOM     23  O   UNL     1       0.171  12.882  19.808  0.00  0.00    +0.000 OA
ENDBRANCH   1  23
BRANCH   6  24
ATOM     24  O   UNL     1      -0.123  11.503  22.329  0.00  0.00    +0.000 OA
ATOM     25  C   UNL     1      -1.279  11.158  23.013  0.00  0.00    +0.000 C 
ENDBRANCH   6  24
TORSDOF 6
ENDMDL
MODEL 4
REMARK VINA RESULT:      -6.3      3.015      8.354
REMARK  Name = 
REMARK  8 active torsions:
REMARK  status: ('A' for Active; 'I' for Inactive)
REMARK    1  A    between atoms: C_1  and  O_2
REMARK    2  A    between atoms: O_2  and  C_3
REMARK    3  A    between atoms: C_8  and  O_9
REMARK    4  A    between atoms: O_9  and  C_10
REMARK    5  A    between atoms: C_13  and  N_14
REMARK    6  A    between atoms: N_17  and  C_18
REMARK    7  A    between atoms: C_18  and  C_19
REMARK    8  A    between atoms: C_19  and  O_20
REMARK                            x       y       z     vdW  Elec       q    Type
REMARK                         _______ _______ _______ _____ _____    ______ ____
ROOT
ATOM      1  C   UNL     1       4.017   5.537  19.126  0.00  0.00    +0.000 A 
ATOM      2  C   UNL     1       3.056   5.961  20.064  0.00  0.00    +0.000 A 
ATOM      3  C   UNL     1       2.252   7.091  19.830  0.00  0.00    +0.000 A 
ATOM      4  C   UNL     1       2.429   7.768  18.620  0.00  0.00    +0.000 A 
ATOM      5  C   UNL     1       3.338   7.334  17.665  0.00  0.00    +0.000 A 
ATOM      6  C   UNL     1       4.153   6.232  17.891  0.00  0.00    +0.000 A 
ATOM      7  C   UNL     1       1.703   8.983  18.360  0.00  0.00    +0.000 C 
ATOM      8  O   UNL     1       1.534   9.280  17.196  0.00  0.00    +0.000 OA
ATOM      9  C   UNL     1       1.230   9.791  19.560  0.00  0.00    +0.000 C 
ATOM     10  C   UNL     1       0.372   8.816  20.381  0.00  0.00    +0.000 C 
ATOM     11  C   UNL     1       1.238   7.601  20.858  0.00  0.00    +0.000 C 
ENDROOT
BRANCH   9  12
ATOM     12  N   UNL     1       0.598  11.120  19.318  0.00  0.00    +0.000 NA
ATOM     13  C   UNL     1      -0.551  11.440  20.186  0.00  0.00    +0.000 C 
ATOM     14  C   UNL     1      -0.107  11.876  21.579  0.00  0.00    +0.000 C 
ATOM     15  N   UNL     1       1.019  12.870  21.561  0.00  0.00    +0.000 NA
ATOM     16  C   UNL     1       2.006  12.820  20.430  0.00  0.00    +0.000 C 
ATOM     17  C   UNL     1       1.408  12.326  19.121  0.00  0.00    +0.000 C 
BRANCH  15  18
ATOM     18  C   UNL     1       0.599  14.235  21.906  0.00  0.00    +0.000 C 
BRANCH  18  19
ATOM     19  C   UNL     1      -0.732  14.245  22.674  0.00  0.00    +0.000 C 
BRANCH  19  20
ATOM     20  O   UNL     1      -0.560  14.795  23.955  0.00  0.00    +0.000 OA
ATOM     21  H   UNL     1      -0.616  14.040  24.601  0.00  0.00    +0.000 HD
ENDBRANCH  19  20
ENDBRANCH  18  19
ENDBRANCH  15  18
ENDBRANCH   9  12
BRANCH   1  23
ATOM     22  C   UNL     1       4.409   3.147  19.498  0.00  0.00    +0.000 C 
ATOM     23  O   UNL     1       4.786   4.474  19.471  0.00  0.00    +0.000 OA
ENDBRANCH   1  23
BRANCH   6  24
ATOM     24  O   UNL     1       5.044   5.847  16.942  0.00  0.00    +0.000 OA
ATOM     25  C   UNL     1       4.945   4.711  16.152  0.00  0.00    +0.000 C 
ENDBRANCH   6  24
TORSDOF 6
ENDMDL
MODEL 5
REMARK VINA RESULT:      -6.2      3.362      7.826
REMARK  Name = 
REMARK  8 active torsions:
REMARK  status: ('A' for Active; 'I' for Inactive)
REMARK    1  A    between atoms: C_1  and  O_2
REMARK    2  A    between atoms: O_2  and  C_3
REMARK    3  A    between atoms: C_8  and  O_9
REMARK    4  A    between atoms: O_9  and  C_10
REMARK    5  A    between atoms: C_13  and  N_14
REMARK    6  A    between atoms: N_17  and  C_18
REMARK    7  A    between atoms: C_18  and  C_19
REMARK    8  A    between atoms: C_19  and  O_20
REMARK                            x       y       z     vdW  Elec       q    Type
REMARK                         _______ _______ _______ _____ _____    ______ ____
ROOT
ATOM      1  C   UNL     1       2.859   4.834  18.763  0.00  0.00    +0.000 A 
ATOM      2  C   UNL     1       2.845   6.032  18.021  0.00  0.00    +0.000 A 
ATOM      3  C   UNL     1       2.389   7.237  18.585  0.00  0.00    +0.000 A 
ATOM      4  C   UNL     1       1.970   7.206  19.918  0.00  0.00    +0.000 A 
ATOM      5  C   UNL     1       2.024   6.045  20.676  0.00  0.00    +0.000 A 
ATOM      6  C   UNL     1       2.452   4.843  20.126  0.00  0.00    +0.000 A 
ATOM      7  C   UNL     1       1.408   8.384  20.526  0.00  0.00    +0.000 C 
ATOM      8  O   UNL     1       1.478   8.462  21.734  0.00  0.00    +0.000 OA
ATOM      9  C   UNL     1       0.765   9.413  19.606  0.00  0.00    +0.000 C 
ATOM     10  C   UNL     1       1.870   9.795  18.607  0.00  0.00    +0.000 C 
ATOM     11  C   UNL     1       2.314   8.539  17.783  0.00  0.00    +0.000 C 
ENDROOT
BRANCH   9  12
ATOM     12  N   UNL     1       0.056  10.571  20.220  0.00  0.00    +0.000 NA
ATOM     13  C   UNL     1       0.920  11.695  20.629  0.00  0.00    +0.000 C 
ATOM     14  C   UNL     1       1.341  12.551  19.438  0.00  0.00    +0.000 C 
ATOM     15  N   UNL     1       0.206  12.879  18.510  0.00  0.00    +0.000 NA
ATOM     16  C   UNL     1      -0.923  11.898  18.378  0.00  0.00    +0.000 C 
ATOM     17  C   UNL     1      -1.185  11.098  19.646  0.00  0.00    +0.000 C 
BRANCH  15  18
ATOM     18  C   UNL     1      -0.244  14.274  18.607  0.00  0.00    +0.000 C 
BRANCH  18  19
ATOM     19  C   UNL     1      -0.695  14.629  20.032  0.00  0.00    +0.000 C 
BRANCH  19  20
ATOM     20  O   UNL     1      -2.094  14.737  20.095  0.00  0.00    +0.000 OA
ATOM     21  H   UNL     1      -2.333  15.609  19.677  0.00  0.00    +0.000 HD
ENDBRANCH  19  20
ENDBRANCH  18  19
ENDBRANCH  15  18
ENDBRANCH   9  12
BRANCH   1  23
ATOM     22  C   UNL     1       2.449   2.766  17.514  0.00  0.00    +0.000 C 
ATOM     23  O   UNL     1       3.257   3.712  18.111  0.00  0.00    +0.000 OA
ENDBRANCH   1  23
BRANCH   6  24
ATOM     24  O   UNL     1       2.475   3.722  20.892  0.00  0.00    +0.000 OA
ATOM     25  C   UNL     1       1.377   2.936  21.210  0.00  0.00    +0.000 C 
ENDBRANCH   6  24
TORSDOF 6
ENDMDL
MODEL 6
REMARK VINA RESULT:      -6.2      3.153      8.067
REMARK  Name = 
REMARK  8 active torsions:
REMARK  status: ('A' for Active; 'I' for Inactive)
REMARK    1  A    between atoms: C_1  and  O_2
REMARK    2  A    between atoms: O_2  and  C_3
REMARK    3  A    between atoms: C_8  and  O_9
REMARK    4  A    between atoms: O_9  and  C_10
REMARK    5  A    between atoms: C_13  and  N_14
REMARK    6  A    between atoms: N_17  and  C_18
REMARK    7  A    between atoms: C_18  and  C_19
REMARK    8  A    between atoms: C_19  and  O_20
REMARK                            x       y       z     vdW  Elec       q    Type
REMARK                         _______ _______ _______ _____ _____    ______ ____
ROOT
ATOM      1  C   UNL     1       3.719   5.601  19.241  0.00  0.00    +0.000 A 
ATOM      2  C   UNL     1       2.816   6.112  20.193  0.00  0.00    +0.000 A 
ATOM      3  C   UNL     1       2.068   7.277  19.944  0.00  0.00    +0.000 A 
ATOM      4  C   UNL     1       2.241   7.899  18.704  0.00  0.00    +0.000 A 
ATOM      5  C   UNL     1       3.091   7.381  17.736  0.00  0.00    +0.000 A 
ATOM      6  C   UNL     1       3.851   6.243  17.977  0.00  0.00    +0.000 A 
ATOM      7  C   UNL     1       1.575   9.143  18.422  0.00  0.00    +0.000 C 
ATOM      8  O   UNL     1       1.383   9.407  17.254  0.00  0.00    +0.000 OA
ATOM      9  C   UNL     1       1.188  10.019  19.605  0.00  0.00    +0.000 C 
ATOM     10  C   UNL     1       0.306   9.124  20.489  0.00  0.00    +0.000 C 
ATOM     11  C   UNL     1       1.120   7.880  20.983  0.00  0.00    +0.000 C 
ENDROOT
BRANCH   9  12
ATOM     12  N   UNL     1       0.624  11.372  19.334  0.00  0.00    +0.000 NA
ATOM     13  C   UNL     1      -0.331  11.871  20.342  0.00  0.00    +0.000 C 
ATOM     14  C   UNL     1       0.379  12.389  21.590  0.00  0.00    +0.000 C 
ATOM     15  N   UNL     1       1.555  13.272  21.282  0.00  0.00    +0.000 NA
ATOM     16  C   UNL     1       2.324  13.032  20.015  0.00  0.00    +0.000 C 
ATOM     17  C   UNL     1       1.473  12.477  18.881  0.00  0.00    +0.000 C 
BRANCH  15  18
ATOM     18  C   UNL     1       1.302  14.695  21.548  0.00  0.00    +0.000 C 
BRANCH  18  19
ATOM     19  C   UNL     1       2.605  15.464  21.818  0.00  0.00    +0.000 C 
BRANCH  19  20
ATOM     20  O   UNL     1       3.369  14.812  22.800  0.00  0.00    +0.000 OA
ATOM     21  H   UNL     1       3.425  15.432  23.578  0.00  0.00    +0.000 HD
ENDBRANCH  19  20
ENDBRANCH  18  19
ENDBRANCH  15  18
ENDBRANCH   9  12
BRANCH   1  23
ATOM     22  C   UNL     1       4.120   3.187  19.368  0.00  0.00    +0.000 C 
ATOM     23  O   UNL     1       4.440   4.509  19.601  0.00  0.00    +0.000 OA
ENDBRANCH   1  23
BRANCH   6  24
ATOM     24  O   UNL     1       4.686   5.774  17.015  0.00  0.00    +0.000 OA
ATOM     25  C   UNL     1       5.870   6.372  16.609  0.00  0.00    +0.000 C 
ENDBRANCH   6  24
TORSDOF 6
ENDMDL
MODEL 7
REMARK VINA RESULT:      -6.2      2.635      3.596
REMARK  Name = 
REMARK  8 active torsions:
REMARK  status: ('A' for Active; 'I' for Inactive)
REMARK    1  A    between atoms: C_1  and  O_2
REMARK    2  A    between atoms: O_2  and  C_3
REMARK    3  A    between atoms: C_8  and  O_9
REMARK    4  A    between atoms: O_9  and  C_10
REMARK    5  A    between atoms: C_13  and  N_14
REMARK    6  A    between atoms: N_17  and  C_18
REMARK    7  A    between atoms: C_18  and  C_19
REMARK    8  A    between atoms: C_19  and  O_20
REMARK                            x       y       z     vdW  Elec       q    Type
REMARK                         _______ _______ _______ _____ _____    ______ ____
ROOT
ATOM      1  C   UNL     1      -0.679  11.343  20.531  0.00  0.00    +0.000 A 
ATOM      2  C   UNL     1      -0.121  10.233  21.193  0.00  0.00    +0.000 A 
ATOM      3  C   UNL     1       0.722   9.327  20.524  0.00  0.00    +0.000 A 
ATOM      4  C   UNL     1       1.003   9.583  19.179  0.00  0.00    +0.000 A 
ATOM      5  C   UNL     1       0.500  10.700  18.525  0.00  0.00    +0.000 A 
ATOM      6  C   UNL     1      -0.350  11.591  19.168  0.00  0.00    +0.000 A 
ATOM      7  C   UNL     1       1.784   8.648  18.414  0.00  0.00    +0.000 C 
ATOM      8  O   UNL     1       2.368   9.086  17.445  0.00  0.00    +0.000 OA
ATOM      9  C   UNL     1       1.796   7.197  18.875  0.00  0.00    +0.000 C 
ATOM     10  C   UNL     1       2.288   7.248  20.330  0.00  0.00    +0.000 C 
ATOM     11  C   UNL     1       1.297   8.084  21.208  0.00  0.00    +0.000 C 
ENDROOT
BRANCH   9  12
ATOM     12  N   UNL     1       2.483   6.185  18.022  0.00  0.00    +0.000 NA
ATOM     13  C   UNL     1       3.944   6.092  18.208  0.00  0.00    +0.000 C 
ATOM     14  C   UNL     1       4.308   5.314  19.470  0.00  0.00    +0.000 C 
ATOM     15  N   UNL     1       3.527   4.041  19.631  0.00  0.00    +0.000 NA
ATOM     16  C   UNL     1       2.134   3.975  19.073  0.00  0.00    +0.000 C 
ATOM     17  C   UNL     1       1.931   4.840  17.838  0.00  0.00    +0.000 C 
BRANCH  15  18
ATOM     18  C   UNL     1       4.318   2.832  19.362  0.00  0.00    +0.000 C 
BRANCH  18  19
ATOM     19  C   UNL     1       3.729   2.012  18.204  0.00  0.00    +0.000 C 
BRANCH  19  20
ATOM     20  O   UNL     1       3.920   0.638  18.424  0.00  0.00    +0.000 OA
ATOM     21  H   UNL     1       4.902   0.475  18.383  0.00  0.00    +0.000 HD
ENDBRANCH  19  20
ENDBRANCH  18  19
ENDBRANCH  15  18
ENDBRANCH   9  12
BRANCH   1  23
ATOM     22  C   UNL     1      -1.209  12.965  22.289  0.00  0.00    +0.000 C 
ATOM     23  O   UNL     1      -1.530  12.122  21.245  0.00  0.00    +0.000 OA
ENDBRANCH   1  23
BRANCH   6  24
ATOM     24  O   UNL     1      -0.838  12.663  18.493  0.00  0.00    +0.000 OA
ATOM     25  C   UNL     1      -0.331  13.953  18.547  0.00  0.00    +0.000 C 
ENDBRANCH   6  24
TORSDOF 6
ENDMDL
MODEL 8
REMARK VINA RESULT:      -6.1      1.094      1.115
REMARK  Name = 
REMARK  8 active torsions:
REMARK  status: ('A' for Active; 'I' for Inactive)
REMARK    1  A    between atoms: C_1  and  O_2
REMARK    2  A    between atoms: O_2  and  C_3
REMARK    3  A    between atoms: C_8  and  O_9
REMARK    4  A    between atoms: O_9  and  C_10
REMARK    5  A    between atoms: C_13  and  N_14
REMARK    6  A    between atoms: N_17  and  C_18
REMARK    7  A    between atoms: C_18  and  C_19
REMARK    8  A    between atoms: C_19  and  O_20
REMARK                            x       y       z     vdW  Elec       q    Type
REMARK                         _______ _______ _______ _____ _____    ______ ____
ROOT
ATOM      1  C   UNL     1       0.654  11.563  20.573  0.00  0.00    +0.000 A 
ATOM      2  C   UNL     1       1.103  11.036  19.348  0.00  0.00    +0.000 A 
ATOM      3  C   UNL     1       1.352   9.660  19.189  0.00  0.00    +0.000 A 
ATOM      4  C   UNL     1       1.116   8.833  20.289  0.00  0.00    +0.000 A 
ATOM      5  C   UNL     1       0.627   9.330  21.489  0.00  0.00    +0.000 A 
ATOM      6  C   UNL     1       0.396  10.689  21.667  0.00  0.00    +0.000 A 
ATOM      7  C   UNL     1       1.437   7.431  20.221  0.00  0.00    +0.000 C 
ATOM      8  O   UNL     1       0.833   6.695  20.971  0.00  0.00    +0.000 OA
ATOM      9  C   UNL     1       2.510   7.002  19.230  0.00  0.00    +0.000 C 
ATOM     10  C   UNL     1       2.016   7.510  17.866  0.00  0.00    +0.000 C 
ATOM     11  C   UNL     1       1.891   9.071  17.882  0.00  0.00    +0.000 C 
ENDROOT
BRANCH   9  12
ATOM     12  N   UNL     1       2.957   5.580  19.238  0.00  0.00    +0.000 NA
ATOM     13  C   UNL     1       2.785   4.858  17.962  0.00  0.00    +0.000 C 
ATOM     14  C   UNL     1       3.870   5.221  16.952  0.00  0.00    +0.000 C 
ATOM     15  N   UNL     1       5.252   5.226  17.540  0.00  0.00    +0.000 NA
ATOM     16  C   UNL     1       5.417   5.578  18.991  0.00  0.00    +0.000 C 
ATOM     17  C   UNL     1       4.226   5.182  19.853  0.00  0.00    +0.000 C 
BRANCH  15  18
ATOM     18  C   UNL     1       6.069   4.077  17.124  0.00  0.00    +0.000 C 
BRANCH  18  19
ATOM     19  C   UNL     1       7.501   4.499  16.761  0.00  0.00    +0.000 C 
BRANCH  19  20
ATOM     20  O   UNL     1       8.411   4.046  17.730  0.00  0.00    +0.000 OA
ATOM     21  H   UNL     1       7.893   3.910  18.569  0.00  0.00    +0.000 HD
ENDBRANCH  19  20
ENDBRANCH  18  19
ENDBRANCH  15  18
ENDBRANCH   9  12
BRANCH   1  23
ATOM     22  C   UNL     1       1.398  13.871  20.220  0.00  0.00    +0.000 C 
ATOM     23  O   UNL     1       0.504  12.910  20.645  0.00  0.00    +0.000 OA
ENDBRANCH   1  23
BRANCH   6  24
ATOM     24  O   UNL     1      -0.065  11.144  22.860  0.00  0.00    +0.000 OA
ATOM     25  C   UNL     1      -1.391  11.418  23.164  0.00  0.00    +0.000 C 
ENDBRANCH   6  24
TORSDOF 6
ENDMDL
MODEL 9
REMARK VINA RESULT:      -6.0      3.376      7.794
REMARK  Name = 
REMARK  8 active torsions:
REMARK  status: ('A' for Active; 'I' for Inactive)
REMARK    1  A    between atoms: C_1  and  O_2
REMARK    2  A    between atoms: O_2  and  C_3
REMARK    3  A    between atoms: C_8  and  O_9
REMARK    4  A    between atoms: O_9  and  C_10
REMARK    5  A    between atoms: C_13  and  N_14
REMARK    6  A    between atoms: N_17  and  C_18
REMARK    7  A    between atoms: C_18  and  C_19
REMARK    8  A    between atoms: C_19  and  O_20
REMARK                            x       y       z     vdW  Elec       q    Type
REMARK                         _______ _______ _______ _____ _____    ______ ____
ROOT
ATOM      1  C   UNL     1       2.144   4.028  18.664  0.00  0.00    +0.000 A 
ATOM      2  C   UNL     1       2.514   5.144  17.888  0.00  0.00    +0.000 A 
ATOM      3  C   UNL     1       2.407   6.454  18.390  0.00  0.00    +0.000 A 
ATOM      4  C   UNL     1       1.939   6.605  19.698  0.00  0.00    +0.000 A 
ATOM      5  C   UNL     1       1.617   5.513  20.492  0.00  0.00    +0.000 A 
ATOM      6  C   UNL     1       1.698   4.216  20.003  0.00  0.00    +0.000 A 
ATOM      7  C   UNL     1       1.721   7.921  20.239  0.00  0.00    +0.000 C 
ATOM      8  O   UNL     1       1.757   8.029  21.446  0.00  0.00    +0.000 OA
ATOM      9  C   UNL     1       1.450   9.051  19.255  0.00  0.00    +0.000 C 
ATOM     10  C   UNL     1       2.660   9.050  18.308  0.00  0.00    +0.000 C 
ATOM     11  C   UNL     1       2.753   7.684  17.547  0.00  0.00    +0.000 C 
ENDROOT
BRANCH   9  12
ATOM     12  N   UNL     1       1.085  10.392  19.794  0.00  0.00    +0.000 NA
ATOM     13  C   UNL     1       0.863  11.440  18.781  0.00  0.00    +0.000 C 
ATOM     14  C   UNL     1      -0.503  11.308  18.115  0.00  0.00    +0.000 C 
ATOM     15  N   UNL     1      -1.621  11.069  19.090  0.00  0.00    +0.000 NA
ATOM     16  C   UNL     1      -1.320  10.329  20.362  0.00  0.00    +0.000 C 
ATOM     17  C   UNL     1       0.099  10.540  20.869  0.00  0.00    +0.000 C 
BRANCH  15  18
ATOM     18  C   UNL     1      -2.483  12.242  19.290  0.00  0.00    +0.000 C 
BRANCH  18  19
ATOM     19  C   UNL     1      -3.933  11.962  18.865  0.00  0.00    +0.000 C 
BRANCH  19  20
ATOM     20  O   UNL     1      -4.076  12.104  17.475  0.00  0.00    +0.000 OA
ATOM     21  H   UNL     1      -4.467  13.006  17.318  0.00  0.00    +0.000 HD
ENDBRANCH  19  20
ENDBRANCH  18  19
ENDBRANCH  15  18
ENDBRANCH   9  12
BRANCH   1  23
ATOM     22  C   UNL     1       3.245   1.892  18.186  0.00  0.00    +0.000 C 
ATOM     23  O   UNL     1       2.223   2.811  18.069  0.00  0.00    +0.000 OA
ENDBRANCH   1  23
BRANCH   6  24
ATOM     24  O   UNL     1       1.357   3.171  20.801  0.00  0.00    +0.000 OA
ATOM     25  C   UNL     1       2.129   2.655  21.832  0.00  0.00    +0.000 C 
ENDBRANCH   6  24
TORSDOF 6
ENDMDL
