MODEL 1
REMARK VINA RESULT:      -5.8      0.000      0.000
REMARK  Name = 
REMARK  3 active torsions:
REMARK  status: ('A' for Active; 'I' for Inactive)
REMARK    1  A    between atoms: C_1  and  N_2
REMARK    2  A    between atoms: N_9  and  O_10
REMARK    3  A    between atoms: N_12  and  O_13
REMARK                            x       y       z     vdW  Elec       q    Type
REMARK                         _______ _______ _______ _____ _____    ______ ____
ROOT
ATOM      1  C   UNL     1       2.016   3.403  21.701  0.00  0.00    +0.000 C 
ATOM      2  N   UNL     1       2.175   3.588  20.248  0.00  0.00    +0.000 NA
ATOM      3  C   UNL     1       1.827   2.324  19.567  0.00  0.00    +0.000 C 
ATOM      4  C   UNL     1       3.092   1.609  19.058  0.00  0.00    +0.000 C 
ATOM      5  C   UNL     1       3.574   2.153  17.704  0.00  0.00    +0.000 C 
ATOM      6  C   UNL     1       4.973   2.769  17.773  0.00  0.00    +0.000 C 
ATOM      7  C   UNL     1       5.296   3.624  16.541  0.00  0.00    +0.000 C 
ATOM      8  C   UNL     1       5.986   4.928  16.908  0.00  0.00    +0.000 C 
ATOM      9  N   UNL     1       7.110   5.056  17.549  0.00  0.00    +0.000 NA
ATOM     10  C   UNL     1       5.273   6.195  16.502  0.00  0.00    +0.000 C 
ATOM     11  N   UNL     1       5.240   6.467  15.232  0.00  0.00    +0.000 NA
ATOM     12  C   UNL     1       4.619   6.984  17.620  0.00  0.00    +0.000 C 
ATOM     13  C   UNL     1       3.491   6.155  18.227  0.00  0.00    +0.000 C 
ATOM     14  C   UNL     1       2.596   6.949  19.172  0.00  0.00    +0.000 C 
ATOM     15  C   UNL     1       1.894   6.091  20.236  0.00  0.00    +0.000 C 
ATOM     16  C   UNL     1       1.348   4.720  19.776  0.00  0.00    +0.000 C 
ENDROOT
BRANCH   9  17
ATOM     17  O   UNL     1       7.673   3.816  17.860  0.00  0.00    +0.000 OA
ATOM     18  H   UNL     1       8.410   4.057  18.450  0.00  0.00    +0.000 HD
ENDBRANCH   9  17
BRANCH  11  19
ATOM     19  O   UNL     1       4.514   7.635  14.972  0.00  0.00    +0.000 OA
ATOM     20  H   UNL     1       4.796   7.861  14.064  0.00  0.00    +0.000 HD
ENDBRANCH  11  19
TORSDOF 2
ENDMDL
MODEL 2
REMARK VINA RESULT:      -5.7      9.762     12.308
REMARK  Name = 
REMARK  3 active torsions:
REMARK  status: ('A' for Active; 'I' for Inactive)
REMARK    1  A    between atoms: C_1  and  N_2
REMARK    2  A    between atoms: N_9  and  O_10
REMARK    3  A    between atoms: N_12  and  O_13
REMARK                            x       y       z     vdW  Elec       q    Type
REMARK                         _______ _______ _______ _____ _____    ______ ____
ROOT
ATOM      1  C   UNL     1      -0.471  13.176  18.268  0.00  0.00    +0.000 C 
ATOM      2  N   UNL     1      -1.461  12.233  18.816  0.00  0.00    +0.000 NA
ATOM      3  C   UNL     1      -1.213  10.896  18.238  0.00  0.00    +0.000 C 
ATOM      4  C   UNL     1      -2.280  10.548  17.184  0.00  0.00    +0.000 C 
ATOM      5  C   UNL     1      -3.568   9.989  17.809  0.00  0.00    +0.000 C 
ATOM      6  C   UNL     1      -4.793  10.864  17.532  0.00  0.00    +0.000 C 
ATOM      7  C   UNL     1      -5.977  10.515  18.443  0.00  0.00    +0.000 C 
ATOM      8  C   UNL     1      -6.678  11.754  18.977  0.00  0.00    +0.000 C 
ATOM      9  N   UNL     1      -7.230  12.696  18.271  0.00  0.00    +0.000 NA
ATOM     10  C   UNL     1      -6.710  11.904  20.479  0.00  0.00    +0.000 C 
ATOM     11  N   UNL     1      -7.473  11.082  21.134  0.00  0.00    +0.000 NA
ATOM     12  C   UNL     1      -5.798  12.965  21.066  0.00  0.00    +0.000 C 
ATOM     13  C   UNL     1      -4.345  12.577  20.807  0.00  0.00    +0.000 C 
ATOM     14  C   UNL     1      -3.345  13.427  21.582  0.00  0.00    +0.000 C 
ATOM     15  C   UNL     1      -1.958  13.517  20.925  0.00  0.00    +0.000 C 
ATOM     16  C   UNL     1      -1.403  12.220  20.294  0.00  0.00    +0.000 C 
ENDROOT
BRANCH   9  17
ATOM     17  O   UNL     1      -7.142  12.436  16.902  0.00  0.00    +0.000 OA
ATOM     18  H   UNL     1      -6.188  12.534  16.726  0.00  0.00    +0.000 HD
ENDBRANCH   9  17
BRANCH  11  19
ATOM     19  O   UNL     1      -7.384  11.284  22.516  0.00  0.00    +0.000 OA
ATOM     20  H   UNL     1      -6.890  10.495  22.813  0.00  0.00    +0.000 HD
ENDBRANCH  11  19
TORSDOF 2
ENDMDL
MODEL 3
REMARK VINA RESULT:      -5.5      8.685     10.758
REMARK  Name = 
REMARK  3 active torsions:
REMARK  status: ('A' for Active; 'I' for Inactive)
REMARK    1  A    between atoms: C_1  and  N_2
REMARK    2  A    between atoms: N_9  and  O_10
REMARK    3  A    between atoms: N_12  and  O_13
REMARK                            x       y       z     vdW  Elec       q    Type
REMARK                         _______ _______ _______ _____ _____    ______ ____
ROOT
ATOM      1  C   UNL     1      -6.053  10.542  18.506  0.00  0.00    +0.000 C 
ATOM      2  N   UNL     1      -4.880  11.370  18.838  0.00  0.00    +0.000 NA
ATOM      3  C   UNL     1      -4.076  11.565  17.615  0.00  0.00    +0.000 C 
ATOM      4  C   UNL     1      -2.796  10.709  17.657  0.00  0.00    +0.000 C 
ATOM      5  C   UNL     1      -1.665  11.379  18.454  0.00  0.00    +0.000 C 
ATOM      6  C   UNL     1      -1.237  10.567  19.679  0.00  0.00    +0.000 C 
ATOM      7  C   UNL     1      -0.389  11.390  20.657  0.00  0.00    +0.000 C 
ATOM      8  C   UNL     1      -0.788  11.153  22.105  0.00  0.00    +0.000 C 
ATOM      9  N   UNL     1      -0.784  10.016  22.734  0.00  0.00    +0.000 NA
ATOM     10  C   UNL     1      -1.253  12.367  22.872  0.00  0.00    +0.000 C 
ATOM     11  N   UNL     1      -0.352  13.253  23.172  0.00  0.00    +0.000 NA
ATOM     12  C   UNL     1      -2.741  12.449  23.158  0.00  0.00    +0.000 C 
ATOM     13  C   UNL     1      -3.499  12.584  21.841  0.00  0.00    +0.000 C 
ATOM     14  C   UNL     1      -4.970  12.942  22.023  0.00  0.00    +0.000 C 
ATOM     15  C   UNL     1      -5.872  12.490  20.864  0.00  0.00    +0.000 C 
ATOM     16  C   UNL     1      -5.304  12.654  19.436  0.00  0.00    +0.000 C 
ENDROOT
BRANCH   9  17
ATOM     17  O   UNL     1      -0.325   8.977  21.921  0.00  0.00    +0.000 OA
ATOM     18  H   UNL     1       0.575   9.269  21.688  0.00  0.00    +0.000 HD
ENDBRANCH   9  17
BRANCH  11  19
ATOM     19  O   UNL     1      -0.907  14.352  23.838  0.00  0.00    +0.000 OA
ATOM     20  H   UNL     1      -1.779  14.011  24.115  0.00  0.00    +0.000 HD
ENDBRANCH  11  19
TORSDOF 2
ENDMDL
MODEL 4
REMARK VINA RESULT:      -5.5     10.523     12.619
REMARK  Name = 
REMARK  3 active torsions:
REMARK  status: ('A' for Active; 'I' for Inactive)
REMARK    1  A    between atoms: C_1  and  N_2
REMARK    2  A    between atoms: N_9  and  O_10
REMARK    3  A    between atoms: N_12  and  O_13
REMARK                            x       y       z     vdW  Elec       q    Type
REMARK                         _______ _______ _______ _____ _____    ______ ____
ROOT
ATOM      1  C   UNL     1      -1.145  14.551  20.040  0.00  0.00    +0.000 C 
ATOM      2  N   UNL     1      -1.901  13.288  20.107  0.00  0.00    +0.000 NA
ATOM      3  C   UNL     1      -1.149  12.245  19.379  0.00  0.00    +0.000 C 
ATOM      4  C   UNL     1      -1.815  11.933  18.026  0.00  0.00    +0.000 C 
ATOM      5  C   UNL     1      -2.979  10.939  18.156  0.00  0.00    +0.000 C 
ATOM      6  C   UNL     1      -4.321  11.533  17.722  0.00  0.00    +0.000 C 
ATOM      7  C   UNL     1      -5.513  10.687  18.190  0.00  0.00    +0.000 C 
ATOM      8  C   UNL     1      -6.647  11.540  18.733  0.00  0.00    +0.000 C 
ATOM      9  N   UNL     1      -7.293  12.470  18.092  0.00  0.00    +0.000 NA
ATOM     10  C   UNL     1      -7.041  11.287  20.168  0.00  0.00    +0.000 C 
ATOM     11  N   UNL     1      -7.645  10.165  20.421  0.00  0.00    +0.000 NA
ATOM     12  C   UNL     1      -6.634  12.349  21.172  0.00  0.00    +0.000 C 
ATOM     13  C   UNL     1      -5.111  12.403  21.255  0.00  0.00    +0.000 C 
ATOM     14  C   UNL     1      -4.598  13.241  22.421  0.00  0.00    +0.000 C 
ATOM     15  C   UNL     1      -3.195  13.828  22.200  0.00  0.00    +0.000 C 
ATOM     16  C   UNL     1      -2.157  12.910  21.514  0.00  0.00    +0.000 C 
ENDROOT
BRANCH   9  17
ATOM     17  O   UNL     1      -6.843  12.599  16.777  0.00  0.00    +0.000 OA
ATOM     18  H   UNL     1      -6.132  13.261  16.858  0.00  0.00    +0.000 HD
ENDBRANCH   9  17
BRANCH  11  19
ATOM     19  O   UNL     1      -7.916  10.021  21.787  0.00  0.00    +0.000 OA
ATOM     20  H   UNL     1      -8.631  10.672  21.929  0.00  0.00    +0.000 HD
ENDBRANCH  11  19
TORSDOF 2
ENDMDL
MODEL 5
REMARK VINA RESULT:      -5.5      8.516     11.007
REMARK  Name = 
REMARK  3 active torsions:
REMARK  status: ('A' for Active; 'I' for Inactive)
REMARK    1  A    between atoms: C_1  and  N_2
REMARK    2  A    between atoms: N_9  and  O_10
REMARK    3  A    between atoms: N_12  and  O_13
REMARK                            x       y       z     vdW  Elec       q    Type
REMARK                         _______ _______ _______ _____ _____    ______ ____
ROOT
ATOM      1  C   UNL     1      -0.816  10.572  23.073  0.00  0.00    +0.000 C 
ATOM      2  N   UNL     1      -1.295  11.382  21.940  0.00  0.00    +0.000 NA
ATOM      3  C   UNL     1      -1.593  12.746  22.424  0.00  0.00    +0.000 C 
ATOM      4  C   UNL     1      -3.113  12.975  22.519  0.00  0.00    +0.000 C 
ATOM      5  C   UNL     1      -3.736  13.366  21.170  0.00  0.00    +0.000 C 
ATOM      6  C   UNL     1      -4.771  12.353  20.676  0.00  0.00    +0.000 C 
ATOM      7  C   UNL     1      -5.114  12.545  19.192  0.00  0.00    +0.000 C 
ATOM      8  C   UNL     1      -5.197  11.224  18.445  0.00  0.00    +0.000 C 
ATOM      9  N   UNL     1      -5.991  10.230  18.713  0.00  0.00    +0.000 NA
ATOM     10  C   UNL     1      -4.241  11.053  17.288  0.00  0.00    +0.000 C 
ATOM     11  N   UNL     1      -4.468  11.769  16.229  0.00  0.00    +0.000 NA
ATOM     12  C   UNL     1      -3.079  10.104  17.514  0.00  0.00    +0.000 C 
ATOM     13  C   UNL     1      -2.175  10.668  18.606  0.00  0.00    +0.000 C 
ATOM     14  C   UNL     1      -0.843   9.936  18.726  0.00  0.00    +0.000 C 
ATOM     15  C   UNL     1      -0.205  10.023  20.122  0.00  0.00    +0.000 C 
ATOM     16  C   UNL     1      -0.300  11.385  20.846  0.00  0.00    +0.000 C 
ENDROOT
BRANCH   9  17
ATOM     17  O   UNL     1      -6.829  10.515  19.794  0.00  0.00    +0.000 OA
ATOM     18  H   UNL     1      -7.717  10.475  19.393  0.00  0.00    +0.000 HD
ENDBRANCH   9  17
BRANCH  11  19
ATOM     19  O   UNL     1      -3.494  11.563  15.246  0.00  0.00    +0.000 OA
ATOM     20  H   UNL     1      -2.749  11.196  15.762  0.00  0.00    +0.000 HD
ENDBRANCH  11  19
TORSDOF 2
ENDMDL
MODEL 6
REMARK VINA RESULT:      -5.4      9.388     11.974
REMARK  Name = 
REMARK  3 active torsions:
REMARK  status: ('A' for Active; 'I' for Inactive)
REMARK    1  A    between atoms: C_1  and  N_2
REMARK    2  A    between atoms: N_9  and  O_10
REMARK    3  A    between atoms: N_12  and  O_13
REMARK                            x       y       z     vdW  Elec       q    Type
REMARK                         _______ _______ _______ _____ _____    ______ ____
ROOT
ATOM      1  C   UNL     1      -0.198   9.766  20.998  0.00  0.00    +0.000 C 
ATOM      2  N   UNL     1      -0.922  10.986  20.600  0.00  0.00    +0.000 NA
ATOM      3  C   UNL     1      -0.413  12.121  21.397  0.00  0.00    +0.000 C 
ATOM      4  C   UNL     1      -1.430  12.531  22.478  0.00  0.00    +0.000 C 
ATOM      5  C   UNL     1      -2.526  13.462  21.936  0.00  0.00    +0.000 C 
ATOM      6  C   UNL     1      -3.928  12.858  22.044  0.00  0.00    +0.000 C 
ATOM      7  C   UNL     1      -4.954  13.609  21.185  0.00  0.00    +0.000 C 
ATOM      8  C   UNL     1      -5.885  12.664  20.442  0.00  0.00    +0.000 C 
ATOM      9  N   UNL     1      -6.670  11.773  20.972  0.00  0.00    +0.000 NA
ATOM     10  C   UNL     1      -5.870  12.766  18.936  0.00  0.00    +0.000 C 
ATOM     11  N   UNL     1      -6.394  13.835  18.416  0.00  0.00    +0.000 NA
ATOM     12  C   UNL     1      -5.188  11.632  18.194  0.00  0.00    +0.000 C 
ATOM     13  C   UNL     1      -3.701  11.631  18.536  0.00  0.00    +0.000 C 
ATOM     14  C   UNL     1      -2.876  10.710  17.645  0.00  0.00    +0.000 C 
ATOM     15  C   UNL     1      -1.581  10.202  18.299  0.00  0.00    +0.000 C 
ATOM     16  C   UNL     1      -0.785  11.220  19.146  0.00  0.00    +0.000 C 
ENDROOT
BRANCH   9  17
ATOM     17  O   UNL     1      -6.599  11.785  22.366  0.00  0.00    +0.000 OA
ATOM     18  H   UNL     1      -5.972  12.511  22.543  0.00  0.00    +0.000 HD
ENDBRANCH   9  17
BRANCH  11  19
ATOM     19  O   UNL     1      -6.281  13.841  17.021  0.00  0.00    +0.000 OA
ATOM     20  H   UNL     1      -5.668  14.585  16.863  0.00  0.00    +0.000 HD
ENDBRANCH  11  19
TORSDOF 2
ENDMDL
MODEL 7
REMARK VINA RESULT:      -5.4      8.445     11.002
REMARK  Name = 
REMARK  3 active torsions:
REMARK  status: ('A' for Active; 'I' for Inactive)
REMARK    1  A    between atoms: C_1  and  N_2
REMARK    2  A    between atoms: N_9  and  O_10
REMARK    3  A    between atoms: N_12  and  O_13
REMARK                            x       y       z     vdW  Elec       q    Type
REMARK                         _______ _______ _______ _____ _____    ______ ____
ROOT
ATOM      1  C   UNL     1      -3.826  11.389  15.933  0.00  0.00    +0.000 C 
ATOM      2  N   UNL     1      -3.778  11.079  17.373  0.00  0.00    +0.000 NA
ATOM      3  C   UNL     1      -5.159  11.028  17.894  0.00  0.00    +0.000 C 
ATOM      4  C   UNL     1      -5.474  12.280  18.735  0.00  0.00    +0.000 C 
ATOM      5  C   UNL     1      -4.971  12.161  20.182  0.00  0.00    +0.000 C 
ATOM      6  C   UNL     1      -3.925  13.220  20.538  0.00  0.00    +0.000 C 
ATOM      7  C   UNL     1      -3.168  12.882  21.830  0.00  0.00    +0.000 C 
ATOM      8  C   UNL     1      -1.676  13.142  21.708  0.00  0.00    +0.000 C 
ATOM      9  N   UNL     1      -1.108  14.278  21.427  0.00  0.00    +0.000 NA
ATOM     10  C   UNL     1      -0.774  11.950  21.916  0.00  0.00    +0.000 C 
ATOM     11  N   UNL     1      -0.685  11.486  23.126  0.00  0.00    +0.000 NA
ATOM     12  C   UNL     1      -0.114  11.383  20.673  0.00  0.00    +0.000 C 
ATOM     13  C   UNL     1      -1.188  10.823  19.746  0.00  0.00    +0.000 C 
ATOM     14  C   UNL     1      -0.624   9.993  18.598  0.00  0.00    +0.000 C 
ATOM     15  C   UNL     1      -1.528   9.946  17.356  0.00  0.00    +0.000 C 
ATOM     16  C   UNL     1      -3.048   9.814  17.607  0.00  0.00    +0.000 C 
ENDROOT
BRANCH   9  17
ATOM     17  O   UNL     1      -2.045  15.300  21.267  0.00  0.00    +0.000 OA
ATOM     18  H   UNL     1      -1.674  16.018  21.811  0.00  0.00    +0.000 HD
ENDBRANCH   9  17
BRANCH  11  19
ATOM     19  O   UNL     1       0.138  10.356  23.188  0.00  0.00    +0.000 OA
ATOM     20  H   UNL     1       0.588  10.375  22.321  0.00  0.00    +0.000 HD
ENDBRANCH  11  19
TORSDOF 2
ENDMDL
MODEL 8
REMARK VINA RESULT:      -5.4      8.678     10.991
REMARK  Name = 
REMARK  3 active torsions:
REMARK  status: ('A' for Active; 'I' for Inactive)
REMARK    1  A    between atoms: C_1  and  N_2
REMARK    2  A    between atoms: N_9  and  O_10
REMARK    3  A    between atoms: N_12  and  O_13
REMARK                            x       y       z     vdW  Elec       q    Type
REMARK                         _______ _______ _______ _____ _____    ______ ____
ROOT
ATOM      1  C   UNL     1       0.260  13.860  20.671  0.00  0.00    +0.000 C 
ATOM      2  N   UNL     1      -0.699  12.745  20.593  0.00  0.00    +0.000 NA
ATOM      3  C   UNL     1       0.049  11.472  20.642  0.00  0.00    +0.000 C 
ATOM      4  C   UNL     1       0.093  10.808  19.253  0.00  0.00    +0.000 C 
ATOM      5  C   UNL     1      -1.176   9.999  18.944  0.00  0.00    +0.000 C 
ATOM      6  C   UNL     1      -1.944  10.532  17.732  0.00  0.00    +0.000 C 
ATOM      7  C   UNL     1      -3.369   9.970  17.651  0.00  0.00    +0.000 C 
ATOM      8  C   UNL     1      -4.389  11.036  17.286  0.00  0.00    +0.000 C 
ATOM      9  N   UNL     1      -4.394  11.769  16.212  0.00  0.00    +0.000 NA
ATOM     10  C   UNL     1      -5.491  11.273  18.290  0.00  0.00    +0.000 C 
ATOM     11  N   UNL     1      -6.382  10.337  18.415  0.00  0.00    +0.000 NA
ATOM     12  C   UNL     1      -5.402  12.559  19.091  0.00  0.00    +0.000 C 
ATOM     13  C   UNL     1      -4.159  12.516  19.974  0.00  0.00    +0.000 C 
ATOM     14  C   UNL     1      -4.115  13.631  21.013  0.00  0.00    +0.000 C 
ATOM     15  C   UNL     1      -2.696  14.008  21.467  0.00  0.00    +0.000 C 
ATOM     16  C   UNL     1      -1.701  12.844  21.677  0.00  0.00    +0.000 C 
ENDROOT
BRANCH   9  17
ATOM     17  O   UNL     1      -3.333  11.448  15.362  0.00  0.00    +0.000 OA
ATOM     18  H   UNL     1      -3.312  10.474  15.404  0.00  0.00    +0.000 HD
ENDBRANCH   9  17
BRANCH  11  19
ATOM     19  O   UNL     1      -7.322  10.645  19.405  0.00  0.00    +0.000 OA
ATOM     20  H   UNL     1      -7.730  11.463  19.061  0.00  0.00    +0.000 HD
ENDBRANCH  11  19
TORSDOF 2
ENDMDL
MODEL 9
REMARK VINA RESULT:      -5.3      2.026      2.654
REMARK  Name = 
REMARK  3 active torsions:
REMARK  status: ('A' for Active; 'I' for Inactive)
REMARK    1  A    between atoms: C_1  and  N_2
REMARK    2  A    between atoms: N_9  and  O_10
REMARK    3  A    between atoms: N_12  and  O_13
REMARK                            x       y       z     vdW  Elec       q    Type
REMARK                         _______ _______ _______ _____ _____    ______ ____
ROOT
ATOM      1  C   UNL     1       1.474   7.416  20.765  0.00  0.00    +0.000 C 
ATOM      2  N   UNL     1       2.118   6.519  19.791  0.00  0.00    +0.000 NA
ATOM      3  C   UNL     1       1.678   5.134  20.058  0.00  0.00    +0.000 C 
ATOM      4  C   UNL     1       2.803   4.320  20.723  0.00  0.00    +0.000 C 
ATOM      5  C   UNL     1       3.806   3.756  19.705  0.00  0.00    +0.000 C 
ATOM      6  C   UNL     1       5.225   4.292  19.907  0.00  0.00    +0.000 C 
ATOM      7  C   UNL     1       6.127   4.027  18.694  0.00  0.00    +0.000 C 
ATOM      8  C   UNL     1       6.988   5.230  18.343  0.00  0.00    +0.000 C 
ATOM      9  N   UNL     1       7.850   5.819  19.117  0.00  0.00    +0.000 NA
ATOM     10  C   UNL     1       6.797   5.801  16.958  0.00  0.00    +0.000 C 
ATOM     11  N   UNL     1       7.231   5.087  15.964  0.00  0.00    +0.000 NA
ATOM     12  C   UNL     1       6.060   7.125  16.876  0.00  0.00    +0.000 C 
ATOM     13  C   UNL     1       4.624   6.931  17.351  0.00  0.00    +0.000 C 
ATOM     14  C   UNL     1       3.723   8.126  17.058  0.00  0.00    +0.000 C 
ATOM     15  C   UNL     1       2.525   8.255  18.012  0.00  0.00    +0.000 C 
ATOM     16  C   UNL     1       1.808   6.945  18.409  0.00  0.00    +0.000 C 
ENDROOT
BRANCH   9  17
ATOM     17  O   UNL     1       7.940   5.193  20.362  0.00  0.00    +0.000 OA
ATOM     18  H   UNL     1       8.650   4.539  20.221  0.00  0.00    +0.000 HD
ENDBRANCH   9  17
BRANCH  11  19
ATOM     19  O   UNL     1       6.957   5.693  14.733  0.00  0.00    +0.000 OA
ATOM     20  H   UNL     1       6.965   4.934  14.118  0.00  0.00    +0.000 HD
ENDBRANCH  11  19
TORSDOF 2
ENDMDL
