MODEL 1
REMARK VINA RESULT:      -8.8      0.000      0.000
REMARK  Name = 
REMARK  2 active torsions:
REMARK  status: ('A' for Active; 'I' for Inactive)
REMARK    1  A    between atoms: C_4  and  C_5
REMARK    2  A    between atoms: C_8  and  O_9
REMARK                            x       y       z     vdW  Elec       q    Type
REMARK                         _______ _______ _______ _____ _____    ______ ____
ROOT
ATOM      1  O   UNL     1       2.171   4.550  21.249  0.00  0.00    +0.000 OA
ATOM      2  C   UNL     1       2.134   5.581  20.588  0.00  0.00    +0.000 C 
ATOM      3  N   UNL     1       1.416   6.661  21.001  0.00  0.00    +0.000 N 
ATOM      4  C   UNL     1       1.470   7.898  20.418  0.00  0.00    +0.000 C 
ATOM      5  N   UNL     1       2.078   8.127  19.314  0.00  0.00    +0.000 NA
ATOM      6  C   UNL     1       2.609   7.004  18.531  0.00  0.00    +0.000 C 
ATOM      7  O   UNL     1       3.755   7.371  17.724  0.00  0.00    +0.000 OA
ATOM      8  C   UNL     1       4.355   6.315  17.084  0.00  0.00    +0.000 A 
ATOM      9  C   UNL     1       5.017   6.585  15.887  0.00  0.00    +0.000 A 
ATOM     10  C   UNL     1       5.642   5.545  15.200  0.00  0.00    +0.000 A 
ATOM     11  C   UNL     1       5.620   4.258  15.730  0.00  0.00    +0.000 A 
ATOM     12  F   UNL     1       6.219   3.262  15.065  0.00  0.00    +0.000 F 
ATOM     13  C   UNL     1       4.988   3.986  16.940  0.00  0.00    +0.000 A 
ATOM     14  C   UNL     1       4.346   5.019  17.624  0.00  0.00    +0.000 A 
ATOM     15  C   UNL     1       3.685   4.794  18.901  0.00  0.00    +0.000 C 
ATOM     16  C   UNL     1       2.862   5.763  19.328  0.00  0.00    +0.000 C 
ATOM     17  H   UNL     1       1.001   6.535  21.913  0.00  0.00    +0.000 HD
ENDROOT
BRANCH   4  18
ATOM     18  C   UNL     1       0.787   9.002  21.150  0.00  0.00    +0.000 A 
ATOM     19  C   UNL     1       0.709  10.268  20.556  0.00  0.00    +0.000 A 
ATOM     20  C   UNL     1       0.094  11.327  21.230  0.00  0.00    +0.000 A 
ATOM     21  C   UNL     1      -0.450  11.110  22.492  0.00  0.00    +0.000 A 
ATOM     22  C   UNL     1      -0.418   9.850  23.075  0.00  0.00    +0.000 A 
ATOM     23  C   UNL     1       0.197   8.791  22.405  0.00  0.00    +0.000 A 
BRANCH  21  24
ATOM     24  O   UNL     1      -1.030  12.119  23.200  0.00  0.00    +0.000 OA
ATOM     25  H   UNL     1      -1.477  11.741  23.974  0.00  0.00    +0.000 HD
ENDBRANCH  21  24
ENDBRANCH   4  18
TORSDOF 2
ENDMDL
MODEL 2
REMARK VINA RESULT:      -8.8      0.052      1.010
REMARK  Name = 
REMARK  2 active torsions:
REMARK  status: ('A' for Active; 'I' for Inactive)
REMARK    1  A    between atoms: C_4  and  C_5
REMARK    2  A    between atoms: C_8  and  O_9
REMARK                            x       y       z     vdW  Elec       q    Type
REMARK                         _______ _______ _______ _____ _____    ______ ____
ROOT
ATOM      1  O   UNL     1       2.174   4.561  21.238  0.00  0.00    +0.000 OA
ATOM      2  C   UNL     1       2.145   5.592  20.578  0.00  0.00    +0.000 C 
ATOM      3  N   UNL     1       1.438   6.678  20.995  0.00  0.00    +0.000 N 
ATOM      4  C   UNL     1       1.502   7.916  20.413  0.00  0.00    +0.000 C 
ATOM      5  N   UNL     1       2.109   8.140  19.307  0.00  0.00    +0.000 NA
ATOM      6  C   UNL     1       2.626   7.012  18.522  0.00  0.00    +0.000 C 
ATOM      7  O   UNL     1       3.774   7.370  17.711  0.00  0.00    +0.000 OA
ATOM      8  C   UNL     1       4.361   6.309  17.068  0.00  0.00    +0.000 A 
ATOM      9  C   UNL     1       5.023   6.574  15.870  0.00  0.00    +0.000 A 
ATOM     10  C   UNL     1       5.635   5.528  15.179  0.00  0.00    +0.000 A 
ATOM     11  C   UNL     1       5.602   4.241  15.708  0.00  0.00    +0.000 A 
ATOM     12  F   UNL     1       6.190   3.240  15.040  0.00  0.00    +0.000 F 
ATOM     13  C   UNL     1       4.972   3.974  16.920  0.00  0.00    +0.000 A 
ATOM     14  C   UNL     1       4.342   5.012  17.607  0.00  0.00    +0.000 A 
ATOM     15  C   UNL     1       3.683   4.792  18.886  0.00  0.00    +0.000 C 
ATOM     16  C   UNL     1       2.870   5.769  19.316  0.00  0.00    +0.000 C 
ATOM     17  H   UNL     1       1.025   6.555  21.908  0.00  0.00    +0.000 HD
ENDROOT
BRANCH   4  18
ATOM     18  C   UNL     1       0.832   9.025  21.148  0.00  0.00    +0.000 A 
ATOM     19  C   UNL     1       0.294   8.776  22.417  0.00  0.00    +0.000 A 
ATOM     20  C   UNL     1      -0.360   9.794  23.118  0.00  0.00    +0.000 A 
ATOM     21  C   UNL     1      -0.462  11.059  22.549  0.00  0.00    +0.000 A 
ATOM     22  C   UNL     1       0.105  11.332  21.311  0.00  0.00    +0.000 A 
ATOM     23  C   UNL     1       0.756  10.318  20.608  0.00  0.00    +0.000 A 
BRANCH  21  24
ATOM     24  O   UNL     1      -1.118  12.072  23.181  0.00  0.00    +0.000 OA
ATOM     25  H   UNL     1      -0.689  12.913  22.954  0.00  0.00    +0.000 HD
ENDBRANCH  21  24
ENDBRANCH   4  18
TORSDOF 2
ENDMDL
MODEL 3
REMARK VINA RESULT:      -8.3      1.927      3.343
REMARK  Name = 
REMARK  2 active torsions:
REMARK  status: ('A' for Active; 'I' for Inactive)
REMARK    1  A    between atoms: C_4  and  C_5
REMARK    2  A    between atoms: C_8  and  O_9
REMARK                            x       y       z     vdW  Elec       q    Type
REMARK                         _______ _______ _______ _____ _____    ______ ____
ROOT
ATOM      1  O   UNL     1       2.482   8.588  17.312  0.00  0.00    +0.000 OA
ATOM      2  C   UNL     1       2.137   8.235  18.433  0.00  0.00    +0.000 C 
ATOM      3  N   UNL     1       1.651   9.128  19.337  0.00  0.00    +0.000 N 
ATOM      4  C   UNL     1       1.080   8.788  20.534  0.00  0.00    +0.000 C 
ATOM      5  N   UNL     1       1.095   7.596  21.005  0.00  0.00    +0.000 NA
ATOM      6  C   UNL     1       1.894   6.562  20.335  0.00  0.00    +0.000 C 
ATOM      7  O   UNL     1       1.362   5.227  20.527  0.00  0.00    +0.000 OA
ATOM      8  C   UNL     1       2.009   4.255  19.806  0.00  0.00    +0.000 A 
ATOM      9  C   UNL     1       2.008   2.963  20.331  0.00  0.00    +0.000 A 
ATOM     10  C   UNL     1       2.653   1.940  19.635  0.00  0.00    +0.000 A 
ATOM     11  C   UNL     1       3.263   2.216  18.414  0.00  0.00    +0.000 A 
ATOM     12  F   UNL     1       3.882   1.231  17.752  0.00  0.00    +0.000 F 
ATOM     13  C   UNL     1       3.240   3.496  17.868  0.00  0.00    +0.000 A 
ATOM     14  C   UNL     1       2.612   4.527  18.568  0.00  0.00    +0.000 A 
ATOM     15  C   UNL     1       2.544   5.880  18.035  0.00  0.00    +0.000 C 
ATOM     16  C   UNL     1       2.186   6.845  18.896  0.00  0.00    +0.000 C 
ATOM     17  H   UNL     1       1.546  10.058  18.958  0.00  0.00    +0.000 HD
ENDROOT
BRANCH   4  18
ATOM     18  C   UNL     1       0.407   9.888  21.280  0.00  0.00    +0.000 A 
ATOM     19  C   UNL     1      -0.331   9.581  22.431  0.00  0.00    +0.000 A 
ATOM     20  C   UNL     1      -0.990  10.591  23.137  0.00  0.00    +0.000 A 
ATOM     21  C   UNL     1      -0.900  11.907  22.692  0.00  0.00    +0.000 A 
ATOM     22  C   UNL     1      -0.138  12.232  21.578  0.00  0.00    +0.000 A 
ATOM     23  C   UNL     1       0.521  11.225  20.870  0.00  0.00    +0.000 A 
BRANCH  21  24
ATOM     24  O   UNL     1      -1.553  12.919  23.328  0.00  0.00    +0.000 OA
ATOM     25  H   UNL     1      -1.207  13.766  23.004  0.00  0.00    +0.000 HD
ENDBRANCH  21  24
ENDBRANCH   4  18
TORSDOF 2
ENDMDL
MODEL 4
REMARK VINA RESULT:      -8.2      3.803      8.188
REMARK  Name = 
REMARK  2 active torsions:
REMARK  status: ('A' for Active; 'I' for Inactive)
REMARK    1  A    between atoms: C_4  and  C_5
REMARK    2  A    between atoms: C_8  and  O_9
REMARK                            x       y       z     vdW  Elec       q    Type
REMARK                         _______ _______ _______ _____ _____    ______ ____
ROOT
ATOM      1  O   UNL     1       2.115   9.483  17.470  0.00  0.00    +0.000 OA
ATOM      2  C   UNL     1       1.878   8.804  18.462  0.00  0.00    +0.000 C 
ATOM      3  N   UNL     1       2.339   7.528  18.572  0.00  0.00    +0.000 N 
ATOM      4  C   UNL     1       2.273   6.775  19.713  0.00  0.00    +0.000 C 
ATOM      5  N   UNL     1       1.616   7.134  20.753  0.00  0.00    +0.000 NA
ATOM      6  C   UNL     1       0.752   8.320  20.692  0.00  0.00    +0.000 C 
ATOM      7  O   UNL     1       0.597   8.970  21.978  0.00  0.00    +0.000 OA
ATOM      8  C   UNL     1      -0.096  10.155  21.930  0.00  0.00    +0.000 A 
ATOM      9  C   UNL     1      -0.798  10.532  23.074  0.00  0.00    +0.000 A 
ATOM     10  C   UNL     1      -1.517  11.727  23.073  0.00  0.00    +0.000 A 
ATOM     11  C   UNL     1      -1.502  12.539  21.943  0.00  0.00    +0.000 A 
ATOM     12  F   UNL     1      -2.196  13.684  21.947  0.00  0.00    +0.000 F 
ATOM     13  C   UNL     1      -0.777  12.186  20.809  0.00  0.00    +0.000 A 
ATOM     14  C   UNL     1      -0.070  10.983  20.797  0.00  0.00    +0.000 A 
ATOM     15  C   UNL     1       0.718  10.573  19.643  0.00  0.00    +0.000 C 
ATOM     16  C   UNL     1       1.115   9.291  19.615  0.00  0.00    +0.000 C 
ATOM     17  H   UNL     1       2.934   7.254  17.804  0.00  0.00    +0.000 HD
ENDROOT
BRANCH   4  18
ATOM     18  C   UNL     1       3.030   5.492  19.701  0.00  0.00    +0.000 A 
ATOM     19  C   UNL     1       2.427   4.339  20.221  0.00  0.00    +0.000 A 
ATOM     20  C   UNL     1       3.124   3.127  20.242  0.00  0.00    +0.000 A 
ATOM     21  C   UNL     1       4.418   3.073  19.733  0.00  0.00    +0.000 A 
ATOM     22  C   UNL     1       5.012   4.198  19.176  0.00  0.00    +0.000 A 
ATOM     23  C   UNL     1       4.320   5.410  19.155  0.00  0.00    +0.000 A 
BRANCH  21  24
ATOM     24  O   UNL     1       5.147   1.923  19.763  0.00  0.00    +0.000 OA
ATOM     25  H   UNL     1       6.082   2.142  19.616  0.00  0.00    +0.000 HD
ENDBRANCH  21  24
ENDBRANCH   4  18
TORSDOF 2
ENDMDL
MODEL 5
REMARK VINA RESULT:      -8.2      3.803      8.131
REMARK  Name = 
REMARK  2 active torsions:
REMARK  status: ('A' for Active; 'I' for Inactive)
REMARK    1  A    between atoms: C_4  and  C_5
REMARK    2  A    between atoms: C_8  and  O_9
REMARK                            x       y       z     vdW  Elec       q    Type
REMARK                         _______ _______ _______ _____ _____    ______ ____
ROOT
ATOM      1  O   UNL     1       2.131   9.420  17.463  0.00  0.00    +0.000 OA
ATOM      2  C   UNL     1       1.888   8.756  18.464  0.00  0.00    +0.000 C 
ATOM      3  N   UNL     1       2.340   7.479  18.591  0.00  0.00    +0.000 N 
ATOM      4  C   UNL     1       2.268   6.741  19.742  0.00  0.00    +0.000 C 
ATOM      5  N   UNL     1       1.612   7.119  20.777  0.00  0.00    +0.000 NA
ATOM      6  C   UNL     1       0.757   8.309  20.699  0.00  0.00    +0.000 C 
ATOM      7  O   UNL     1       0.606   8.978  21.976  0.00  0.00    +0.000 OA
ATOM      8  C   UNL     1      -0.079  10.167  21.911  0.00  0.00    +0.000 A 
ATOM      9  C   UNL     1      -0.780  10.564  23.050  0.00  0.00    +0.000 A 
ATOM     10  C   UNL     1      -1.491  11.764  23.032  0.00  0.00    +0.000 A 
ATOM     11  C   UNL     1      -1.469  12.561  21.891  0.00  0.00    +0.000 A 
ATOM     12  F   UNL     1      -2.155  13.711  21.880  0.00  0.00    +0.000 F 
ATOM     13  C   UNL     1      -0.746  12.187  20.763  0.00  0.00    +0.000 A 
ATOM     14  C   UNL     1      -0.047  10.980  20.767  0.00  0.00    +0.000 A 
ATOM     15  C   UNL     1       0.740  10.549  19.620  0.00  0.00    +0.000 C 
ATOM     16  C   UNL     1       1.127   9.264  19.609  0.00  0.00    +0.000 C 
ATOM     17  H   UNL     1       2.934   7.191  17.827  0.00  0.00    +0.000 HD
ENDROOT
BRANCH   4  18
ATOM     18  C   UNL     1       3.016   5.453  19.748  0.00  0.00    +0.000 A 
ATOM     19  C   UNL     1       4.305   5.411  19.200  0.00  0.00    +0.000 A 
ATOM     20  C   UNL     1       5.021   4.210  19.173  0.00  0.00    +0.000 A 
ATOM     21  C   UNL     1       4.446   3.059  19.704  0.00  0.00    +0.000 A 
ATOM     22  C   UNL     1       3.187   3.096  20.289  0.00  0.00    +0.000 A 
ATOM     23  C   UNL     1       2.469   4.293  20.316  0.00  0.00    +0.000 A 
BRANCH  21  24
ATOM     24  O   UNL     1       5.092   1.861  19.669  0.00  0.00    +0.000 OA
ATOM     25  H   UNL     1       6.046   2.017  19.749  0.00  0.00    +0.000 HD
ENDBRANCH  21  24
ENDBRANCH   4  18
TORSDOF 2
ENDMDL
MODEL 6
REMARK VINA RESULT:      -8.2      1.875      3.146
REMARK  Name = 
REMARK  2 active torsions:
REMARK  status: ('A' for Active; 'I' for Inactive)
REMARK    1  A    between atoms: C_4  and  C_5
REMARK    2  A    between atoms: C_8  and  O_9
REMARK                            x       y       z     vdW  Elec       q    Type
REMARK                         _______ _______ _______ _____ _____    ______ ____
ROOT
ATOM      1  O   UNL     1       2.583   8.589  17.315  0.00  0.00    +0.000 OA
ATOM      2  C   UNL     1       2.207   8.212  18.419  0.00  0.00    +0.000 C 
ATOM      3  N   UNL     1       1.702   9.087  19.330  0.00  0.00    +0.000 N 
ATOM      4  C   UNL     1       1.097   8.723  20.503  0.00  0.00    +0.000 C 
ATOM      5  N   UNL     1       1.095   7.521  20.947  0.00  0.00    +0.000 NA
ATOM      6  C   UNL     1       1.906   6.498  20.276  0.00  0.00    +0.000 C 
ATOM      7  O   UNL     1       1.363   5.162  20.423  0.00  0.00    +0.000 OA
ATOM      8  C   UNL     1       2.025   4.203  19.698  0.00  0.00    +0.000 A 
ATOM      9  C   UNL     1       2.005   2.899  20.193  0.00  0.00    +0.000 A 
ATOM     10  C   UNL     1       2.663   1.890  19.491  0.00  0.00    +0.000 A 
ATOM     11  C   UNL     1       3.307   2.190  18.294  0.00  0.00    +0.000 A 
ATOM     12  F   UNL     1       3.939   1.216  17.626  0.00  0.00    +0.000 F 
ATOM     13  C   UNL     1       3.304   3.481  17.776  0.00  0.00    +0.000 A 
ATOM     14  C   UNL     1       2.663   4.500  18.483  0.00  0.00    +0.000 A 
ATOM     15  C   UNL     1       2.615   5.865  17.979  0.00  0.00    +0.000 C 
ATOM     16  C   UNL     1       2.238   6.812  18.851  0.00  0.00    +0.000 C 
ATOM     17  H   UNL     1       1.611  10.026  18.970  0.00  0.00    +0.000 HD
ENDROOT
BRANCH   4  18
ATOM     18  C   UNL     1       0.410   9.810  21.256  0.00  0.00    +0.000 A 
ATOM     19  C   UNL     1       0.476  11.123  20.771  0.00  0.00    +0.000 A 
ATOM     20  C   UNL     1      -0.141  12.165  21.470  0.00  0.00    +0.000 A 
ATOM     21  C   UNL     1      -0.831  11.885  22.646  0.00  0.00    +0.000 A 
ATOM     22  C   UNL     1      -0.942  10.582  23.114  0.00  0.00    +0.000 A 
ATOM     23  C   UNL     1      -0.325   9.540  22.420  0.00  0.00    +0.000 A 
BRANCH  21  24
ATOM     24  O   UNL     1      -1.420  12.872  23.377  0.00  0.00    +0.000 OA
ATOM     25  H   UNL     1      -2.361  12.916  23.142  0.00  0.00    +0.000 HD
ENDBRANCH  21  24
ENDBRANCH   4  18
TORSDOF 2
ENDMDL
MODEL 7
REMARK VINA RESULT:      -8.0      3.297      7.877
REMARK  Name = 
REMARK  2 active torsions:
REMARK  status: ('A' for Active; 'I' for Inactive)
REMARK    1  A    between atoms: C_4  and  C_5
REMARK    2  A    between atoms: C_8  and  O_9
REMARK                            x       y       z     vdW  Elec       q    Type
REMARK                         _______ _______ _______ _____ _____    ______ ____
ROOT
ATOM      1  O   UNL     1       2.035   4.681  21.228  0.00  0.00    +0.000 OA
ATOM      2  C   UNL     1       2.354   5.517  20.391  0.00  0.00    +0.000 C 
ATOM      3  N   UNL     1       3.202   5.210  19.372  0.00  0.00    +0.000 N 
ATOM      4  C   UNL     1       3.461   6.027  18.305  0.00  0.00    +0.000 C 
ATOM      5  N   UNL     1       3.061   7.243  18.239  0.00  0.00    +0.000 NA
ATOM      6  C   UNL     1       2.436   7.865  19.413  0.00  0.00    +0.000 C 
ATOM      7  O   UNL     1       1.499   8.913  19.062  0.00  0.00    +0.000 OA
ATOM      8  C   UNL     1       0.801   9.424  20.129  0.00  0.00    +0.000 A 
ATOM      9  C   UNL     1       0.367  10.746  20.035  0.00  0.00    +0.000 A 
ATOM     10  C   UNL     1      -0.345  11.310  21.094  0.00  0.00    +0.000 A 
ATOM     11  C   UNL     1      -0.638  10.539  22.215  0.00  0.00    +0.000 A 
ATOM     12  F   UNL     1      -1.320  11.086  23.229  0.00  0.00    +0.000 F 
ATOM     13  C   UNL     1      -0.237   9.209  22.302  0.00  0.00    +0.000 A 
ATOM     14  C   UNL     1       0.492   8.645  21.255  0.00  0.00    +0.000 A 
ATOM     15  C   UNL     1       0.922   7.254  21.287  0.00  0.00    +0.000 C 
ATOM     16  C   UNL     1       1.849   6.893  20.387  0.00  0.00    +0.000 C 
ATOM     17  H   UNL     1       3.460   4.234  19.352  0.00  0.00    +0.000 HD
ENDROOT
BRANCH   4  18
ATOM     18  C   UNL     1       4.237   5.423  17.185  0.00  0.00    +0.000 A 
ATOM     19  C   UNL     1       4.272   4.029  17.053  0.00  0.00    +0.000 A 
ATOM     20  C   UNL     1       5.010   3.436  16.025  0.00  0.00    +0.000 A 
ATOM     21  C   UNL     1       5.701   4.243  15.126  0.00  0.00    +0.000 A 
ATOM     22  C   UNL     1       5.641   5.627  15.219  0.00  0.00    +0.000 A 
ATOM     23  C   UNL     1       4.906   6.222  16.246  0.00  0.00    +0.000 A 
BRANCH  21  24
ATOM     24  O   UNL     1       6.460   3.709  14.129  0.00  0.00    +0.000 OA
ATOM     25  H   UNL     1       7.066   3.055  14.513  0.00  0.00    +0.000 HD
ENDBRANCH  21  24
ENDBRANCH   4  18
TORSDOF 2
ENDMDL
MODEL 8
REMARK VINA RESULT:      -8.0      3.295      7.816
REMARK  Name = 
REMARK  2 active torsions:
REMARK  status: ('A' for Active; 'I' for Inactive)
REMARK    1  A    between atoms: C_4  and  C_5
REMARK    2  A    between atoms: C_8  and  O_9
REMARK                            x       y       z     vdW  Elec       q    Type
REMARK                         _______ _______ _______ _____ _____    ______ ____
ROOT
ATOM      1  O   UNL     1       1.981   4.698  21.203  0.00  0.00    +0.000 OA
ATOM      2  C   UNL     1       2.329   5.524  20.367  0.00  0.00    +0.000 C 
ATOM      3  N   UNL     1       3.190   5.196  19.366  0.00  0.00    +0.000 N 
ATOM      4  C   UNL     1       3.482   6.002  18.298  0.00  0.00    +0.000 C 
ATOM      5  N   UNL     1       3.102   7.223  18.217  0.00  0.00    +0.000 NA
ATOM      6  C   UNL     1       2.465   7.864  19.375  0.00  0.00    +0.000 C 
ATOM      7  O   UNL     1       1.551   8.924  19.000  0.00  0.00    +0.000 OA
ATOM      8  C   UNL     1       0.842   9.452  20.050  0.00  0.00    +0.000 A 
ATOM      9  C   UNL     1       0.430  10.780  19.940  0.00  0.00    +0.000 A 
ATOM     10  C   UNL     1      -0.293  11.362  20.981  0.00  0.00    +0.000 A 
ATOM     11  C   UNL     1      -0.618  10.603  22.101  0.00  0.00    +0.000 A 
ATOM     12  F   UNL     1      -1.311  11.168  23.099  0.00  0.00    +0.000 F 
ATOM     13  C   UNL     1      -0.240   9.268  22.205  0.00  0.00    +0.000 A 
ATOM     14  C   UNL     1       0.500   8.685  21.175  0.00  0.00    +0.000 A 
ATOM     15  C   UNL     1       0.907   7.288  21.224  0.00  0.00    +0.000 C 
ATOM     16  C   UNL     1       1.845   6.907  20.344  0.00  0.00    +0.000 C 
ATOM     17  H   UNL     1       3.433   4.216  19.357  0.00  0.00    +0.000 HD
ENDROOT
BRANCH   4  18
ATOM     18  C   UNL     1       4.269   5.379  17.197  0.00  0.00    +0.000 A 
ATOM     19  C   UNL     1       4.926   6.205  16.276  0.00  0.00    +0.000 A 
ATOM     20  C   UNL     1       5.653   5.646  15.220  0.00  0.00    +0.000 A 
ATOM     21  C   UNL     1       5.726   4.262  15.098  0.00  0.00    +0.000 A 
ATOM     22  C   UNL     1       5.115   3.431  16.028  0.00  0.00    +0.000 A 
ATOM     23  C   UNL     1       4.388   3.985  17.082  0.00  0.00    +0.000 A 
BRANCH  21  24
ATOM     24  O   UNL     1       6.394   3.673  14.067  0.00  0.00    +0.000 OA
ATOM     25  H   UNL     1       5.878   2.914  13.753  0.00  0.00    +0.000 HD
ENDBRANCH  21  24
ENDBRANCH   4  18
TORSDOF 2
ENDMDL
MODEL 9
REMARK VINA RESULT:      -7.7      2.091      3.473
REMARK  Name = 
REMARK  2 active torsions:
REMARK  status: ('A' for Active; 'I' for Inactive)
REMARK    1  A    between atoms: C_4  and  C_5
REMARK    2  A    between atoms: C_8  and  O_9
REMARK                            x       y       z     vdW  Elec       q    Type
REMARK                         _______ _______ _______ _____ _____    ______ ____
ROOT
ATOM      1  O   UNL     1       2.199   9.172  17.345  0.00  0.00    +0.000 OA
ATOM      2  C   UNL     1       1.848   8.905  18.488  0.00  0.00    +0.000 C 
ATOM      3  N   UNL     1       1.228   9.830  19.271  0.00  0.00    +0.000 N 
ATOM      4  C   UNL     1       0.647   9.560  20.481  0.00  0.00    +0.000 C 
ATOM      5  N   UNL     1       0.774   8.436  21.083  0.00  0.00    +0.000 NA
ATOM      6  C   UNL     1       1.710   7.433  20.560  0.00  0.00    +0.000 C 
ATOM      7  O   UNL     1       1.321   6.075  20.885  0.00  0.00    +0.000 OA
ATOM      8  C   UNL     1       2.101   5.110  20.299  0.00  0.00    +0.000 A 
ATOM      9  C   UNL     1       2.221   3.892  20.966  0.00  0.00    +0.000 A 
ATOM     10  C   UNL     1       3.004   2.880  20.410  0.00  0.00    +0.000 A 
ATOM     11  C   UNL     1       3.631   3.089  19.185  0.00  0.00    +0.000 A 
ATOM     12  F   UNL     1       4.383   2.115  18.657  0.00  0.00    +0.000 F 
ATOM     13  C   UNL     1       3.491   4.291  18.497  0.00  0.00    +0.000 A 
ATOM     14  C   UNL     1       2.724   5.313  19.057  0.00  0.00    +0.000 A 
ATOM     15  C   UNL     1       2.529   6.584  18.372  0.00  0.00    +0.000 C 
ATOM     16  C   UNL     1       2.031   7.589  19.107  0.00  0.00    +0.000 C 
ATOM     17  H   UNL     1       1.038  10.695  18.786  0.00  0.00    +0.000 HD
ENDROOT
BRANCH   4  18
ATOM     18  C   UNL     1      -0.174  10.650  21.077  0.00  0.00    +0.000 A 
ATOM     19  C   UNL     1      -0.596  11.710  20.262  0.00  0.00    +0.000 A 
ATOM     20  C   UNL     1      -1.349  12.757  20.801  0.00  0.00    +0.000 A 
ATOM     21  C   UNL     1      -1.684  12.734  22.151  0.00  0.00    +0.000 A 
ATOM     22  C   UNL     1      -1.309  11.669  22.961  0.00  0.00    +0.000 A 
ATOM     23  C   UNL     1      -0.556  10.623  22.426  0.00  0.00    +0.000 A 
BRANCH  21  24
ATOM     24  O   UNL     1      -2.387  13.748  22.727  0.00  0.00    +0.000 OA
ATOM     25  H   UNL     1      -2.261  13.710  23.689  0.00  0.00    +0.000 HD
ENDBRANCH  21  24
ENDBRANCH   4  18
TORSDOF 2
ENDMDL
