MODEL 1
REMARK VINA RESULT:      -8.7      0.000      0.000
REMARK  Name = 
REMARK  9 active torsions:
REMARK  status: ('A' for Active; 'I' for Inactive)
REMARK    1  A    between atoms: C_1  and  C_2
REMARK    2  A    between atoms: C_5  and  N_6
REMARK    3  A    between atoms: C_7  and  C_9
REMARK    4  A    between atoms: C_9  and  N_10
REMARK    5  A    between atoms: N_10  and  C_11
REMARK    6  A    between atoms: C_12  and  C_14
REMARK    7  A    between atoms: C_14  and  O_15
REMARK    8  A    between atoms: O_15  and  C_16
REMARK    9  A    between atoms: C_25  and  C_26
REMARK                            x       y       z     vdW  Elec       q    Type
REMARK                         _______ _______ _______ _____ _____    ______ ____
ROOT
ATOM      1  N   UNL     1       6.939   6.163  17.133  0.00  0.00    +0.000 N 
ATOM      2  C   UNL     1       7.470   5.551  18.341  0.00  0.00    +0.000 C 
ATOM      3  C   UNL     1       6.136   5.490  16.220  0.00  0.00    +0.000 C 
ATOM      4  O   UNL     1       5.799   6.012  15.154  0.00  0.00    +0.000 OA
ENDROOT
BRANCH   1   5
ATOM      5  C   UNL     1       7.448   7.490  16.765  0.00  0.00    +0.000 C 
BRANCH   5   7
ATOM      6  N   UNL     1       8.223   9.686  17.586  0.00  0.00    +0.000 N 
ATOM      7  C   UNL     1       8.110   8.333  17.865  0.00  0.00    +0.000 C 
ATOM      8  O   UNL     1       8.559   7.766  18.860  0.00  0.00    +0.000 OA
ATOM      9  H   UNL     1       7.750  10.014  16.753  0.00  0.00    +0.000 HD
BRANCH   6  14
ATOM     10  C   UNL     1      10.597  13.775  20.848  0.00  0.00    +0.000 C 
ATOM     11  C   UNL     1      10.005  12.693  19.996  0.00  0.00    +0.000 A 
ATOM     12  C   UNL     1       9.911  11.384  20.471  0.00  0.00    +0.000 A 
ATOM     13  C   UNL     1       9.336  10.380  19.685  0.00  0.00    +0.000 A 
ATOM     14  C   UNL     1       8.845  10.658  18.406  0.00  0.00    +0.000 A 
ATOM     15  C   UNL     1       8.974  11.962  17.914  0.00  0.00    +0.000 A 
ATOM     16  C   UNL     1       9.537  12.973  18.707  0.00  0.00    +0.000 A 
ENDBRANCH   6  14
ENDBRANCH   5   7
ENDBRANCH   1   5
BRANCH   3  17
ATOM     17  C   UNL     1       5.571   4.112  16.598  0.00  0.00    +0.000 C 
BRANCH  17  18
ATOM     18  O   UNL     1       4.160   4.015  16.672  0.00  0.00    +0.000 OA
BRANCH  18  19
ATOM     19  C   UNL     1       3.553   3.721  17.888  0.00  0.00    +0.000 A 
ATOM     20  C   UNL     1       3.458   2.452  18.507  0.00  0.00    +0.000 A 
ATOM     21 CL   UNL     1       4.123   0.958  17.941  0.00  0.00    +0.000 Cl
ATOM     22  C   UNL     1       2.799   2.310  19.727  0.00  0.00    +0.000 A 
ATOM     23  C   UNL     1       2.255   3.410  20.366  0.00  0.00    +0.000 A 
ATOM     24 CL   UNL     1       1.450   3.104  21.871  0.00  0.00    +0.000 Cl
ATOM     25  C   UNL     1       2.367   4.695  19.806  0.00  0.00    +0.000 A 
ATOM     26  C   UNL     1       1.855   5.833  20.458  0.00  0.00    +0.000 A 
ATOM     27  C   UNL     1       1.968   7.088  19.890  0.00  0.00    +0.000 A 
ATOM     28  C   UNL     1       2.595   7.191  18.666  0.00  0.00    +0.000 A 
ATOM     29  C   UNL     1       2.706   8.533  18.001  0.00  0.00    +0.000 C 
ATOM     30  N   UNL     1       3.091   6.109  18.006  0.00  0.00    +0.000 NA
ATOM     31  C   UNL     1       3.010   4.865  18.547  0.00  0.00    +0.000 A 
ENDBRANCH  18  19
ENDBRANCH  17  18
ENDBRANCH   3  17
TORSDOF 6
ENDMDL
MODEL 2
REMARK VINA RESULT:      -8.6      5.415      8.974
REMARK  Name = 
REMARK  9 active torsions:
REMARK  status: ('A' for Active; 'I' for Inactive)
REMARK    1  A    between atoms: C_1  and  C_2
REMARK    2  A    between atoms: C_5  and  N_6
REMARK    3  A    between atoms: C_7  and  C_9
REMARK    4  A    between atoms: C_9  and  N_10
REMARK    5  A    between atoms: N_10  and  C_11
REMARK    6  A    between atoms: C_12  and  C_14
REMARK    7  A    between atoms: C_14  and  O_15
REMARK    8  A    between atoms: O_15  and  C_16
REMARK    9  A    between atoms: C_25  and  C_26
REMARK                            x       y       z     vdW  Elec       q    Type
REMARK                         _______ _______ _______ _____ _____    ______ ____
ROOT
ATOM      1  N   UNL     1       1.478  11.140  18.677  0.00  0.00    +0.000 N 
ATOM      2  C   UNL     1       2.612  11.674  17.938  0.00  0.00    +0.000 C 
ATOM      3  C   UNL     1       1.030   9.831  18.555  0.00  0.00    +0.000 C 
ATOM      4  O   UNL     1      -0.002   9.451  19.114  0.00  0.00    +0.000 OA
ENDROOT
BRANCH   1   5
ATOM      5  C   UNL     1       0.649  12.093  19.428  0.00  0.00    +0.000 C 
BRANCH   5   7
ATOM      6  N   UNL     1      -1.804  11.816  19.373  0.00  0.00    +0.000 N 
ATOM      7  C   UNL     1      -0.713  12.479  18.832  0.00  0.00    +0.000 C 
ATOM      8  O   UNL     1      -0.749  13.268  17.889  0.00  0.00    +0.000 OA
ATOM      9  H   UNL     1      -1.623  11.243  20.187  0.00  0.00    +0.000 HD
BRANCH   6  14
ATOM     10  C   UNL     1      -7.274  12.558  17.781  0.00  0.00    +0.000 C 
ATOM     11  C   UNL     1      -5.850  12.334  18.195  0.00  0.00    +0.000 A 
ATOM     12  C   UNL     1      -4.947  11.713  17.331  0.00  0.00    +0.000 A 
ATOM     13  C   UNL     1      -3.613  11.526  17.709  0.00  0.00    +0.000 A 
ATOM     14  C   UNL     1      -3.151  11.950  18.957  0.00  0.00    +0.000 A 
ATOM     15  C   UNL     1      -4.065  12.537  19.839  0.00  0.00    +0.000 A 
ATOM     16  C   UNL     1      -5.400  12.739  19.457  0.00  0.00    +0.000 A 
ENDBRANCH   6  14
ENDBRANCH   5   7
ENDBRANCH   1   5
BRANCH   3  17
ATOM     17  C   UNL     1       1.896   8.814  17.796  0.00  0.00    +0.000 C 
BRANCH  17  18
ATOM     18  O   UNL     1       2.932   8.199  18.541  0.00  0.00    +0.000 OA
BRANCH  18  19
ATOM     19  C   UNL     1       2.748   6.918  19.049  0.00  0.00    +0.000 A 
ATOM     20  C   UNL     1       1.989   6.554  20.186  0.00  0.00    +0.000 A 
ATOM     21 CL   UNL     1       1.049   7.599  21.197  0.00  0.00    +0.000 Cl
ATOM     22  C   UNL     1       1.911   5.221  20.586  0.00  0.00    +0.000 A 
ATOM     23  C   UNL     1       2.549   4.230  19.860  0.00  0.00    +0.000 A 
ATOM     24 CL   UNL     1       2.389   2.613  20.464  0.00  0.00    +0.000 Cl
ATOM     25  C   UNL     1       3.277   4.545  18.699  0.00  0.00    +0.000 A 
ATOM     26  C   UNL     1       3.900   3.548  17.925  0.00  0.00    +0.000 A 
ATOM     27  C   UNL     1       4.617   3.875  16.789  0.00  0.00    +0.000 A 
ATOM     28  C   UNL     1       4.704   5.207  16.439  0.00  0.00    +0.000 A 
ATOM     29  C   UNL     1       5.503   5.604  15.231  0.00  0.00    +0.000 C 
ATOM     30  N   UNL     1       4.121   6.194  17.173  0.00  0.00    +0.000 NA
ATOM     31  C   UNL     1       3.396   5.901  18.284  0.00  0.00    +0.000 A 
ENDBRANCH  18  19
ENDBRANCH  17  18
ENDBRANCH   3  17
TORSDOF 6
ENDMDL
MODEL 3
REMARK VINA RESULT:      -8.4      7.133     10.590
REMARK  Name = 
REMARK  9 active torsions:
REMARK  status: ('A' for Active; 'I' for Inactive)
REMARK    1  A    between atoms: C_1  and  C_2
REMARK    2  A    between atoms: C_5  and  N_6
REMARK    3  A    between atoms: C_7  and  C_9
REMARK    4  A    between atoms: C_9  and  N_10
REMARK    5  A    between atoms: N_10  and  C_11
REMARK    6  A    between atoms: C_12  and  C_14
REMARK    7  A    between atoms: C_14  and  O_15
REMARK    8  A    between atoms: O_15  and  C_16
REMARK    9  A    between atoms: C_25  and  C_26
REMARK                            x       y       z     vdW  Elec       q    Type
REMARK                         _______ _______ _______ _____ _____    ______ ____
ROOT
ATOM      1  N   UNL     1       0.018  10.758  22.363  0.00  0.00    +0.000 N 
ATOM      2  C   UNL     1      -1.131  10.230  23.083  0.00  0.00    +0.000 C 
ATOM      3  C   UNL     1       0.013  11.977  21.698  0.00  0.00    +0.000 C 
ATOM      4  O   UNL     1       0.970  12.337  21.007  0.00  0.00    +0.000 OA
ENDROOT
BRANCH   1   5
ATOM      5  C   UNL     1       1.163   9.860  22.160  0.00  0.00    +0.000 C 
BRANCH   5   7
ATOM      6  N   UNL     1       1.914   7.739  21.145  0.00  0.00    +0.000 N 
ATOM      7  C   UNL     1       1.076   8.836  21.019  0.00  0.00    +0.000 C 
ATOM      8  O   UNL     1       0.352   9.079  20.055  0.00  0.00    +0.000 OA
ATOM      9  H   UNL     1       2.404   7.647  22.026  0.00  0.00    +0.000 HD
BRANCH   6  14
ATOM     10  C   UNL     1       2.322   3.419  17.380  0.00  0.00    +0.000 C 
ATOM     11  C   UNL     1       2.246   4.548  18.364  0.00  0.00    +0.000 A 
ATOM     12  C   UNL     1       2.744   5.810  18.039  0.00  0.00    +0.000 A 
ATOM     13  C   UNL     1       2.651   6.869  18.948  0.00  0.00    +0.000 A 
ATOM     14  C   UNL     1       2.064   6.692  20.203  0.00  0.00    +0.000 A 
ATOM     15  C   UNL     1       1.600   5.417  20.545  0.00  0.00    +0.000 A 
ATOM     16  C   UNL     1       1.679   4.357  19.629  0.00  0.00    +0.000 A 
ENDBRANCH   6  14
ENDBRANCH   5   7
ENDBRANCH   1   5
BRANCH   3  17
ATOM     17  C   UNL     1      -1.163  12.942  21.918  0.00  0.00    +0.000 C 
BRANCH  17  18
ATOM     18  O   UNL     1      -1.763  13.470  20.749  0.00  0.00    +0.000 OA
BRANCH  18  19
ATOM     19  C   UNL     1      -3.127  13.297  20.537  0.00  0.00    +0.000 A 
ATOM     20  C   UNL     1      -4.182  13.993  21.172  0.00  0.00    +0.000 A 
ATOM     21 CL   UNL     1      -4.047  15.276  22.326  0.00  0.00    +0.000 Cl
ATOM     22  C   UNL     1      -5.509  13.695  20.865  0.00  0.00    +0.000 A 
ATOM     23  C   UNL     1      -5.814  12.736  19.914  0.00  0.00    +0.000 A 
ATOM     24 CL   UNL     1      -7.500  12.445  19.630  0.00  0.00    +0.000 Cl
ATOM     25  C   UNL     1      -4.794  12.054  19.229  0.00  0.00    +0.000 A 
ATOM     26  C   UNL     1      -5.082  11.104  18.231  0.00  0.00    +0.000 A 
ATOM     27  C   UNL     1      -4.067  10.437  17.571  0.00  0.00    +0.000 A 
ATOM     28  C   UNL     1      -2.764  10.729  17.921  0.00  0.00    +0.000 A 
ATOM     29  C   UNL     1      -1.636  10.001  17.251  0.00  0.00    +0.000 C 
ATOM     30  N   UNL     1      -2.455  11.635  18.889  0.00  0.00    +0.000 NA
ATOM     31  C   UNL     1      -3.431  12.318  19.542  0.00  0.00    +0.000 A 
ENDBRANCH  18  19
ENDBRANCH  17  18
ENDBRANCH   3  17
TORSDOF 6
ENDMDL
MODEL 4
REMARK VINA RESULT:      -8.3      7.246     10.749
REMARK  Name = 
REMARK  9 active torsions:
REMARK  status: ('A' for Active; 'I' for Inactive)
REMARK    1  A    between atoms: C_1  and  C_2
REMARK    2  A    between atoms: C_5  and  N_6
REMARK    3  A    between atoms: C_7  and  C_9
REMARK    4  A    between atoms: C_9  and  N_10
REMARK    5  A    between atoms: N_10  and  C_11
REMARK    6  A    between atoms: C_12  and  C_14
REMARK    7  A    between atoms: C_14  and  O_15
REMARK    8  A    between atoms: O_15  and  C_16
REMARK    9  A    between atoms: C_25  and  C_26
REMARK                            x       y       z     vdW  Elec       q    Type
REMARK                         _______ _______ _______ _____ _____    ______ ____
ROOT
ATOM      1  N   UNL     1       0.212  10.892  21.588  0.00  0.00    +0.000 N 
ATOM      2  C   UNL     1       0.524  11.750  20.456  0.00  0.00    +0.000 C 
ATOM      3  C   UNL     1      -0.800  11.162  22.501  0.00  0.00    +0.000 C 
ATOM      4  O   UNL     1      -0.959  10.467  23.508  0.00  0.00    +0.000 OA
ENDROOT
BRANCH   1   5
ATOM      5  C   UNL     1       1.149   9.801  21.890  0.00  0.00    +0.000 C 
BRANCH   5   7
ATOM      6  N   UNL     1       1.955   7.748  20.781  0.00  0.00    +0.000 N 
ATOM      7  C   UNL     1       0.853   8.419  21.291  0.00  0.00    +0.000 C 
ATOM      8  O   UNL     1      -0.313   8.033  21.227  0.00  0.00    +0.000 OA
ATOM      9  H   UNL     1       2.859   8.165  20.964  0.00  0.00    +0.000 HD
BRANCH   6  14
ATOM     10  C   UNL     1       2.063   2.719  18.006  0.00  0.00    +0.000 C 
ATOM     11  C   UNL     1       2.004   4.028  18.735  0.00  0.00    +0.000 A 
ATOM     12  C   UNL     1       1.678   4.074  20.091  0.00  0.00    +0.000 A 
ATOM     13  C   UNL     1       1.648   5.292  20.777  0.00  0.00    +0.000 A 
ATOM     14  C   UNL     1       1.938   6.494  20.125  0.00  0.00    +0.000 A 
ATOM     15  C   UNL     1       2.227   6.453  18.756  0.00  0.00    +0.000 A 
ATOM     16  C   UNL     1       2.273   5.230  18.070  0.00  0.00    +0.000 A 
ENDBRANCH   6  14
ENDBRANCH   5   7
ENDBRANCH   1   5
BRANCH   3  17
ATOM     17  C   UNL     1      -1.806  12.281  22.190  0.00  0.00    +0.000 C 
BRANCH  17  18
ATOM     18  O   UNL     1      -2.108  12.486  20.821  0.00  0.00    +0.000 OA
BRANCH  18  19
ATOM     19  C   UNL     1      -3.423  12.716  20.434  0.00  0.00    +0.000 A 
ATOM     20  C   UNL     1      -4.387  13.497  21.115  0.00  0.00    +0.000 A 
ATOM     21 CL   UNL     1      -4.159  14.410  22.568  0.00  0.00    +0.000 Cl
ATOM     22  C   UNL     1      -5.680  13.622  20.609  0.00  0.00    +0.000 A 
ATOM     23  C   UNL     1      -6.032  13.012  19.418  0.00  0.00    +0.000 A 
ATOM     24 CL   UNL     1      -7.671  13.230  18.898  0.00  0.00    +0.000 Cl
ATOM     25  C   UNL     1      -5.091  12.265  18.688  0.00  0.00    +0.000 A 
ATOM     26  C   UNL     1      -5.417  11.669  17.455  0.00  0.00    +0.000 A 
ATOM     27  C   UNL     1      -4.482  10.932  16.752  0.00  0.00    +0.000 A 
ATOM     28  C   UNL     1      -3.221  10.798  17.297  0.00  0.00    +0.000 A 
ATOM     29  C   UNL     1      -2.188   9.976  16.580  0.00  0.00    +0.000 C 
ATOM     30  N   UNL     1      -2.879  11.353  18.492  0.00  0.00    +0.000 NA
ATOM     31  C   UNL     1      -3.772  12.097  19.195  0.00  0.00    +0.000 A 
ENDBRANCH  18  19
ENDBRANCH  17  18
ENDBRANCH   3  17
TORSDOF 6
ENDMDL
MODEL 5
REMARK VINA RESULT:      -8.3      5.263      9.144
REMARK  Name = 
REMARK  9 active torsions:
REMARK  status: ('A' for Active; 'I' for Inactive)
REMARK    1  A    between atoms: C_1  and  C_2
REMARK    2  A    between atoms: C_5  and  N_6
REMARK    3  A    between atoms: C_7  and  C_9
REMARK    4  A    between atoms: C_9  and  N_10
REMARK    5  A    between atoms: N_10  and  C_11
REMARK    6  A    between atoms: C_12  and  C_14
REMARK    7  A    between atoms: C_14  and  O_15
REMARK    8  A    between atoms: O_15  and  C_16
REMARK    9  A    between atoms: C_25  and  C_26
REMARK                            x       y       z     vdW  Elec       q    Type
REMARK                         _______ _______ _______ _____ _____    ______ ____
ROOT
ATOM      1  N   UNL     1       0.299  10.655  21.058  0.00  0.00    +0.000 N 
ATOM      2  C   UNL     1       1.539  11.331  20.707  0.00  0.00    +0.000 C 
ATOM      3  C   UNL     1       0.179   9.275  21.161  0.00  0.00    +0.000 C 
ATOM      4  O   UNL     1      -0.915   8.737  21.350  0.00  0.00    +0.000 OA
ENDROOT
BRANCH   1   5
ATOM      5  C   UNL     1      -0.926  11.465  21.100  0.00  0.00    +0.000 C 
BRANCH   5   7
ATOM      6  N   UNL     1      -1.888  10.564  19.012  0.00  0.00    +0.000 N 
ATOM      7  C   UNL     1      -1.675  11.699  19.780  0.00  0.00    +0.000 C 
ATOM      8  O   UNL     1      -1.961  12.850  19.453  0.00  0.00    +0.000 OA
ATOM      9  H   UNL     1      -1.651   9.679  19.443  0.00  0.00    +0.000 HD
BRANCH   6  14
ATOM     10  C   UNL     1      -4.288  10.193  13.806  0.00  0.00    +0.000 C 
ATOM     11  C   UNL     1      -3.660  10.321  15.162  0.00  0.00    +0.000 A 
ATOM     12  C   UNL     1      -4.315  11.002  16.188  0.00  0.00    +0.000 A 
ATOM     13  C   UNL     1      -3.740  11.099  17.459  0.00  0.00    +0.000 A 
ATOM     14  C   UNL     1      -2.496  10.524  17.735  0.00  0.00    +0.000 A 
ATOM     15  C   UNL     1      -1.821   9.874  16.695  0.00  0.00    +0.000 A 
ATOM     16  C   UNL     1      -2.404   9.763  15.423  0.00  0.00    +0.000 A 
ENDBRANCH   6  14
ENDBRANCH   5   7
ENDBRANCH   1   5
BRANCH   3  17
ATOM     17  C   UNL     1       1.451   8.412  21.146  0.00  0.00    +0.000 C 
BRANCH  17  18
ATOM     18  O   UNL     1       1.353   7.169  20.475  0.00  0.00    +0.000 OA
BRANCH  18  19
ATOM     19  C   UNL     1       2.257   6.858  19.466  0.00  0.00    +0.000 A 
ATOM     20  C   UNL     1       2.686   7.705  18.416  0.00  0.00    +0.000 A 
ATOM     21 CL   UNL     1       2.243   9.358  18.156  0.00  0.00    +0.000 Cl
ATOM     22  C   UNL     1       3.590   7.243  17.462  0.00  0.00    +0.000 A 
ATOM     23  C   UNL     1       4.107   5.962  17.542  0.00  0.00    +0.000 A 
ATOM     24 CL   UNL     1       5.213   5.499  16.290  0.00  0.00    +0.000 Cl
ATOM     25  C   UNL     1       3.740   5.104  18.595  0.00  0.00    +0.000 A 
ATOM     26  C   UNL     1       4.284   3.811  18.717  0.00  0.00    +0.000 A 
ATOM     27  C   UNL     1       3.908   2.978  19.754  0.00  0.00    +0.000 A 
ATOM     28  C   UNL     1       2.984   3.452  20.664  0.00  0.00    +0.000 A 
ATOM     29  C   UNL     1       2.526   2.564  21.784  0.00  0.00    +0.000 C 
ATOM     30  N   UNL     1       2.434   4.693  20.566  0.00  0.00    +0.000 NA
ATOM     31  C   UNL     1       2.797   5.540  19.567  0.00  0.00    +0.000 A 
ENDBRANCH  18  19
ENDBRANCH  17  18
ENDBRANCH   3  17
TORSDOF 6
ENDMDL
MODEL 6
REMARK VINA RESULT:      -8.3      5.677      7.922
REMARK  Name = 
REMARK  9 active torsions:
REMARK  status: ('A' for Active; 'I' for Inactive)
REMARK    1  A    between atoms: C_1  and  C_2
REMARK    2  A    between atoms: C_5  and  N_6
REMARK    3  A    between atoms: C_7  and  C_9
REMARK    4  A    between atoms: C_9  and  N_10
REMARK    5  A    between atoms: N_10  and  C_11
REMARK    6  A    between atoms: C_12  and  C_14
REMARK    7  A    between atoms: C_14  and  O_15
REMARK    8  A    between atoms: O_15  and  C_16
REMARK    9  A    between atoms: C_25  and  C_26
REMARK                            x       y       z     vdW  Elec       q    Type
REMARK                         _______ _______ _______ _____ _____    ______ ____
ROOT
ATOM      1  N   UNL     1       0.402  10.877  18.587  0.00  0.00    +0.000 N 
ATOM      2  C   UNL     1      -0.731  10.024  18.909  0.00  0.00    +0.000 C 
ATOM      3  C   UNL     1       1.637  10.392  18.178  0.00  0.00    +0.000 C 
ATOM      4  O   UNL     1       2.603  11.143  18.023  0.00  0.00    +0.000 OA
ENDROOT
BRANCH   1   5
ATOM      5  C   UNL     1       0.288  12.306  18.911  0.00  0.00    +0.000 C 
BRANCH   5   7
ATOM      6  N   UNL     1      -0.694  13.638  20.743  0.00  0.00    +0.000 N 
ATOM      7  C   UNL     1       0.269  12.703  20.394  0.00  0.00    +0.000 C 
ATOM      8  O   UNL     1       1.129  12.246  21.145  0.00  0.00    +0.000 OA
ATOM      9  H   UNL     1      -1.372  13.873  20.029  0.00  0.00    +0.000 HD
BRANCH   6  14
ATOM     10  C   UNL     1      -1.461  15.748  26.031  0.00  0.00    +0.000 C 
ATOM     11  C   UNL     1      -1.270  15.224  24.639  0.00  0.00    +0.000 A 
ATOM     12  C   UNL     1      -0.320  15.792  23.789  0.00  0.00    +0.000 A 
ATOM     13  C   UNL     1      -0.125  15.287  22.499  0.00  0.00    +0.000 A 
ATOM     14  C   UNL     1      -0.877  14.208  22.026  0.00  0.00    +0.000 A 
ATOM     15  C   UNL     1      -1.856  13.663  22.864  0.00  0.00    +0.000 A 
ATOM     16  C   UNL     1      -2.043  14.159  24.164  0.00  0.00    +0.000 A 
ENDBRANCH   6  14
ENDBRANCH   5   7
ENDBRANCH   1   5
BRANCH   3  17
ATOM     17  C   UNL     1       1.770   8.906  17.808  0.00  0.00    +0.000 C 
BRANCH  17  18
ATOM     18  O   UNL     1       2.936   8.250  18.271  0.00  0.00    +0.000 OA
BRANCH  18  19
ATOM     19  C   UNL     1       2.825   7.023  18.916  0.00  0.00    +0.000 A 
ATOM     20  C   UNL     1       2.107   6.747  20.104  0.00  0.00    +0.000 A 
ATOM     21 CL   UNL     1       1.135   7.848  21.021  0.00  0.00    +0.000 Cl
ATOM     22  C   UNL     1       2.102   5.462  20.643  0.00  0.00    +0.000 A 
ATOM     23  C   UNL     1       2.774   4.430  20.011  0.00  0.00    +0.000 A 
ATOM     24 CL   UNL     1       2.706   2.881  20.786  0.00  0.00    +0.000 Cl
ATOM     25  C   UNL     1       3.463   4.653  18.806  0.00  0.00    +0.000 A 
ATOM     26  C   UNL     1       4.120   3.610  18.127  0.00  0.00    +0.000 A 
ATOM     27  C   UNL     1       4.798   3.847  16.946  0.00  0.00    +0.000 A 
ATOM     28  C   UNL     1       4.813   5.137  16.455  0.00  0.00    +0.000 A 
ATOM     29  C   UNL     1       5.568   5.441  15.193  0.00  0.00    +0.000 C 
ATOM     30  N   UNL     1       4.196   6.169  17.095  0.00  0.00    +0.000 NA
ATOM     31  C   UNL     1       3.508   5.961  18.248  0.00  0.00    +0.000 A 
ENDBRANCH  18  19
ENDBRANCH  17  18
ENDBRANCH   3  17
TORSDOF 6
ENDMDL
MODEL 7
REMARK VINA RESULT:      -8.2      8.408     12.214
REMARK  Name = 
REMARK  9 active torsions:
REMARK  status: ('A' for Active; 'I' for Inactive)
REMARK    1  A    between atoms: C_1  and  C_2
REMARK    2  A    between atoms: C_5  and  N_6
REMARK    3  A    between atoms: C_7  and  C_9
REMARK    4  A    between atoms: C_9  and  N_10
REMARK    5  A    between atoms: N_10  and  C_11
REMARK    6  A    between atoms: C_12  and  C_14
REMARK    7  A    between atoms: C_14  and  O_15
REMARK    8  A    between atoms: O_15  and  C_16
REMARK    9  A    between atoms: C_25  and  C_26
REMARK                            x       y       z     vdW  Elec       q    Type
REMARK                         _______ _______ _______ _____ _____    ______ ____
ROOT
ATOM      1  N   UNL     1      -3.754  13.430  23.001  0.00  0.00    +0.000 N 
ATOM      2  C   UNL     1      -3.825  12.595  24.190  0.00  0.00    +0.000 C 
ATOM      3  C   UNL     1      -2.741  14.352  22.769  0.00  0.00    +0.000 C 
ATOM      4  O   UNL     1      -2.777  15.118  21.802  0.00  0.00    +0.000 OA
ENDROOT
BRANCH   1   5
ATOM      5  C   UNL     1      -4.920  13.439  22.108  0.00  0.00    +0.000 C 
BRANCH   5   7
ATOM      6  N   UNL     1      -3.900  12.717  19.979  0.00  0.00    +0.000 N 
ATOM      7  C   UNL     1      -4.907  12.487  20.904  0.00  0.00    +0.000 C 
ATOM      8  O   UNL     1      -5.806  11.655  20.792  0.00  0.00    +0.000 OA
ATOM      9  H   UNL     1      -3.197  13.397  20.241  0.00  0.00    +0.000 HD
BRANCH   6  14
ATOM     10  C   UNL     1      -3.032   9.725  15.152  0.00  0.00    +0.000 C 
ATOM     11  C   UNL     1      -3.260  10.532  16.396  0.00  0.00    +0.000 A 
ATOM     12  C   UNL     1      -4.451  11.234  16.580  0.00  0.00    +0.000 A 
ATOM     13  C   UNL     1      -4.673  11.967  17.750  0.00  0.00    +0.000 A 
ATOM     14  C   UNL     1      -3.710  12.020  18.762  0.00  0.00    +0.000 A 
ATOM     15  C   UNL     1      -2.499  11.347  18.561  0.00  0.00    +0.000 A 
ATOM     16  C   UNL     1      -2.281  10.600  17.393  0.00  0.00    +0.000 A 
ENDBRANCH   6  14
ENDBRANCH   5   7
ENDBRANCH   1   5
BRANCH   3  17
ATOM     17  C   UNL     1      -1.500  14.340  23.676  0.00  0.00    +0.000 C 
BRANCH  17  18
ATOM     18  O   UNL     1      -0.473  13.433  23.316  0.00  0.00    +0.000 OA
BRANCH  18  19
ATOM     19  C   UNL     1       0.146  13.551  22.076  0.00  0.00    +0.000 A 
ATOM     20  C   UNL     1       0.635  14.736  21.478  0.00  0.00    +0.000 A 
ATOM     21 CL   UNL     1       0.643  16.328  22.159  0.00  0.00    +0.000 Cl
ATOM     22  C   UNL     1       1.220  14.699  20.213  0.00  0.00    +0.000 A 
ATOM     23  C   UNL     1       1.359  13.500  19.536  0.00  0.00    +0.000 A 
ATOM     24 CL   UNL     1       2.090  13.584  17.967  0.00  0.00    +0.000 Cl
ATOM     25  C   UNL     1       0.926  12.294  20.115  0.00  0.00    +0.000 A 
ATOM     26  C   UNL     1       1.094  11.058  19.461  0.00  0.00    +0.000 A 
ATOM     27  C   UNL     1       0.657   9.882  20.041  0.00  0.00    +0.000 A 
ATOM     28  C   UNL     1       0.051   9.956  21.279  0.00  0.00    +0.000 A 
ATOM     29  C   UNL     1      -0.468   8.705  21.925  0.00  0.00    +0.000 C 
ATOM     30  N   UNL     1      -0.135  11.137  21.931  0.00  0.00    +0.000 NA
ATOM     31  C   UNL     1       0.300  12.306  21.393  0.00  0.00    +0.000 A 
ENDBRANCH  18  19
ENDBRANCH  17  18
ENDBRANCH   3  17
TORSDOF 6
ENDMDL
MODEL 8
REMARK VINA RESULT:      -8.2      6.209      9.578
REMARK  Name = 
REMARK  9 active torsions:
REMARK  status: ('A' for Active; 'I' for Inactive)
REMARK    1  A    between atoms: C_1  and  C_2
REMARK    2  A    between atoms: C_5  and  N_6
REMARK    3  A    between atoms: C_7  and  C_9
REMARK    4  A    between atoms: C_9  and  N_10
REMARK    5  A    between atoms: N_10  and  C_11
REMARK    6  A    between atoms: C_12  and  C_14
REMARK    7  A    between atoms: C_14  and  O_15
REMARK    8  A    between atoms: O_15  and  C_16
REMARK    9  A    between atoms: C_25  and  C_26
REMARK                            x       y       z     vdW  Elec       q    Type
REMARK                         _______ _______ _______ _____ _____    ______ ____
ROOT
ATOM      1  N   UNL     1       0.455  10.553  20.501  0.00  0.00    +0.000 N 
ATOM      2  C   UNL     1      -0.158  10.828  19.211  0.00  0.00    +0.000 C 
ATOM      3  C   UNL     1       1.011   9.326  20.841  0.00  0.00    +0.000 C 
ATOM      4  O   UNL     1       1.420   9.100  21.983  0.00  0.00    +0.000 OA
ENDROOT
BRANCH   1   5
ATOM      5  C   UNL     1       0.290  11.559  21.558  0.00  0.00    +0.000 C 
BRANCH   5   7
ATOM      6  N   UNL     1      -2.021  12.364  21.886  0.00  0.00    +0.000 N 
ATOM      7  C   UNL     1      -1.015  11.539  22.367  0.00  0.00    +0.000 C 
ATOM      8  O   UNL     1      -1.065  10.878  23.403  0.00  0.00    +0.000 OA
ATOM      9  H   UNL     1      -1.854  12.798  20.987  0.00  0.00    +0.000 HD
BRANCH   6  14
ATOM     10  C   UNL     1      -7.254  13.072  24.147  0.00  0.00    +0.000 C 
ATOM     11  C   UNL     1      -5.879  12.913  23.571  0.00  0.00    +0.000 A 
ATOM     12  C   UNL     1      -4.776  12.720  24.403  0.00  0.00    +0.000 A 
ATOM     13  C   UNL     1      -3.497  12.548  23.864  0.00  0.00    +0.000 A 
ATOM     14  C   UNL     1      -3.288  12.569  22.483  0.00  0.00    +0.000 A 
ATOM     15  C   UNL     1      -4.387  12.801  21.649  0.00  0.00    +0.000 A 
ATOM     16  C   UNL     1      -5.674  12.960  22.187  0.00  0.00    +0.000 A 
ENDBRANCH   6  14
ENDBRANCH   5   7
ENDBRANCH   1   5
BRANCH   3  17
ATOM     17  C   UNL     1       1.217   8.270  19.744  0.00  0.00    +0.000 C 
BRANCH  17  18
ATOM     18  O   UNL     1       2.000   7.145  20.100  0.00  0.00    +0.000 OA
BRANCH  18  19
ATOM     19  C   UNL     1       2.752   6.495  19.128  0.00  0.00    +0.000 A 
ATOM     20  C   UNL     1       3.369   7.079  17.997  0.00  0.00    +0.000 A 
ATOM     21 CL   UNL     1       3.397   8.756  17.567  0.00  0.00    +0.000 Cl
ATOM     22  C   UNL     1       4.082   6.290  17.095  0.00  0.00    +0.000 A 
ATOM     23  C   UNL     1       4.223   4.930  17.307  0.00  0.00    +0.000 A 
ATOM     24 CL   UNL     1       5.119   4.054  16.110  0.00  0.00    +0.000 Cl
ATOM     25  C   UNL     1       3.663   4.318  18.443  0.00  0.00    +0.000 A 
ATOM     26  C   UNL     1       3.827   2.944  18.698  0.00  0.00    +0.000 A 
ATOM     27  C   UNL     1       3.264   2.357  19.816  0.00  0.00    +0.000 A 
ATOM     28  C   UNL     1       2.536   3.158  20.672  0.00  0.00    +0.000 A 
ATOM     29  C   UNL     1       1.881   2.550  21.878  0.00  0.00    +0.000 C 
ATOM     30  N   UNL     1       2.350   4.488  20.446  0.00  0.00    +0.000 NA
ATOM     31  C   UNL     1       2.906   5.095  19.365  0.00  0.00    +0.000 A 
ENDBRANCH  18  19
ENDBRANCH  17  18
ENDBRANCH   3  17
TORSDOF 6
ENDMDL
MODEL 9
REMARK VINA RESULT:      -8.2      5.377      7.646
REMARK  Name = 
REMARK  9 active torsions:
REMARK  status: ('A' for Active; 'I' for Inactive)
REMARK    1  A    between atoms: C_1  and  C_2
REMARK    2  A    between atoms: C_5  and  N_6
REMARK    3  A    between atoms: C_7  and  C_9
REMARK    4  A    between atoms: C_9  and  N_10
REMARK    5  A    between atoms: N_10  and  C_11
REMARK    6  A    between atoms: C_12  and  C_14
REMARK    7  A    between atoms: C_14  and  O_15
REMARK    8  A    between atoms: O_15  and  C_16
REMARK    9  A    between atoms: C_25  and  C_26
REMARK                            x       y       z     vdW  Elec       q    Type
REMARK                         _______ _______ _______ _____ _____    ______ ____
ROOT
ATOM      1  N   UNL     1      -0.019   9.803  21.857  0.00  0.00    +0.000 N 
ATOM      2  C   UNL     1       0.393   9.462  23.209  0.00  0.00    +0.000 C 
ATOM      3  C   UNL     1       0.583   9.286  20.717  0.00  0.00    +0.000 C 
ATOM      4  O   UNL     1       0.278   9.686  19.590  0.00  0.00    +0.000 OA
ENDROOT
BRANCH   1   5
ATOM      5  C   UNL     1      -0.979  10.903  21.698  0.00  0.00    +0.000 C 
BRANCH   5   7
ATOM      6  N   UNL     1      -0.368  12.651  20.065  0.00  0.00    +0.000 N 
ATOM      7  C   UNL     1      -0.421  12.304  21.406  0.00  0.00    +0.000 C 
ATOM      8  O   UNL     1       0.008  12.981  22.339  0.00  0.00    +0.000 OA
ATOM      9  H   UNL     1      -0.817  12.015  19.418  0.00  0.00    +0.000 HD
BRANCH   6  14
ATOM     10  C   UNL     1       1.653  17.645  18.071  0.00  0.00    +0.000 C 
ATOM     11  C   UNL     1       1.130  16.329  18.563  0.00  0.00    +0.000 A 
ATOM     12  C   UNL     1       1.959  15.208  18.615  0.00  0.00    +0.000 A 
ATOM     13  C   UNL     1       1.478  13.987  19.098  0.00  0.00    +0.000 A 
ATOM     14  C   UNL     1       0.157  13.854  19.535  0.00  0.00    +0.000 A 
ATOM     15  C   UNL     1      -0.685  14.968  19.448  0.00  0.00    +0.000 A 
ATOM     16  C   UNL     1      -0.200  16.198  18.978  0.00  0.00    +0.000 A 
ENDBRANCH   6  14
ENDBRANCH   5   7
ENDBRANCH   1   5
BRANCH   3  17
ATOM     17  C   UNL     1       1.570   8.116  20.860  0.00  0.00    +0.000 C 
BRANCH  17  18
ATOM     18  O   UNL     1       1.358   7.012  19.999  0.00  0.00    +0.000 OA
BRANCH  18  19
ATOM     19  C   UNL     1       2.390   6.571  19.178  0.00  0.00    +0.000 A 
ATOM     20  C   UNL     1       3.026   7.299  18.144  0.00  0.00    +0.000 A 
ATOM     21 CL   UNL     1       2.724   8.939  17.678  0.00  0.00    +0.000 Cl
ATOM     22  C   UNL     1       4.041   6.713  17.390  0.00  0.00    +0.000 A 
ATOM     23  C   UNL     1       4.465   5.424  17.660  0.00  0.00    +0.000 A 
ATOM     24 CL   UNL     1       5.726   4.801  16.646  0.00  0.00    +0.000 Cl
ATOM     25  C   UNL     1       3.890   4.683  18.708  0.00  0.00    +0.000 A 
ATOM     26  C   UNL     1       4.332   3.385  19.024  0.00  0.00    +0.000 A 
ATOM     27  C   UNL     1       3.752   2.668  20.053  0.00  0.00    +0.000 A 
ATOM     28  C   UNL     1       2.725   3.262  20.759  0.00  0.00    +0.000 A 
ATOM     29  C   UNL     1       2.047   2.501  21.861  0.00  0.00    +0.000 C 
ATOM     30  N   UNL     1       2.269   4.511  20.470  0.00  0.00    +0.000 NA
ATOM     31  C   UNL     1       2.832   5.246  19.475  0.00  0.00    +0.000 A 
ENDBRANCH  18  19
ENDBRANCH  17  18
ENDBRANCH   3  17
TORSDOF 6
ENDMDL
