MODEL 1
REMARK VINA RESULT:      -7.9      0.000      0.000
REMARK  Name = 
REMARK  9 active torsions:
REMARK  status: ('A' for Active; 'I' for Inactive)
REMARK    1  A    between atoms: C_1  and  C_2
REMARK    2  A    between atoms: C_2  and  C_3
REMARK    3  A    between atoms: C_5  and  C_6
REMARK    4  A    between atoms: C_6  and  N_7
REMARK    5  A    between atoms: N_7  and  C_8
REMARK    6  A    between atoms: N_7  and  C_9
REMARK    7  A    between atoms: C_9  and  C_10
REMARK    8  A    between atoms: C_12  and  C_13
REMARK    9  A    between atoms: C_21  and  C_22
REMARK                            x       y       z     vdW  Elec       q    Type
REMARK                         _______ _______ _______ _____ _____    ______ ____
ROOT
ATOM      1  C   UNL     1       3.928   4.485  17.145  0.00  0.00    +0.000 A 
ATOM      2  N   UNL     1       3.971   5.837  17.400  0.00  0.00    +0.000 NA
ATOM      3  C   UNL     1       2.881   6.070  18.103  0.00  0.00    +0.000 A 
ATOM      4  O   UNL     1       2.164   4.948  18.410  0.00  0.00    +0.000 OA
ATOM      5  C   UNL     1       2.826   3.937  17.769  0.00  0.00    +0.000 A 
ATOM      6  C   UNL     1       2.226   2.590  17.820  0.00  0.00    +0.000 C 
ENDROOT
BRANCH   3   7
ATOM      7  C   UNL     1       2.380   7.362  18.560  0.00  0.00    +0.000 A 
ATOM      8  C   UNL     1       2.390   8.424  17.633  0.00  0.00    +0.000 A 
ATOM      9  C   UNL     1       1.824   9.663  17.942  0.00  0.00    +0.000 A 
ATOM     10  C   UNL     1       1.235   9.861  19.185  0.00  0.00    +0.000 A 
ATOM     11  C   UNL     1       1.226   8.828  20.121  0.00  0.00    +0.000 A 
ATOM     12  C   UNL     1       1.795   7.583  19.816  0.00  0.00    +0.000 A 
ATOM     13 CL   UNL     1       1.657   6.360  21.035  0.00  0.00    +0.000 Cl
ENDBRANCH   3   7
BRANCH   1  14
ATOM     14  C   UNL     1       4.949   3.858  16.255  0.00  0.00    +0.000 C 
BRANCH  14  15
ATOM     15  N   UNL     1       6.078   4.766  15.986  0.00  0.00    +0.000 NA
ATOM     16  C   UNL     1       6.557   4.521  14.620  0.00  0.00    +0.000 C 
BRANCH  15  17
ATOM     17  C   UNL     1       7.177   4.585  16.974  0.00  0.00    +0.000 C 
BRANCH  17  20
ATOM     18  C   UNL     1       7.913   7.919  17.880  0.00  0.00    +0.000 A 
ATOM     19  N   UNL     1       7.316   7.104  17.046  0.00  0.00    +0.000 NA
ATOM     20  C   UNL     1       7.508   5.882  17.651  0.00  0.00    +0.000 A 
ATOM     21  N   UNL     1       8.142   5.936  18.834  0.00  0.00    +0.000 NA
ATOM     22  O   UNL     1       8.416   7.297  18.987  0.00  0.00    +0.000 OA
BRANCH  18  24
ATOM     23  C   UNL     1       9.024   9.869  18.905  0.00  0.00    +0.000 C 
ATOM     24  C   UNL     1       8.191   9.364  17.736  0.00  0.00    +0.000 C 
ENDBRANCH  18  24
ENDBRANCH  17  20
ENDBRANCH  15  17
ENDBRANCH  14  15
ENDBRANCH   1  14
TORSDOF 6
ENDMDL
MODEL 2
REMARK VINA RESULT:      -7.7      1.980      2.947
REMARK  Name = 
REMARK  9 active torsions:
REMARK  status: ('A' for Active; 'I' for Inactive)
REMARK    1  A    between atoms: C_1  and  C_2
REMARK    2  A    between atoms: C_2  and  C_3
REMARK    3  A    between atoms: C_5  and  C_6
REMARK    4  A    between atoms: C_6  and  N_7
REMARK    5  A    between atoms: N_7  and  C_8
REMARK    6  A    between atoms: N_7  and  C_9
REMARK    7  A    between atoms: C_9  and  C_10
REMARK    8  A    between atoms: C_12  and  C_13
REMARK    9  A    between atoms: C_21  and  C_22
REMARK                            x       y       z     vdW  Elec       q    Type
REMARK                         _______ _______ _______ _____ _____    ______ ____
ROOT
ATOM      1  C   UNL     1       3.037   4.837  19.787  0.00  0.00    +0.000 A 
ATOM      2  N   UNL     1       3.089   6.206  19.654  0.00  0.00    +0.000 NA
ATOM      3  C   UNL     1       1.999   6.634  20.259  0.00  0.00    +0.000 A 
ATOM      4  O   UNL     1       1.273   5.646  20.864  0.00  0.00    +0.000 OA
ATOM      5  C   UNL     1       1.929   4.492  20.535  0.00  0.00    +0.000 A 
ATOM      6  C   UNL     1       1.319   3.217  20.957  0.00  0.00    +0.000 C 
ENDROOT
BRANCH   3   7
ATOM      7  C   UNL     1       1.506   8.004  20.335  0.00  0.00    +0.000 A 
ATOM      8  C   UNL     1       1.173   8.502  21.611  0.00  0.00    +0.000 A 
ATOM      9  C   UNL     1       0.805   9.836  21.796  0.00  0.00    +0.000 A 
ATOM     10  C   UNL     1       0.764  10.699  20.707  0.00  0.00    +0.000 A 
ATOM     11  C   UNL     1       1.077  10.223  19.434  0.00  0.00    +0.000 A 
ATOM     12  C   UNL     1       1.446   8.883  19.243  0.00  0.00    +0.000 A 
ATOM     13 CL   UNL     1       1.879   8.433  17.628  0.00  0.00    +0.000 Cl
ENDBRANCH   3   7
BRANCH   1  14
ATOM     14  C   UNL     1       4.055   3.980  19.113  0.00  0.00    +0.000 C 
BRANCH  14  15
ATOM     15  N   UNL     1       3.653   3.620  17.741  0.00  0.00    +0.000 NA
ATOM     16  C   UNL     1       3.081   2.268  17.761  0.00  0.00    +0.000 C 
BRANCH  15  17
ATOM     17  C   UNL     1       4.799   3.698  16.794  0.00  0.00    +0.000 C 
BRANCH  17  20
ATOM     18  C   UNL     1       6.907   6.422  17.580  0.00  0.00    +0.000 A 
ATOM     19  N   UNL     1       6.764   5.123  17.486  0.00  0.00    +0.000 NA
ATOM     20  C   UNL     1       5.513   5.011  16.922  0.00  0.00    +0.000 A 
ATOM     21  N   UNL     1       4.927   6.181  16.622  0.00  0.00    +0.000 NA
ATOM     22  O   UNL     1       5.856   7.126  17.065  0.00  0.00    +0.000 OA
BRANCH  18  24
ATOM     23  C   UNL     1       7.977   8.639  17.749  0.00  0.00    +0.000 C 
ATOM     24  C   UNL     1       7.979   7.198  18.240  0.00  0.00    +0.000 C 
ENDBRANCH  18  24
ENDBRANCH  17  20
ENDBRANCH  15  17
ENDBRANCH  14  15
ENDBRANCH   1  14
TORSDOF 6
ENDMDL
MODEL 3
REMARK VINA RESULT:      -7.5      2.742      3.970
REMARK  Name = 
REMARK  9 active torsions:
REMARK  status: ('A' for Active; 'I' for Inactive)
REMARK    1  A    between atoms: C_1  and  C_2
REMARK    2  A    between atoms: C_2  and  C_3
REMARK    3  A    between atoms: C_5  and  C_6
REMARK    4  A    between atoms: C_6  and  N_7
REMARK    5  A    between atoms: N_7  and  C_8
REMARK    6  A    between atoms: N_7  and  C_9
REMARK    7  A    between atoms: C_9  and  C_10
REMARK    8  A    between atoms: C_12  and  C_13
REMARK    9  A    between atoms: C_21  and  C_22
REMARK                            x       y       z     vdW  Elec       q    Type
REMARK                         _______ _______ _______ _____ _____    ______ ____
ROOT
ATOM      1  C   UNL     1       3.301   5.009  19.841  0.00  0.00    +0.000 A 
ATOM      2  N   UNL     1       3.268   6.369  19.632  0.00  0.00    +0.000 NA
ATOM      3  C   UNL     1       2.129   6.754  20.172  0.00  0.00    +0.000 A 
ATOM      4  O   UNL     1       1.447   5.754  20.808  0.00  0.00    +0.000 OA
ATOM      5  C   UNL     1       2.191   4.632  20.569  0.00  0.00    +0.000 A 
ATOM      6  C   UNL     1       1.651   3.343  21.043  0.00  0.00    +0.000 C 
ENDROOT
BRANCH   3   7
ATOM      7  C   UNL     1       1.543   8.090  20.150  0.00  0.00    +0.000 A 
ATOM      8  C   UNL     1       1.007   8.581  21.359  0.00  0.00    +0.000 A 
ATOM      9  C   UNL     1       0.532   9.889  21.464  0.00  0.00    +0.000 A 
ATOM     10  C   UNL     1       0.586  10.733  20.361  0.00  0.00    +0.000 A 
ATOM     11  C   UNL     1       1.099  10.264  19.153  0.00  0.00    +0.000 A 
ATOM     12  C   UNL     1       1.576   8.949  19.042  0.00  0.00    +0.000 A 
ATOM     13 CL   UNL     1       2.254   8.508  17.510  0.00  0.00    +0.000 Cl
ENDBRANCH   3   7
BRANCH   1  14
ATOM     14  C   UNL     1       4.399   4.188  19.254  0.00  0.00    +0.000 C 
BRANCH  14  15
ATOM     15  N   UNL     1       4.736   4.615  17.885  0.00  0.00    +0.000 NA
ATOM     16  C   UNL     1       3.829   3.941  16.948  0.00  0.00    +0.000 C 
BRANCH  15  17
ATOM     17  C   UNL     1       6.157   4.322  17.551  0.00  0.00    +0.000 C 
BRANCH  17  20
ATOM     18  C   UNL     1       6.674   4.389  14.057  0.00  0.00    +0.000 A 
ATOM     19  N   UNL     1       6.044   3.853  15.074  0.00  0.00    +0.000 NA
ATOM     20  C   UNL     1       6.452   4.653  16.118  0.00  0.00    +0.000 A 
ATOM     21  N   UNL     1       7.249   5.674  15.764  0.00  0.00    +0.000 NA
ATOM     22  O   UNL     1       7.401   5.496  14.386  0.00  0.00    +0.000 OA
BRANCH  18  24
ATOM     23  C   UNL     1       5.454   3.305  12.207  0.00  0.00    +0.000 C 
ATOM     24  C   UNL     1       6.775   3.906  12.663  0.00  0.00    +0.000 C 
ENDBRANCH  18  24
ENDBRANCH  17  20
ENDBRANCH  15  17
ENDBRANCH  14  15
ENDBRANCH   1  14
TORSDOF 6
ENDMDL
MODEL 4
REMARK VINA RESULT:      -7.5      1.781      2.498
REMARK  Name = 
REMARK  9 active torsions:
REMARK  status: ('A' for Active; 'I' for Inactive)
REMARK    1  A    between atoms: C_1  and  C_2
REMARK    2  A    between atoms: C_2  and  C_3
REMARK    3  A    between atoms: C_5  and  C_6
REMARK    4  A    between atoms: C_6  and  N_7
REMARK    5  A    between atoms: N_7  and  C_8
REMARK    6  A    between atoms: N_7  and  C_9
REMARK    7  A    between atoms: C_9  and  C_10
REMARK    8  A    between atoms: C_12  and  C_13
REMARK    9  A    between atoms: C_21  and  C_22
REMARK                            x       y       z     vdW  Elec       q    Type
REMARK                         _______ _______ _______ _____ _____    ______ ____
ROOT
ATOM      1  C   UNL     1       3.380   4.980  19.589  0.00  0.00    +0.000 A 
ATOM      2  N   UNL     1       3.381   6.269  19.106  0.00  0.00    +0.000 NA
ATOM      3  C   UNL     1       2.348   6.838  19.694  0.00  0.00    +0.000 A 
ATOM      4  O   UNL     1       1.717   6.040  20.607  0.00  0.00    +0.000 OA
ATOM      5  C   UNL     1       2.366   4.840  20.515  0.00  0.00    +0.000 A 
ATOM      6  C   UNL     1       1.838   3.717  21.313  0.00  0.00    +0.000 C 
ENDROOT
BRANCH   3   7
ATOM      7  C   UNL     1       1.828   8.182  19.469  0.00  0.00    +0.000 A 
ATOM      8  C   UNL     1       1.817   8.656  18.141  0.00  0.00    +0.000 A 
ATOM      9  C   UNL     1       1.232   9.881  17.812  0.00  0.00    +0.000 A 
ATOM     10  C   UNL     1       0.646  10.655  18.807  0.00  0.00    +0.000 A 
ATOM     11  C   UNL     1       0.658  10.210  20.129  0.00  0.00    +0.000 A 
ATOM     12  C   UNL     1       1.246   8.982  20.464  0.00  0.00    +0.000 A 
ATOM     13 CL   UNL     1       1.135   8.509  22.126  0.00  0.00    +0.000 Cl
ENDBRANCH   3   7
BRANCH   1  14
ATOM     14  C   UNL     1       4.346   3.978  19.052  0.00  0.00    +0.000 C 
BRANCH  14  15
ATOM     15  N   UNL     1       3.984   3.535  17.694  0.00  0.00    +0.000 NA
ATOM     16  C   UNL     1       3.401   2.190  17.781  0.00  0.00    +0.000 C 
BRANCH  15  17
ATOM     17  C   UNL     1       5.159   3.546  16.780  0.00  0.00    +0.000 C 
BRANCH  17  20
ATOM     18  C   UNL     1       7.111   6.400  17.502  0.00  0.00    +0.000 A 
ATOM     19  N   UNL     1       6.962   5.103  17.612  0.00  0.00    +0.000 NA
ATOM     20  C   UNL     1       5.859   4.872  16.821  0.00  0.00    +0.000 A 
ATOM     21  N   UNL     1       5.378   5.960  16.200  0.00  0.00    +0.000 NA
ATOM     22  O   UNL     1       6.212   6.984  16.656  0.00  0.00    +0.000 OA
BRANCH  18  24
ATOM     23  C   UNL     1       7.904   8.727  17.716  0.00  0.00    +0.000 C 
ATOM     24  C   UNL     1       8.035   7.299  18.228  0.00  0.00    +0.000 C 
ENDBRANCH  18  24
ENDBRANCH  17  20
ENDBRANCH  15  17
ENDBRANCH  14  15
ENDBRANCH   1  14
TORSDOF 6
ENDMDL
MODEL 5
REMARK VINA RESULT:      -7.5      2.173      3.807
REMARK  Name = 
REMARK  9 active torsions:
REMARK  status: ('A' for Active; 'I' for Inactive)
REMARK    1  A    between atoms: C_1  and  C_2
REMARK    2  A    between atoms: C_2  and  C_3
REMARK    3  A    between atoms: C_5  and  C_6
REMARK    4  A    between atoms: C_6  and  N_7
REMARK    5  A    between atoms: N_7  and  C_8
REMARK    6  A    between atoms: N_7  and  C_9
REMARK    7  A    between atoms: C_9  and  C_10
REMARK    8  A    between atoms: C_12  and  C_13
REMARK    9  A    between atoms: C_21  and  C_22
REMARK                            x       y       z     vdW  Elec       q    Type
REMARK                         _______ _______ _______ _____ _____    ______ ____
ROOT
ATOM      1  C   UNL     1       4.253   4.830  18.387  0.00  0.00    +0.000 A 
ATOM      2  N   UNL     1       4.166   6.122  18.855  0.00  0.00    +0.000 NA
ATOM      3  C   UNL     1       2.928   6.484  18.582  0.00  0.00    +0.000 A 
ATOM      4  O   UNL     1       2.161   5.487  18.047  0.00  0.00    +0.000 OA
ATOM      5  C   UNL     1       3.024   4.437  17.899  0.00  0.00    +0.000 A 
ATOM      6  C   UNL     1       2.512   3.223  17.234  0.00  0.00    +0.000 C 
ENDROOT
BRANCH   3   7
ATOM      7  C   UNL     1       2.324   7.797  18.779  0.00  0.00    +0.000 A 
ATOM      8  C   UNL     1       2.415   8.717  17.715  0.00  0.00    +0.000 A 
ATOM      9  C   UNL     1       1.769   9.954  17.766  0.00  0.00    +0.000 A 
ATOM     10  C   UNL     1       1.015  10.292  18.884  0.00  0.00    +0.000 A 
ATOM     11  C   UNL     1       0.922   9.401  19.953  0.00  0.00    +0.000 A 
ATOM     12  C   UNL     1       1.572   8.159  19.907  0.00  0.00    +0.000 A 
ATOM     13 CL   UNL     1       1.321   7.114  21.265  0.00  0.00    +0.000 Cl
ENDBRANCH   3   7
BRANCH   1  14
ATOM     14  C   UNL     1       5.561   4.114  18.408  0.00  0.00    +0.000 C 
BRANCH  14  15
ATOM     15  N   UNL     1       6.551   4.744  17.517  0.00  0.00    +0.000 NA
ATOM     16  C   UNL     1       7.490   5.521  18.337  0.00  0.00    +0.000 C 
BRANCH  15  17
ATOM     17  C   UNL     1       5.899   5.607  16.494  0.00  0.00    +0.000 C 
BRANCH  17  20
ATOM     18  C   UNL     1       6.216   4.072  13.329  0.00  0.00    +0.000 A 
ATOM     19  N   UNL     1       5.440   4.376  14.340  0.00  0.00    +0.000 NA
ATOM     20  C   UNL     1       6.265   5.167  15.108  0.00  0.00    +0.000 A 
ATOM     21  N   UNL     1       7.476   5.396  14.575  0.00  0.00    +0.000 NA
ATOM     22  O   UNL     1       7.446   4.662  13.387  0.00  0.00    +0.000 OA
BRANCH  18  24
ATOM     23  C   UNL     1       4.551   3.264  11.696  0.00  0.00    +0.000 C 
ATOM     24  C   UNL     1       5.974   3.125  12.218  0.00  0.00    +0.000 C 
ENDBRANCH  18  24
ENDBRANCH  17  20
ENDBRANCH  15  17
ENDBRANCH  14  15
ENDBRANCH   1  14
TORSDOF 6
ENDMDL
MODEL 6
REMARK VINA RESULT:      -7.4      1.711      2.294
REMARK  Name = 
REMARK  9 active torsions:
REMARK  status: ('A' for Active; 'I' for Inactive)
REMARK    1  A    between atoms: C_1  and  C_2
REMARK    2  A    between atoms: C_2  and  C_3
REMARK    3  A    between atoms: C_5  and  C_6
REMARK    4  A    between atoms: C_6  and  N_7
REMARK    5  A    between atoms: N_7  and  C_8
REMARK    6  A    between atoms: N_7  and  C_9
REMARK    7  A    between atoms: C_9  and  C_10
REMARK    8  A    between atoms: C_12  and  C_13
REMARK    9  A    between atoms: C_21  and  C_22
REMARK                            x       y       z     vdW  Elec       q    Type
REMARK                         _______ _______ _______ _____ _____    ______ ____
ROOT
ATOM      1  C   UNL     1       3.181   4.732  19.697  0.00  0.00    +0.000 A 
ATOM      2  N   UNL     1       3.231   6.106  19.627  0.00  0.00    +0.000 NA
ATOM      3  C   UNL     1       2.100   6.501  20.176  0.00  0.00    +0.000 A 
ATOM      4  O   UNL     1       1.344   5.484  20.689  0.00  0.00    +0.000 OA
ATOM      5  C   UNL     1       2.030   4.350  20.354  0.00  0.00    +0.000 A 
ATOM      6  C   UNL     1       1.404   3.054  20.681  0.00  0.00    +0.000 C 
ENDROOT
BRANCH   3   7
ATOM      7  C   UNL     1       1.591   7.864  20.277  0.00  0.00    +0.000 A 
ATOM      8  C   UNL     1       1.248   8.333  21.561  0.00  0.00    +0.000 A 
ATOM      9  C   UNL     1       0.864   9.659  21.773  0.00  0.00    +0.000 A 
ATOM     10  C   UNL     1       0.818  10.542  20.701  0.00  0.00    +0.000 A 
ATOM     11  C   UNL     1       1.141  10.096  19.420  0.00  0.00    +0.000 A 
ATOM     12  C   UNL     1       1.525   8.765  19.203  0.00  0.00    +0.000 A 
ATOM     13 CL   UNL     1       1.969   8.352  17.580  0.00  0.00    +0.000 Cl
ENDBRANCH   3   7
BRANCH   1  14
ATOM     14  C   UNL     1       4.249   3.911  19.055  0.00  0.00    +0.000 C 
BRANCH  14  15
ATOM     15  N   UNL     1       4.823   4.578  17.873  0.00  0.00    +0.000 NA
ATOM     16  C   UNL     1       4.192   4.021  16.670  0.00  0.00    +0.000 C 
BRANCH  15  17
ATOM     17  C   UNL     1       6.303   4.421  17.818  0.00  0.00    +0.000 C 
BRANCH  17  20
ATOM     18  C   UNL     1       7.673   7.672  17.978  0.00  0.00    +0.000 A 
ATOM     19  N   UNL     1       6.733   6.888  17.511  0.00  0.00    +0.000 NA
ATOM     20  C   UNL     1       6.993   5.706  18.167  0.00  0.00    +0.000 A 
ATOM     21  N   UNL     1       8.007   5.763  19.045  0.00  0.00    +0.000 NA
ATOM     22  O   UNL     1       8.466   7.077  18.917  0.00  0.00    +0.000 OA
BRANCH  18  24
ATOM     23  C   UNL     1       8.881   9.723  18.631  0.00  0.00    +0.000 C 
ATOM     24  C   UNL     1       8.038   9.044  17.561  0.00  0.00    +0.000 C 
ENDBRANCH  18  24
ENDBRANCH  17  20
ENDBRANCH  15  17
ENDBRANCH  14  15
ENDBRANCH   1  14
TORSDOF 6
ENDMDL
MODEL 7
REMARK VINA RESULT:      -7.4      2.334      3.813
REMARK  Name = 
REMARK  9 active torsions:
REMARK  status: ('A' for Active; 'I' for Inactive)
REMARK    1  A    between atoms: C_1  and  C_2
REMARK    2  A    between atoms: C_2  and  C_3
REMARK    3  A    between atoms: C_5  and  C_6
REMARK    4  A    between atoms: C_6  and  N_7
REMARK    5  A    between atoms: N_7  and  C_8
REMARK    6  A    between atoms: N_7  and  C_9
REMARK    7  A    between atoms: C_9  and  C_10
REMARK    8  A    between atoms: C_12  and  C_13
REMARK    9  A    between atoms: C_21  and  C_22
REMARK                            x       y       z     vdW  Elec       q    Type
REMARK                         _______ _______ _______ _____ _____    ______ ____
ROOT
ATOM      1  C   UNL     1       3.952   4.689  19.045  0.00  0.00    +0.000 A 
ATOM      2  N   UNL     1       3.743   5.851  19.753  0.00  0.00    +0.000 NA
ATOM      3  C   UNL     1       2.510   6.202  19.446  0.00  0.00    +0.000 A 
ATOM      4  O   UNL     1       1.855   5.301  18.653  0.00  0.00    +0.000 OA
ATOM      5  C   UNL     1       2.794   4.346  18.377  0.00  0.00    +0.000 A 
ATOM      6  C   UNL     1       2.418   3.272  17.438  0.00  0.00    +0.000 C 
ENDROOT
BRANCH   3   7
ATOM      7  C   UNL     1       1.807   7.415  19.846  0.00  0.00    +0.000 A 
ATOM      8  C   UNL     1       1.321   7.475  21.168  0.00  0.00    +0.000 A 
ATOM      9  C   UNL     1       0.739   8.638  21.676  0.00  0.00    +0.000 A 
ATOM     10  C   UNL     1       0.635   9.766  20.870  0.00  0.00    +0.000 A 
ATOM     11  C   UNL     1       1.098   9.724  19.556  0.00  0.00    +0.000 A 
ATOM     12  C   UNL     1       1.681   8.557  19.040  0.00  0.00    +0.000 A 
ATOM     13 CL   UNL     1       2.280   8.654  17.418  0.00  0.00    +0.000 Cl
ENDBRANCH   3   7
BRANCH   1  14
ATOM     14  C   UNL     1       5.298   4.046  19.042  0.00  0.00    +0.000 C 
BRANCH  14  15
ATOM     15  N   UNL     1       6.243   4.749  18.156  0.00  0.00    +0.000 NA
ATOM     16  C   UNL     1       7.070   5.646  18.973  0.00  0.00    +0.000 C 
BRANCH  15  17
ATOM     17  C   UNL     1       5.537   5.505  17.087  0.00  0.00    +0.000 C 
BRANCH  17  20
ATOM     18  C   UNL     1       6.715   4.683  13.860  0.00  0.00    +0.000 A 
ATOM     19  N   UNL     1       5.701   4.743  14.687  0.00  0.00    +0.000 NA
ATOM     20  C   UNL     1       6.254   5.378  15.775  0.00  0.00    +0.000 A 
ATOM     21  N   UNL     1       7.533   5.752  15.616  0.00  0.00    +0.000 NA
ATOM     22  O   UNL     1       7.845   5.285  14.336  0.00  0.00    +0.000 OA
BRANCH  18  24
ATOM     23  C   UNL     1       5.561   3.177  12.282  0.00  0.00    +0.000 C 
ATOM     24  C   UNL     1       6.821   3.985  12.560  0.00  0.00    +0.000 C 
ENDBRANCH  18  24
ENDBRANCH  17  20
ENDBRANCH  15  17
ENDBRANCH  14  15
ENDBRANCH   1  14
TORSDOF 6
ENDMDL
MODEL 8
REMARK VINA RESULT:      -7.4      3.206      5.672
REMARK  Name = 
REMARK  9 active torsions:
REMARK  status: ('A' for Active; 'I' for Inactive)
REMARK    1  A    between atoms: C_1  and  C_2
REMARK    2  A    between atoms: C_2  and  C_3
REMARK    3  A    between atoms: C_5  and  C_6
REMARK    4  A    between atoms: C_6  and  N_7
REMARK    5  A    between atoms: N_7  and  C_8
REMARK    6  A    between atoms: N_7  and  C_9
REMARK    7  A    between atoms: C_9  and  C_10
REMARK    8  A    between atoms: C_12  and  C_13
REMARK    9  A    between atoms: C_21  and  C_22
REMARK                            x       y       z     vdW  Elec       q    Type
REMARK                         _______ _______ _______ _____ _____    ______ ____
ROOT
ATOM      1  C   UNL     1       6.455   4.632  17.902  0.00  0.00    +0.000 A 
ATOM      2  N   UNL     1       5.164   4.161  17.821  0.00  0.00    +0.000 NA
ATOM      3  C   UNL     1       4.676   4.337  19.032  0.00  0.00    +0.000 A 
ATOM      4  O   UNL     1       5.527   4.979  19.888  0.00  0.00    +0.000 OA
ATOM      5  C   UNL     1       6.677   5.141  19.165  0.00  0.00    +0.000 A 
ATOM      6  C   UNL     1       7.843   5.719  19.861  0.00  0.00    +0.000 C 
ENDROOT
BRANCH   3   7
ATOM      7  C   UNL     1       3.371   3.922  19.532  0.00  0.00    +0.000 A 
ATOM      8  C   UNL     1       2.587   4.896  20.183  0.00  0.00    +0.000 A 
ATOM      9  C   UNL     1       1.280   4.624  20.590  0.00  0.00    +0.000 A 
ATOM     10  C   UNL     1       0.730   3.370  20.353  0.00  0.00    +0.000 A 
ATOM     11  C   UNL     1       1.493   2.387  19.723  0.00  0.00    +0.000 A 
ATOM     12  C   UNL     1       2.807   2.655  19.314  0.00  0.00    +0.000 A 
ATOM     13 CL   UNL     1       3.625   1.376  18.480  0.00  0.00    +0.000 Cl
ENDBRANCH   3   7
BRANCH   1  14
ATOM     14  C   UNL     1       7.379   4.486  16.740  0.00  0.00    +0.000 C 
BRANCH  14  15
ATOM     15  N   UNL     1       7.245   5.600  15.784  0.00  0.00    +0.000 NA
ATOM     16  C   UNL     1       7.311   6.864  16.528  0.00  0.00    +0.000 C 
BRANCH  15  17
ATOM     17  C   UNL     1       5.979   5.507  15.006  0.00  0.00    +0.000 C 
BRANCH  17  20
ATOM     18  C   UNL     1       5.967   3.248  12.291  0.00  0.00    +0.000 A 
ATOM     19  N   UNL     1       5.311   3.778  13.294  0.00  0.00    +0.000 NA
ATOM     20  C   UNL     1       6.188   4.746  13.731  0.00  0.00    +0.000 A 
ATOM     21  N   UNL     1       7.310   4.856  13.001  0.00  0.00    +0.000 NA
ATOM     22  O   UNL     1       7.165   3.853  12.040  0.00  0.00    +0.000 OA
BRANCH  18  24
ATOM     23  C   UNL     1       6.900   1.349  11.021  0.00  0.00    +0.000 C 
ATOM     24  C   UNL     1       5.633   2.054  11.484  0.00  0.00    +0.000 C 
ENDBRANCH  18  24
ENDBRANCH  17  20
ENDBRANCH  15  17
ENDBRANCH  14  15
ENDBRANCH   1  14
TORSDOF 6
ENDMDL
MODEL 9
REMARK VINA RESULT:      -7.4      2.752      3.896
REMARK  Name = 
REMARK  9 active torsions:
REMARK  status: ('A' for Active; 'I' for Inactive)
REMARK    1  A    between atoms: C_1  and  C_2
REMARK    2  A    between atoms: C_2  and  C_3
REMARK    3  A    between atoms: C_5  and  C_6
REMARK    4  A    between atoms: C_6  and  N_7
REMARK    5  A    between atoms: N_7  and  C_8
REMARK    6  A    between atoms: N_7  and  C_9
REMARK    7  A    between atoms: C_9  and  C_10
REMARK    8  A    between atoms: C_12  and  C_13
REMARK    9  A    between atoms: C_21  and  C_22
REMARK                            x       y       z     vdW  Elec       q    Type
REMARK                         _______ _______ _______ _____ _____    ______ ____
ROOT
ATOM      1  C   UNL     1       3.487   5.282  19.817  0.00  0.00    +0.000 A 
ATOM      2  N   UNL     1       3.419   6.583  19.373  0.00  0.00    +0.000 NA
ATOM      3  C   UNL     1       2.251   7.014  19.808  0.00  0.00    +0.000 A 
ATOM      4  O   UNL     1       1.581   6.115  20.590  0.00  0.00    +0.000 OA
ATOM      5  C   UNL     1       2.367   4.996  20.569  0.00  0.00    +0.000 A 
ATOM      6  C   UNL     1       1.852   3.790  21.246  0.00  0.00    +0.000 C 
ENDROOT
BRANCH   3   7
ATOM      7  C   UNL     1       1.625   8.304  19.539  0.00  0.00    +0.000 A 
ATOM      8  C   UNL     1       1.477   8.681  18.189  0.00  0.00    +0.000 A 
ATOM      9  C   UNL     1       0.787   9.841  17.831  0.00  0.00    +0.000 A 
ATOM     10  C   UNL     1       0.229  10.645  18.818  0.00  0.00    +0.000 A 
ATOM     11  C   UNL     1       0.376  10.297  20.160  0.00  0.00    +0.000 A 
ATOM     12  C   UNL     1       1.071   9.134  20.525  0.00  0.00    +0.000 A 
ATOM     13 CL   UNL     1       1.123   8.773  22.218  0.00  0.00    +0.000 Cl
ENDBRANCH   3   7
BRANCH   1  14
ATOM     14  C   UNL     1       4.629   4.412  19.411  0.00  0.00    +0.000 C 
BRANCH  14  15
ATOM     15  N   UNL     1       4.726   4.276  17.947  0.00  0.00    +0.000 NA
ATOM     16  C   UNL     1       3.950   3.099  17.535  0.00  0.00    +0.000 C 
BRANCH  15  17
ATOM     17  C   UNL     1       6.141   4.163  17.497  0.00  0.00    +0.000 C 
BRANCH  17  20
ATOM     18  C   UNL     1       6.406   4.187  13.975  0.00  0.00    +0.000 A 
ATOM     19  N   UNL     1       5.966   3.578  15.048  0.00  0.00    +0.000 NA
ATOM     20  C   UNL     1       6.268   4.486  16.038  0.00  0.00    +0.000 A 
ATOM     21  N   UNL     1       6.814   5.632  15.599  0.00  0.00    +0.000 NA
ATOM     22  O   UNL     1       6.910   5.432  14.220  0.00  0.00    +0.000 OA
BRANCH  18  24
ATOM     23  C   UNL     1       5.134   3.370  12.024  0.00  0.00    +0.000 C 
ATOM     24  C   UNL     1       6.513   3.677  12.590  0.00  0.00    +0.000 C 
ENDBRANCH  18  24
ENDBRANCH  17  20
ENDBRANCH  15  17
ENDBRANCH  14  15
ENDBRANCH   1  14
TORSDOF 6
ENDMDL
