MODEL 1
REMARK VINA RESULT:      -8.8      0.000      0.000
REMARK  Name = 
REMARK  7 active torsions:
REMARK  status: ('A' for Active; 'I' for Inactive)
REMARK    1  A    between atoms: C_1  and  C_2
REMARK    2  A    between atoms: C_2  and  O_3
REMARK    3  A    between atoms: C_2  and  C_21
REMARK    4  A    between atoms: O_3  and  C_4
REMARK    5  A    between atoms: C_4  and  C_6
REMARK    6  A    between atoms: C_6  and  N_7
REMARK    7  A    between atoms: C_21  and  C_23
REMARK                            x       y       z     vdW  Elec       q    Type
REMARK                         _______ _______ _______ _____ _____    ______ ____
ROOT
ATOM      1  C   UNL     1       5.542   6.707  17.772  0.00  0.00    +0.000 C 
ENDROOT
BRANCH   1   2
ATOM      2  N   UNL     1       4.582   5.749  18.281  0.00  0.00    +0.000 N 
ATOM      3  C   UNL     1       4.971   4.511  18.783  0.00  0.00    +0.000 C 
ATOM      4  O   UNL     1       6.103   4.088  18.931  0.00  0.00    +0.000 OA
ATOM      5  C   UNL     1       3.701   3.734  18.893  0.00  0.00    +0.000 C 
ATOM      6  C   UNL     1       3.329   2.524  19.767  0.00  0.00    +0.000 C 
ATOM      7  C   UNL     1       2.140   1.992  18.943  0.00  0.00    +0.000 C 
ATOM      8  C   UNL     1       1.153   2.904  18.764  0.00  0.00    +0.000 C 
ATOM      9  C   UNL     1       1.341   4.229  19.527  0.00  0.00    +0.000 C 
ATOM     10  C   UNL     1       1.534   3.876  21.034  0.00  0.00    +0.000 C 
ATOM     11  C   UNL     1       1.458   2.524  21.711  0.00  0.00    +0.000 C 
ATOM     12  C   UNL     1       2.788   2.984  21.155  0.00  0.00    +0.000 C 
ATOM     13  C   UNL     1       2.725   4.862  19.226  0.00  0.00    +0.000 C 
ATOM     14  C   UNL     1       3.200   5.915  18.276  0.00  0.00    +0.000 C 
ATOM     15  O   UNL     1       2.541   6.787  17.744  0.00  0.00    +0.000 OA
ENDBRANCH   1   2
BRANCH   1  16
ATOM     16  C   UNL     1       5.523   6.664  16.247  0.00  0.00    +0.000 C 
ATOM     17  O   UNL     1       4.844   7.400  15.544  0.00  0.00    +0.000 OA
BRANCH  16  18
ATOM     18  O   UNL     1       6.415   5.745  15.777  0.00  0.00    +0.000 OA
BRANCH  18  20
ATOM     19  C   UNL     1       5.974   3.376  15.619  0.00  0.00    +0.000 C 
ATOM     20  C   UNL     1       5.893   4.729  14.901  0.00  0.00    +0.000 C 
BRANCH  20  21
ATOM     21  C   UNL     1       6.736   4.664  13.622  0.00  0.00    +0.000 C 
ATOM     22  O   UNL     1       7.636   5.462  13.378  0.00  0.00    +0.000 OA
BRANCH  21  23
ATOM     23  C   UNL     1       6.484   3.581  12.617  0.00  0.00    +0.000 A 
ATOM     24  C   UNL     1       5.148   3.329  12.263  0.00  0.00    +0.000 A 
ATOM     25  C   UNL     1       4.839   2.350  11.318  0.00  0.00    +0.000 A 
ATOM     26  C   UNL     1       5.866   1.628  10.710  0.00  0.00    +0.000 A 
ATOM     27  C   UNL     1       7.196   1.893  11.042  0.00  0.00    +0.000 A 
ATOM     28  C   UNL     1       7.508   2.867  11.996  0.00  0.00    +0.000 A 
ENDBRANCH  21  23
ENDBRANCH  20  21
ENDBRANCH  18  20
ENDBRANCH  16  18
ENDBRANCH   1  16
TORSDOF 6
ENDMDL
MODEL 2
REMARK VINA RESULT:      -8.7      0.384      2.219
REMARK  Name = 
REMARK  7 active torsions:
REMARK  status: ('A' for Active; 'I' for Inactive)
REMARK    1  A    between atoms: C_1  and  C_2
REMARK    2  A    between atoms: C_2  and  O_3
REMARK    3  A    between atoms: C_2  and  C_21
REMARK    4  A    between atoms: O_3  and  C_4
REMARK    5  A    between atoms: C_4  and  C_6
REMARK    6  A    between atoms: C_6  and  N_7
REMARK    7  A    between atoms: C_21  and  C_23
REMARK                            x       y       z     vdW  Elec       q    Type
REMARK                         _______ _______ _______ _____ _____    ______ ____
ROOT
ATOM      1  C   UNL     1       5.786   6.749  17.696  0.00  0.00    +0.000 C 
ENDROOT
BRANCH   1   2
ATOM      2  N   UNL     1       4.836   5.830  18.289  0.00  0.00    +0.000 N 
ATOM      3  C   UNL     1       3.494   6.158  18.447  0.00  0.00    +0.000 C 
ATOM      4  O   UNL     1       2.924   7.169  18.079  0.00  0.00    +0.000 OA
ATOM      5  C   UNL     1       2.955   5.106  19.359  0.00  0.00    +0.000 C 
ATOM      6  C   UNL     1       1.520   4.593  19.574  0.00  0.00    +0.000 C 
ATOM      7  C   UNL     1       1.697   3.974  20.975  0.00  0.00    +0.000 C 
ATOM      8  C   UNL     1       2.666   3.029  21.032  0.00  0.00    +0.000 C 
ATOM      9  C   UNL     1       3.297   2.657  19.677  0.00  0.00    +0.000 C 
ATOM     10  C   UNL     1       2.137   2.238  18.721  0.00  0.00    +0.000 C 
ATOM     11  C   UNL     1       0.661   2.096  19.024  0.00  0.00    +0.000 C 
ATOM     12  C   UNL     1       1.184   3.443  18.577  0.00  0.00    +0.000 C 
ATOM     13  C   UNL     1       3.811   3.916  18.930  0.00  0.00    +0.000 C 
ATOM     14  C   UNL     1       5.148   4.577  18.810  0.00  0.00    +0.000 C 
ATOM     15  O   UNL     1       6.242   4.080  18.994  0.00  0.00    +0.000 OA
ENDBRANCH   1   2
BRANCH   1  16
ATOM     16  C   UNL     1       5.640   6.702  16.177  0.00  0.00    +0.000 C 
ATOM     17  O   UNL     1       4.874   7.408  15.535  0.00  0.00    +0.000 OA
BRANCH  16  18
ATOM     18  O   UNL     1       6.524   5.819  15.633  0.00  0.00    +0.000 OA
BRANCH  18  20
ATOM     19  C   UNL     1       6.059   3.450  15.551  0.00  0.00    +0.000 C 
ATOM     20  C   UNL     1       5.972   4.784  14.798  0.00  0.00    +0.000 C 
BRANCH  20  21
ATOM     21  C   UNL     1       6.783   4.676  13.502  0.00  0.00    +0.000 C 
ATOM     22  O   UNL     1       7.702   5.441  13.227  0.00  0.00    +0.000 OA
BRANCH  21  23
ATOM     23  C   UNL     1       6.472   3.590  12.517  0.00  0.00    +0.000 A 
ATOM     24  C   UNL     1       7.558   2.896  11.957  0.00  0.00    +0.000 A 
ATOM     25  C   UNL     1       7.344   1.859  11.050  0.00  0.00    +0.000 A 
ATOM     26  C   UNL     1       6.041   1.499  10.706  0.00  0.00    +0.000 A 
ATOM     27  C   UNL     1       4.959   2.171  11.278  0.00  0.00    +0.000 A 
ATOM     28  C   UNL     1       5.171   3.217  12.181  0.00  0.00    +0.000 A 
ENDBRANCH  21  23
ENDBRANCH  20  21
ENDBRANCH  18  20
ENDBRANCH  16  18
ENDBRANCH   1  16
TORSDOF 6
ENDMDL
MODEL 3
REMARK VINA RESULT:      -8.7      1.026      2.489
REMARK  Name = 
REMARK  7 active torsions:
REMARK  status: ('A' for Active; 'I' for Inactive)
REMARK    1  A    between atoms: C_1  and  C_2
REMARK    2  A    between atoms: C_2  and  O_3
REMARK    3  A    between atoms: C_2  and  C_21
REMARK    4  A    between atoms: O_3  and  C_4
REMARK    5  A    between atoms: C_4  and  C_6
REMARK    6  A    between atoms: C_6  and  N_7
REMARK    7  A    between atoms: C_21  and  C_23
REMARK                            x       y       z     vdW  Elec       q    Type
REMARK                         _______ _______ _______ _____ _____    ______ ____
ROOT
ATOM      1  C   UNL     1       6.811   6.425  17.784  0.00  0.00    +0.000 C 
ENDROOT
BRANCH   1   2
ATOM      2  N   UNL     1       5.593   5.821  18.285  0.00  0.00    +0.000 N 
ATOM      3  C   UNL     1       4.341   6.157  17.780  0.00  0.00    +0.000 C 
ATOM      4  O   UNL     1       4.087   6.906  16.854  0.00  0.00    +0.000 OA
ATOM      5  C   UNL     1       3.373   5.576  18.756  0.00  0.00    +0.000 C 
ATOM      6  C   UNL     1       1.897   5.171  18.596  0.00  0.00    +0.000 C 
ATOM      7  C   UNL     1       1.480   5.204  20.080  0.00  0.00    +0.000 C 
ATOM      8  C   UNL     1       2.223   4.391  20.870  0.00  0.00    +0.000 C 
ATOM      9  C   UNL     1       3.231   3.496  20.124  0.00  0.00    +0.000 C 
ATOM     10  C   UNL     1       2.434   2.690  19.052  0.00  0.00    +0.000 C 
ATOM     11  C   UNL     1       0.941   2.657  18.803  0.00  0.00    +0.000 C 
ATOM     12  C   UNL     1       1.773   3.701  18.092  0.00  0.00    +0.000 C 
ATOM     13  C   UNL     1       4.147   4.334  19.194  0.00  0.00    +0.000 C 
ATOM     14  C   UNL     1       5.520   4.911  19.336  0.00  0.00    +0.000 C 
ATOM     15  O   UNL     1       6.397   4.561  20.101  0.00  0.00    +0.000 OA
ENDBRANCH   1   2
BRANCH   1  16
ATOM     16  C   UNL     1       7.417   5.509  16.724  0.00  0.00    +0.000 C 
ATOM     17  O   UNL     1       8.027   4.477  16.970  0.00  0.00    +0.000 OA
BRANCH  16  18
ATOM     18  O   UNL     1       7.127   5.962  15.470  0.00  0.00    +0.000 OA
BRANCH  18  20
ATOM     19  C   UNL     1       6.079   3.787  15.394  0.00  0.00    +0.000 C 
ATOM     20  C   UNL     1       6.303   5.112  14.652  0.00  0.00    +0.000 C 
BRANCH  20  21
ATOM     21  C   UNL     1       7.012   4.823  13.324  0.00  0.00    +0.000 C 
ATOM     22  O   UNL     1       7.975   5.474  12.930  0.00  0.00    +0.000 OA
BRANCH  21  23
ATOM     23  C   UNL     1       6.542   3.694  12.457  0.00  0.00    +0.000 A 
ATOM     24  C   UNL     1       7.518   2.819  11.952  0.00  0.00    +0.000 A 
ATOM     25  C   UNL     1       7.152   1.735  11.156  0.00  0.00    +0.000 A 
ATOM     26  C   UNL     1       5.805   1.510  10.871  0.00  0.00    +0.000 A 
ATOM     27  C   UNL     1       4.831   2.364  11.391  0.00  0.00    +0.000 A 
ATOM     28  C   UNL     1       5.195   3.458  12.182  0.00  0.00    +0.000 A 
ENDBRANCH  21  23
ENDBRANCH  20  21
ENDBRANCH  18  20
ENDBRANCH  16  18
ENDBRANCH   1  16
TORSDOF 6
ENDMDL
MODEL 4
REMARK VINA RESULT:      -8.5      0.837      2.213
REMARK  Name = 
REMARK  7 active torsions:
REMARK  status: ('A' for Active; 'I' for Inactive)
REMARK    1  A    between atoms: C_1  and  C_2
REMARK    2  A    between atoms: C_2  and  O_3
REMARK    3  A    between atoms: C_2  and  C_21
REMARK    4  A    between atoms: O_3  and  C_4
REMARK    5  A    between atoms: C_4  and  C_6
REMARK    6  A    between atoms: C_6  and  N_7
REMARK    7  A    between atoms: C_21  and  C_23
REMARK                            x       y       z     vdW  Elec       q    Type
REMARK                         _______ _______ _______ _____ _____    ______ ____
ROOT
ATOM      1  C   UNL     1       6.133   6.744  17.739  0.00  0.00    +0.000 C 
ENDROOT
BRANCH   1   2
ATOM      2  N   UNL     1       5.064   5.939  18.295  0.00  0.00    +0.000 N 
ATOM      3  C   UNL     1       3.727   6.186  18.001  0.00  0.00    +0.000 C 
ATOM      4  O   UNL     1       3.272   7.013  17.232  0.00  0.00    +0.000 OA
ATOM      5  C   UNL     1       2.967   5.371  18.995  0.00  0.00    +0.000 C 
ATOM      6  C   UNL     1       1.531   4.817  18.962  0.00  0.00    +0.000 C 
ATOM      7  C   UNL     1       1.324   4.607  20.475  0.00  0.00    +0.000 C 
ATOM      8  C   UNL     1       2.247   3.792  21.041  0.00  0.00    +0.000 C 
ATOM      9  C   UNL     1       3.227   3.129  20.055  0.00  0.00    +0.000 C 
ATOM     10  C   UNL     1       2.375   2.379  18.984  0.00  0.00    +0.000 C 
ATOM     11  C   UNL     1       0.873   2.201  18.919  0.00  0.00    +0.000 C 
ATOM     12  C   UNL     1       1.489   3.421  18.269  0.00  0.00    +0.000 C 
ATOM     13  C   UNL     1       3.916   4.184  19.150  0.00  0.00    +0.000 C 
ATOM     14  C   UNL     1       5.230   4.898  19.204  0.00  0.00    +0.000 C 
ATOM     15  O   UNL     1       6.236   4.558  19.796  0.00  0.00    +0.000 OA
ENDBRANCH   1   2
BRANCH   1  16
ATOM     16  C   UNL     1       6.876   5.923  16.689  0.00  0.00    +0.000 C 
ATOM     17  O   UNL     1       7.755   5.111  16.942  0.00  0.00    +0.000 OA
BRANCH  16  18
ATOM     18  O   UNL     1       6.380   6.169  15.443  0.00  0.00    +0.000 OA
BRANCH  18  20
ATOM     19  C   UNL     1       5.744   3.854  15.710  0.00  0.00    +0.000 C 
ATOM     20  C   UNL     1       5.783   5.054  14.754  0.00  0.00    +0.000 C 
BRANCH  20  21
ATOM     21  C   UNL     1       6.629   4.687  13.530  0.00  0.00    +0.000 C 
ATOM     22  O   UNL     1       7.711   5.214  13.288  0.00  0.00    +0.000 OA
BRANCH  21  23
ATOM     23  C   UNL     1       6.147   3.633  12.580  0.00  0.00    +0.000 A 
ATOM     24  C   UNL     1       4.799   3.682  12.191  0.00  0.00    +0.000 A 
ATOM     25  C   UNL     1       4.286   2.746  11.294  0.00  0.00    +0.000 A 
ATOM     26  C   UNL     1       5.123   1.764  10.766  0.00  0.00    +0.000 A 
ATOM     27  C   UNL     1       6.470   1.726  11.132  0.00  0.00    +0.000 A 
ATOM     28  C   UNL     1       6.984   2.657  12.040  0.00  0.00    +0.000 A 
ENDBRANCH  21  23
ENDBRANCH  20  21
ENDBRANCH  18  20
ENDBRANCH  16  18
ENDBRANCH   1  16
TORSDOF 6
ENDMDL
MODEL 5
REMARK VINA RESULT:      -8.3      0.706      1.162
REMARK  Name = 
REMARK  7 active torsions:
REMARK  status: ('A' for Active; 'I' for Inactive)
REMARK    1  A    between atoms: C_1  and  C_2
REMARK    2  A    between atoms: C_2  and  O_3
REMARK    3  A    between atoms: C_2  and  C_21
REMARK    4  A    between atoms: O_3  and  C_4
REMARK    5  A    between atoms: C_4  and  C_6
REMARK    6  A    between atoms: C_6  and  N_7
REMARK    7  A    between atoms: C_21  and  C_23
REMARK                            x       y       z     vdW  Elec       q    Type
REMARK                         _______ _______ _______ _____ _____    ______ ____
ROOT
ATOM      1  C   UNL     1       5.338   6.376  17.715  0.00  0.00    +0.000 C 
ENDROOT
BRANCH   1   2
ATOM      2  N   UNL     1       4.378   5.459  18.295  0.00  0.00    +0.000 N 
ATOM      3  C   UNL     1       4.764   4.247  18.859  0.00  0.00    +0.000 C 
ATOM      4  O   UNL     1       5.895   3.821  19.009  0.00  0.00    +0.000 OA
ATOM      5  C   UNL     1       3.489   3.492  19.036  0.00  0.00    +0.000 C 
ATOM      6  C   UNL     1       3.122   2.336  19.984  0.00  0.00    +0.000 C 
ATOM      7  C   UNL     1       1.912   1.772  19.214  0.00  0.00    +0.000 C 
ATOM      8  C   UNL     1       0.931   2.683  19.002  0.00  0.00    +0.000 C 
ATOM      9  C   UNL     1       1.147   4.047  19.684  0.00  0.00    +0.000 C 
ATOM     10  C   UNL     1       1.365   3.778  21.206  0.00  0.00    +0.000 C 
ATOM     11  C   UNL     1       1.289   2.467  21.959  0.00  0.00    +0.000 C 
ATOM     12  C   UNL     1       2.612   2.881  21.354  0.00  0.00    +0.000 C 
ATOM     13  C   UNL     1       2.531   4.647  19.322  0.00  0.00    +0.000 C 
ATOM     14  C   UNL     1       2.998   5.640  18.306  0.00  0.00    +0.000 C 
ATOM     15  O   UNL     1       2.337   6.488  17.738  0.00  0.00    +0.000 OA
ENDBRANCH   1   2
BRANCH   1  16
ATOM     16  C   UNL     1       5.303   6.234  16.195  0.00  0.00    +0.000 C 
ATOM     17  O   UNL     1       5.365   7.173  15.413  0.00  0.00    +0.000 OA
BRANCH  16  18
ATOM     18  O   UNL     1       5.263   4.920  15.833  0.00  0.00    +0.000 OA
BRANCH  18  20
ATOM     19  C   UNL     1       7.606   4.904  16.420  0.00  0.00    +0.000 C 
ATOM     20  C   UNL     1       6.522   4.300  15.516  0.00  0.00    +0.000 C 
BRANCH  20  21
ATOM     21  C   UNL     1       6.884   4.578  14.053  0.00  0.00    +0.000 C 
ATOM     22  O   UNL     1       7.723   5.411  13.723  0.00  0.00    +0.000 OA
BRANCH  21  23
ATOM     23  C   UNL     1       6.213   3.804  12.959  0.00  0.00    +0.000 A 
ATOM     24  C   UNL     1       7.007   2.912  12.219  0.00  0.00    +0.000 A 
ATOM     25  C   UNL     1       6.447   2.144  11.199  0.00  0.00    +0.000 A 
ATOM     26  C   UNL     1       5.084   2.251  10.923  0.00  0.00    +0.000 A 
ATOM     27  C   UNL     1       4.287   3.119  11.672  0.00  0.00    +0.000 A 
ATOM     28  C   UNL     1       4.849   3.898  12.688  0.00  0.00    +0.000 A 
ENDBRANCH  21  23
ENDBRANCH  20  21
ENDBRANCH  18  20
ENDBRANCH  16  18
ENDBRANCH   1  16
TORSDOF 6
ENDMDL
MODEL 6
REMARK VINA RESULT:      -8.3      0.827      1.430
REMARK  Name = 
REMARK  7 active torsions:
REMARK  status: ('A' for Active; 'I' for Inactive)
REMARK    1  A    between atoms: C_1  and  C_2
REMARK    2  A    between atoms: C_2  and  O_3
REMARK    3  A    between atoms: C_2  and  C_21
REMARK    4  A    between atoms: O_3  and  C_4
REMARK    5  A    between atoms: C_4  and  C_6
REMARK    6  A    between atoms: C_6  and  N_7
REMARK    7  A    between atoms: C_21  and  C_23
REMARK                            x       y       z     vdW  Elec       q    Type
REMARK                         _______ _______ _______ _____ _____    ______ ____
ROOT
ATOM      1  C   UNL     1       6.474   6.211  18.014  0.00  0.00    +0.000 C 
ENDROOT
BRANCH   1   2
ATOM      2  N   UNL     1       5.291   5.453  18.368  0.00  0.00    +0.000 N 
ATOM      3  C   UNL     1       5.362   4.279  19.111  0.00  0.00    +0.000 C 
ATOM      4  O   UNL     1       6.349   3.770  19.608  0.00  0.00    +0.000 OA
ATOM      5  C   UNL     1       4.007   3.667  18.976  0.00  0.00    +0.000 C 
ATOM      6  C   UNL     1       3.260   2.659  19.869  0.00  0.00    +0.000 C 
ATOM      7  C   UNL     1       2.250   2.128  18.832  0.00  0.00    +0.000 C 
ATOM      8  C   UNL     1       1.479   3.097  18.281  0.00  0.00    +0.000 C 
ATOM      9  C   UNL     1       1.659   4.501  18.888  0.00  0.00    +0.000 C 
ATOM     10  C   UNL     1       1.419   4.378  20.425  0.00  0.00    +0.000 C 
ATOM     11  C   UNL     1       0.985   3.169  21.225  0.00  0.00    +0.000 C 
ATOM     12  C   UNL     1       2.463   3.392  20.990  0.00  0.00    +0.000 C 
ATOM     13  C   UNL     1       3.150   4.929  18.888  0.00  0.00    +0.000 C 
ATOM     14  C   UNL     1       3.991   5.759  17.972  0.00  0.00    +0.000 C 
ATOM     15  O   UNL     1       3.616   6.598  17.176  0.00  0.00    +0.000 OA
ENDBRANCH   1   2
BRANCH   1  16
ATOM     16  C   UNL     1       7.204   5.490  16.884  0.00  0.00    +0.000 C 
ATOM     17  O   UNL     1       7.974   4.554  17.046  0.00  0.00    +0.000 OA
BRANCH  16  18
ATOM     18  O   UNL     1       6.828   5.987  15.671  0.00  0.00    +0.000 OA
BRANCH  18  20
ATOM     19  C   UNL     1       5.924   3.752  15.526  0.00  0.00    +0.000 C 
ATOM     20  C   UNL     1       6.114   5.091  14.800  0.00  0.00    +0.000 C 
BRANCH  20  21
ATOM     21  C   UNL     1       6.926   4.852  13.522  0.00  0.00    +0.000 C 
ATOM     22  O   UNL     1       7.916   5.516  13.231  0.00  0.00    +0.000 OA
BRANCH  21  23
ATOM     23  C   UNL     1       6.528   3.758  12.579  0.00  0.00    +0.000 A 
ATOM     24  C   UNL     1       7.559   3.028  11.965  0.00  0.00    +0.000 A 
ATOM     25  C   UNL     1       7.263   1.982  11.091  0.00  0.00    +0.000 A 
ATOM     26  C   UNL     1       5.933   1.649  10.837  0.00  0.00    +0.000 A 
ATOM     27  C   UNL     1       4.905   2.357  11.464  0.00  0.00    +0.000 A 
ATOM     28  C   UNL     1       5.199   3.412  12.333  0.00  0.00    +0.000 A 
ENDBRANCH  21  23
ENDBRANCH  20  21
ENDBRANCH  18  20
ENDBRANCH  16  18
ENDBRANCH   1  16
TORSDOF 6
ENDMDL
MODEL 7
REMARK VINA RESULT:      -8.1      1.235      1.692
REMARK  Name = 
REMARK  7 active torsions:
REMARK  status: ('A' for Active; 'I' for Inactive)
REMARK    1  A    between atoms: C_1  and  C_2
REMARK    2  A    between atoms: C_2  and  O_3
REMARK    3  A    between atoms: C_2  and  C_21
REMARK    4  A    between atoms: O_3  and  C_4
REMARK    5  A    between atoms: C_4  and  C_6
REMARK    6  A    between atoms: C_6  and  N_7
REMARK    7  A    between atoms: C_21  and  C_23
REMARK                            x       y       z     vdW  Elec       q    Type
REMARK                         _______ _______ _______ _____ _____    ______ ____
ROOT
ATOM      1  C   UNL     1       4.262   6.849  16.743  0.00  0.00    +0.000 C 
ENDROOT
BRANCH   1   2
ATOM      2  N   UNL     1       3.556   5.983  17.665  0.00  0.00    +0.000 N 
ATOM      3  C   UNL     1       3.509   4.603  17.492  0.00  0.00    +0.000 C 
ATOM      4  O   UNL     1       4.069   3.939  16.639  0.00  0.00    +0.000 OA
ATOM      5  C   UNL     1       2.450   4.142  18.438  0.00  0.00    +0.000 C 
ATOM      6  C   UNL     1       2.205   2.768  19.088  0.00  0.00    +0.000 C 
ATOM      7  C   UNL     1       0.713   2.934  19.437  0.00  0.00    +0.000 C 
ATOM      8  C   UNL     1       0.455   4.005  20.227  0.00  0.00    +0.000 C 
ATOM      9  C   UNL     1       1.700   4.757  20.735  0.00  0.00    +0.000 C 
ATOM     10  C   UNL     1       2.613   3.716  21.453  0.00  0.00    +0.000 C 
ATOM     11  C   UNL     1       2.348   2.252  21.732  0.00  0.00    +0.000 C 
ATOM     12  C   UNL     1       3.001   2.634  20.422  0.00  0.00    +0.000 C 
ATOM     13  C   UNL     1       2.633   5.159  19.562  0.00  0.00    +0.000 C 
ATOM     14  C   UNL     1       2.814   6.411  18.763  0.00  0.00    +0.000 C 
ATOM     15  O   UNL     1       2.505   7.544  19.077  0.00  0.00    +0.000 OA
ENDBRANCH   1   2
BRANCH   1  16
ATOM     16  C   UNL     1       5.759   6.756  17.024  0.00  0.00    +0.000 C 
ATOM     17  O   UNL     1       6.261   6.852  18.136  0.00  0.00    +0.000 OA
BRANCH  16  18
ATOM     18  O   UNL     1       6.450   6.483  15.880  0.00  0.00    +0.000 OA
BRANCH  18  20
ATOM     19  C   UNL     1       7.571   4.439  16.510  0.00  0.00    +0.000 C 
ATOM     20  C   UNL     1       6.592   5.095  15.527  0.00  0.00    +0.000 C 
BRANCH  20  21
ATOM     21  C   UNL     1       7.159   4.975  14.108  0.00  0.00    +0.000 C 
ATOM     22  O   UNL     1       8.164   5.577  13.741  0.00  0.00    +0.000 OA
BRANCH  21  23
ATOM     23  C   UNL     1       6.488   4.081  13.110  0.00  0.00    +0.000 A 
ATOM     24  C   UNL     1       7.315   3.321  12.267  0.00  0.00    +0.000 A 
ATOM     25  C   UNL     1       6.760   2.451  11.328  0.00  0.00    +0.000 A 
ATOM     26  C   UNL     1       5.375   2.324  11.237  0.00  0.00    +0.000 A 
ATOM     27  C   UNL     1       4.550   3.061  12.090  0.00  0.00    +0.000 A 
ATOM     28  C   UNL     1       5.103   3.941  13.026  0.00  0.00    +0.000 A 
ENDBRANCH  21  23
ENDBRANCH  20  21
ENDBRANCH  18  20
ENDBRANCH  16  18
ENDBRANCH   1  16
TORSDOF 6
ENDMDL
MODEL 8
REMARK VINA RESULT:      -8.1      0.710      2.125
REMARK  Name = 
REMARK  7 active torsions:
REMARK  status: ('A' for Active; 'I' for Inactive)
REMARK    1  A    between atoms: C_1  and  C_2
REMARK    2  A    between atoms: C_2  and  O_3
REMARK    3  A    between atoms: C_2  and  C_21
REMARK    4  A    between atoms: O_3  and  C_4
REMARK    5  A    between atoms: C_4  and  C_6
REMARK    6  A    between atoms: C_6  and  N_7
REMARK    7  A    between atoms: C_21  and  C_23
REMARK                            x       y       z     vdW  Elec       q    Type
REMARK                         _______ _______ _______ _____ _____    ______ ____
ROOT
ATOM      1  C   UNL     1       5.467   6.455  17.512  0.00  0.00    +0.000 C 
ENDROOT
BRANCH   1   2
ATOM      2  N   UNL     1       4.555   5.579  18.218  0.00  0.00    +0.000 N 
ATOM      3  C   UNL     1       3.204   5.877  18.358  0.00  0.00    +0.000 C 
ATOM      4  O   UNL     1       2.596   6.820  17.885  0.00  0.00    +0.000 OA
ATOM      5  C   UNL     1       2.712   4.919  19.390  0.00  0.00    +0.000 C 
ATOM      6  C   UNL     1       1.297   4.386  19.683  0.00  0.00    +0.000 C 
ATOM      7  C   UNL     1       1.510   3.937  21.142  0.00  0.00    +0.000 C 
ATOM      8  C   UNL     1       2.511   3.037  21.292  0.00  0.00    +0.000 C 
ATOM      9  C   UNL     1       3.141   2.534  19.979  0.00  0.00    +0.000 C 
ATOM     10  C   UNL     1       1.987   1.971  19.093  0.00  0.00    +0.000 C 
ATOM     11  C   UNL     1       0.520   1.815  19.431  0.00  0.00    +0.000 C 
ATOM     12  C   UNL     1       0.991   3.119  18.826  0.00  0.00    +0.000 C 
ATOM     13  C   UNL     1       3.604   3.716  19.087  0.00  0.00    +0.000 C 
ATOM     14  C   UNL     1       4.915   4.404  18.874  0.00  0.00    +0.000 C 
ATOM     15  O   UNL     1       6.028   3.967  19.097  0.00  0.00    +0.000 OA
ENDBRANCH   1   2
BRANCH   1  16
ATOM     16  C   UNL     1       5.284   6.254  16.010  0.00  0.00    +0.000 C 
ATOM     17  O   UNL     1       5.249   7.162  15.190  0.00  0.00    +0.000 OA
BRANCH  16  18
ATOM     18  O   UNL     1       5.234   4.926  15.703  0.00  0.00    +0.000 OA
BRANCH  18  20
ATOM     19  C   UNL     1       7.597   4.929  16.202  0.00  0.00    +0.000 C 
ATOM     20  C   UNL     1       6.482   4.296  15.359  0.00  0.00    +0.000 C 
BRANCH  20  21
ATOM     21  C   UNL     1       6.789   4.527  13.876  0.00  0.00    +0.000 C 
ATOM     22  O   UNL     1       7.565   5.394  13.485  0.00  0.00    +0.000 OA
BRANCH  21  23
ATOM     23  C   UNL     1       6.142   3.662  12.837  0.00  0.00    +0.000 A 
ATOM     24  C   UNL     1       4.814   3.957  12.488  0.00  0.00    +0.000 A 
ATOM     25  C   UNL     1       4.155   3.208  11.514  0.00  0.00    +0.000 A 
ATOM     26  C   UNL     1       4.826   2.168  10.871  0.00  0.00    +0.000 A 
ATOM     27  C   UNL     1       6.153   1.886  11.198  0.00  0.00    +0.000 A 
ATOM     28  C   UNL     1       6.813   2.630  12.182  0.00  0.00    +0.000 A 
ENDBRANCH  21  23
ENDBRANCH  20  21
ENDBRANCH  18  20
ENDBRANCH  16  18
ENDBRANCH   1  16
TORSDOF 6
ENDMDL
MODEL 9
REMARK VINA RESULT:      -8.1      1.250      2.718
REMARK  Name = 
REMARK  7 active torsions:
REMARK  status: ('A' for Active; 'I' for Inactive)
REMARK    1  A    between atoms: C_1  and  C_2
REMARK    2  A    between atoms: C_2  and  O_3
REMARK    3  A    between atoms: C_2  and  C_21
REMARK    4  A    between atoms: O_3  and  C_4
REMARK    5  A    between atoms: C_4  and  C_6
REMARK    6  A    between atoms: C_6  and  N_7
REMARK    7  A    between atoms: C_21  and  C_23
REMARK                            x       y       z     vdW  Elec       q    Type
REMARK                         _______ _______ _______ _____ _____    ______ ____
ROOT
ATOM      1  C   UNL     1       6.795   6.486  17.661  0.00  0.00    +0.000 C 
ENDROOT
BRANCH   1   2
ATOM      2  N   UNL     1       5.592   5.905  18.221  0.00  0.00    +0.000 N 
ATOM      3  C   UNL     1       4.327   6.221  17.736  0.00  0.00    +0.000 C 
ATOM      4  O   UNL     1       4.047   6.931  16.788  0.00  0.00    +0.000 OA
ATOM      5  C   UNL     1       3.386   5.682  18.763  0.00  0.00    +0.000 C 
ATOM      6  C   UNL     1       1.905   5.274  18.661  0.00  0.00    +0.000 C 
ATOM      7  C   UNL     1       1.530   5.369  20.153  0.00  0.00    +0.000 C 
ATOM      8  C   UNL     1       2.294   4.589  20.956  0.00  0.00    +0.000 C 
ATOM      9  C   UNL     1       3.281   3.662  20.220  0.00  0.00    +0.000 C 
ATOM     10  C   UNL     1       2.455   2.812  19.205  0.00  0.00    +0.000 C 
ATOM     11  C   UNL     1       0.956   2.771  19.000  0.00  0.00    +0.000 C 
ATOM     12  C   UNL     1       1.768   3.784  18.222  0.00  0.00    +0.000 C 
ATOM     13  C   UNL     1       4.172   4.459  19.231  0.00  0.00    +0.000 C 
ATOM     14  C   UNL     1       5.548   5.040  19.311  0.00  0.00    +0.000 C 
ATOM     15  O   UNL     1       6.446   4.721  20.066  0.00  0.00    +0.000 OA
ENDBRANCH   1   2
BRANCH   1  16
ATOM     16  C   UNL     1       7.434   5.479  16.708  0.00  0.00    +0.000 C 
ATOM     17  O   UNL     1       7.989   4.448  17.063  0.00  0.00    +0.000 OA
BRANCH  16  18
ATOM     18  O   UNL     1       7.240   5.851  15.410  0.00  0.00    +0.000 OA
BRANCH  18  20
ATOM     19  C   UNL     1       7.766   5.402  13.096  0.00  0.00    +0.000 C 
ATOM     20  C   UNL     1       7.287   4.803  14.425  0.00  0.00    +0.000 C 
BRANCH  20  21
ATOM     21  C   UNL     1       5.886   4.213  14.227  0.00  0.00    +0.000 C 
ATOM     22  O   UNL     1       5.006   4.290  15.080  0.00  0.00    +0.000 OA
BRANCH  21  23
ATOM     23  C   UNL     1       5.542   3.523  12.942  0.00  0.00    +0.000 A 
ATOM     24  C   UNL     1       6.458   2.578  12.452  0.00  0.00    +0.000 A 
ATOM     25  C   UNL     1       6.194   1.881  11.273  0.00  0.00    +0.000 A 
ATOM     26  C   UNL     1       5.005   2.114  10.584  0.00  0.00    +0.000 A 
ATOM     27  C   UNL     1       4.081   3.036  11.080  0.00  0.00    +0.000 A 
ATOM     28  C   UNL     1       4.347   3.743  12.257  0.00  0.00    +0.000 A 
ENDBRANCH  21  23
ENDBRANCH  20  21
ENDBRANCH  18  20
ENDBRANCH  16  18
ENDBRANCH   1  16
TORSDOF 6
ENDMDL
