MODEL 1
REMARK VINA RESULT:      -8.5      0.000      0.000
REMARK  Name = 
REMARK  12 active torsions:
REMARK  status: ('A' for Active; 'I' for Inactive)
REMARK    1  A    between atoms: C_1  and  C_2
REMARK    2  A    between atoms: C_2  and  C_3
REMARK    3  A    between atoms: C_3  and  C_4
REMARK    4  A    between atoms: C_4  and  C_5
REMARK    5  A    between atoms: C_11  and  C_12
REMARK    6  A    between atoms: C_13  and  O_14
REMARK    7  A    between atoms: O_14  and  C_15
REMARK    8  A    between atoms: C_15  and  C_16
REMARK    9  A    between atoms: N_18  and  C_19
REMARK   10  A    between atoms: C_19  and  C_20
REMARK   11  A    between atoms: C_23  and  C_24
REMARK   12  A    between atoms: C_24  and  O_26
REMARK                            x       y       z     vdW  Elec       q    Type
REMARK                         _______ _______ _______ _____ _____    ______ ____
ROOT
ATOM      1  O   UNL     1       5.411   4.474  18.626  0.00  0.00    +0.000 OA
ENDROOT
BRANCH   1  10
ATOM      2  C   UNL     1       6.330   3.934  13.068  0.00  0.00    +0.000 A 
ATOM      3  C   UNL     1       7.382   4.609  12.592  0.00  0.00    +0.000 A 
ATOM      4  C   UNL     1       8.219   5.497  13.409  0.00  0.00    +0.000 A 
ATOM      5  O   UNL     1       9.200   6.058  12.932  0.00  0.00    +0.000 OA
ATOM      6  O   UNL     1       7.828   5.682  14.722  0.00  0.00    +0.000 OA
ATOM      7  C   UNL     1       6.776   4.936  15.292  0.00  0.00    +0.000 A 
ATOM      8  C   UNL     1       6.538   5.106  16.668  0.00  0.00    +0.000 A 
ATOM      9  C   UNL     1       7.288   6.131  17.477  0.00  0.00    +0.000 C 
ATOM     10  C   UNL     1       5.563   4.305  17.277  0.00  0.00    +0.000 A 
ATOM     11  C   UNL     1       4.824   3.402  16.512  0.00  0.00    +0.000 A 
ATOM     12  C   UNL     1       5.045   3.290  15.139  0.00  0.00    +0.000 A 
ATOM     13  C   UNL     1       6.032   4.043  14.507  0.00  0.00    +0.000 A 
BRANCH   2  14
ATOM     14  C   UNL     1       5.478   3.067  12.167  0.00  0.00    +0.000 C 
BRANCH  14  15
ATOM     15  C   UNL     1       4.190   3.786  11.751  0.00  0.00    +0.000 C 
BRANCH  15  17
ATOM     16  C   UNL     1       2.933   4.125   9.605  0.00  0.00    +0.000 C 
ATOM     17  C   UNL     1       3.509   3.097  10.568  0.00  0.00    +0.000 C 
ENDBRANCH  15  17
ENDBRANCH  14  15
ENDBRANCH   2  14
ENDBRANCH   1  10
BRANCH   1  18
ATOM     18  C   UNL     1       4.370   3.729  19.248  0.00  0.00    +0.000 C 
BRANCH  18  19
ATOM     19  C   UNL     1       3.099   4.550  19.317  0.00  0.00    +0.000 C 
ATOM     20  O   UNL     1       2.102   4.247  18.661  0.00  0.00    +0.000 OA
ATOM     21  N   UNL     1       3.149   5.635  20.160  0.00  0.00    +0.000 N 
ATOM     22  H   UNL     1       3.973   5.720  20.752  0.00  0.00    +0.000 HD
BRANCH  21  23
ATOM     23  C   UNL     1       1.972   6.402  20.451  0.00  0.00    +0.000 C 
BRANCH  23  24
ATOM     24  C   UNL     1       2.021   7.862  19.982  0.00  0.00    +0.000 C 
ATOM     25  C   UNL     1       1.907   8.102  18.463  0.00  0.00    +0.000 C 
ATOM     26  C   UNL     1       1.875   9.605  18.138  0.00  0.00    +0.000 C 
ATOM     27  C   UNL     1       0.778  10.346  18.917  0.00  0.00    +0.000 C 
ATOM     28  C   UNL     1       0.878  10.069  20.415  0.00  0.00    +0.000 C 
ATOM     29  C   UNL     1       0.868   8.580  20.694  0.00  0.00    +0.000 C 
BRANCH  27  30
ATOM     30  C   UNL     1       0.847  11.847  18.708  0.00  0.00    +0.000 C 
ATOM     31  O   UNL     1       0.114  12.663  19.242  0.00  0.00    +0.000 OA
BRANCH  30  32
ATOM     32  O   UNL     1       1.787  12.209  17.802  0.00  0.00    +0.000 OA
ATOM     33  H   UNL     1       1.940  11.548  17.099  0.00  0.00    +0.000 HD
ENDBRANCH  30  32
ENDBRANCH  27  30
ENDBRANCH  23  24
ENDBRANCH  21  23
ENDBRANCH  18  19
ENDBRANCH   1  18
TORSDOF 10
ENDMDL
MODEL 2
REMARK VINA RESULT:      -8.1      3.525      6.169
REMARK  Name = 
REMARK  12 active torsions:
REMARK  status: ('A' for Active; 'I' for Inactive)
REMARK    1  A    between atoms: C_1  and  C_2
REMARK    2  A    between atoms: C_2  and  C_3
REMARK    3  A    between atoms: C_3  and  C_4
REMARK    4  A    between atoms: C_4  and  C_5
REMARK    5  A    between atoms: C_11  and  C_12
REMARK    6  A    between atoms: C_13  and  O_14
REMARK    7  A    between atoms: O_14  and  C_15
REMARK    8  A    between atoms: C_15  and  C_16
REMARK    9  A    between atoms: N_18  and  C_19
REMARK   10  A    between atoms: C_19  and  C_20
REMARK   11  A    between atoms: C_23  and  C_24
REMARK   12  A    between atoms: C_24  and  O_26
REMARK                            x       y       z     vdW  Elec       q    Type
REMARK                         _______ _______ _______ _____ _____    ______ ____
ROOT
ATOM      1  O   UNL     1       1.100   7.281  20.720  0.00  0.00    +0.000 OA
ENDROOT
BRANCH   1  10
ATOM      2  C   UNL     1       4.522   4.885  16.903  0.00  0.00    +0.000 A 
ATOM      3  C   UNL     1       4.538   3.547  16.907  0.00  0.00    +0.000 A 
ATOM      4  C   UNL     1       3.792   2.724  17.867  0.00  0.00    +0.000 A 
ATOM      5  O   UNL     1       3.806   1.500  17.798  0.00  0.00    +0.000 OA
ATOM      6  O   UNL     1       3.102   3.400  18.856  0.00  0.00    +0.000 OA
ATOM      7  C   UNL     1       2.989   4.805  18.850  0.00  0.00    +0.000 A 
ATOM      8  C   UNL     1       2.161   5.389  19.826  0.00  0.00    +0.000 A 
ATOM      9  C   UNL     1       1.519   4.565  20.911  0.00  0.00    +0.000 C 
ATOM     10  C   UNL     1       1.956   6.774  19.781  0.00  0.00    +0.000 A 
ATOM     11  C   UNL     1       2.604   7.545  18.815  0.00  0.00    +0.000 A 
ATOM     12  C   UNL     1       3.461   6.947  17.890  0.00  0.00    +0.000 A 
ATOM     13  C   UNL     1       3.658   5.568  17.882  0.00  0.00    +0.000 A 
BRANCH   2  14
ATOM     14  C   UNL     1       5.348   5.679  15.915  0.00  0.00    +0.000 C 
BRANCH  14  15
ATOM     15  C   UNL     1       6.839   5.635  16.267  0.00  0.00    +0.000 C 
BRANCH  15  17
ATOM     16  C   UNL     1       7.557   6.026  18.640  0.00  0.00    +0.000 C 
ATOM     17  C   UNL     1       7.208   6.686  17.314  0.00  0.00    +0.000 C 
ENDBRANCH  15  17
ENDBRANCH  14  15
ENDBRANCH   2  14
ENDBRANCH   1  10
BRANCH   1  18
ATOM     18  C   UNL     1       1.505   8.480  21.370  0.00  0.00    +0.000 C 
BRANCH  18  19
ATOM     19  C   UNL     1       0.568   9.617  21.017  0.00  0.00    +0.000 C 
ATOM     20  O   UNL     1      -0.227  10.074  21.838  0.00  0.00    +0.000 OA
ATOM     21  N   UNL     1       0.682  10.091  19.731  0.00  0.00    +0.000 N 
ATOM     22  H   UNL     1       1.458   9.733  19.176  0.00  0.00    +0.000 HD
BRANCH  21  23
ATOM     23  C   UNL     1      -0.020  11.268  19.309  0.00  0.00    +0.000 C 
BRANCH  23  24
ATOM     24  C   UNL     1      -1.549  11.132  19.278  0.00  0.00    +0.000 C 
ATOM     25  C   UNL     1      -2.359  12.415  19.550  0.00  0.00    +0.000 C 
ATOM     26  C   UNL     1      -3.869  12.162  19.397  0.00  0.00    +0.000 C 
ATOM     27  C   UNL     1      -4.220  11.542  18.037  0.00  0.00    +0.000 C 
ATOM     28  C   UNL     1      -3.383  10.294  17.763  0.00  0.00    +0.000 C 
ATOM     29  C   UNL     1      -1.903  10.596  17.886  0.00  0.00    +0.000 C 
BRANCH  27  30
ATOM     30  C   UNL     1      -5.685  11.156  17.949  0.00  0.00    +0.000 C 
ATOM     31  O   UNL     1      -6.207  10.240  18.564  0.00  0.00    +0.000 OA
BRANCH  30  32
ATOM     32  O   UNL     1      -6.372  11.904  17.054  0.00  0.00    +0.000 OA
ATOM     33  H   UNL     1      -6.084  12.836  17.007  0.00  0.00    +0.000 HD
ENDBRANCH  30  32
ENDBRANCH  27  30
ENDBRANCH  23  24
ENDBRANCH  21  23
ENDBRANCH  18  19
ENDBRANCH   1  18
TORSDOF 10
ENDMDL
MODEL 3
REMARK VINA RESULT:      -8.0      3.541      5.887
REMARK  Name = 
REMARK  12 active torsions:
REMARK  status: ('A' for Active; 'I' for Inactive)
REMARK    1  A    between atoms: C_1  and  C_2
REMARK    2  A    between atoms: C_2  and  C_3
REMARK    3  A    between atoms: C_3  and  C_4
REMARK    4  A    between atoms: C_4  and  C_5
REMARK    5  A    between atoms: C_11  and  C_12
REMARK    6  A    between atoms: C_13  and  O_14
REMARK    7  A    between atoms: O_14  and  C_15
REMARK    8  A    between atoms: C_15  and  C_16
REMARK    9  A    between atoms: N_18  and  C_19
REMARK   10  A    between atoms: C_19  and  C_20
REMARK   11  A    between atoms: C_23  and  C_24
REMARK   12  A    between atoms: C_24  and  O_26
REMARK                            x       y       z     vdW  Elec       q    Type
REMARK                         _______ _______ _______ _____ _____    ______ ____
ROOT
ATOM      1  O   UNL     1       1.159   7.402  20.730  0.00  0.00    +0.000 OA
ENDROOT
BRANCH   1  10
ATOM      2  C   UNL     1       4.499   4.932  16.887  0.00  0.00    +0.000 A 
ATOM      3  C   UNL     1       4.498   3.594  16.900  0.00  0.00    +0.000 A 
ATOM      4  C   UNL     1       3.752   2.789  17.876  0.00  0.00    +0.000 A 
ATOM      5  O   UNL     1       3.749   1.564  17.816  0.00  0.00    +0.000 OA
ATOM      6  O   UNL     1       3.084   3.481  18.869  0.00  0.00    +0.000 OA
ATOM      7  C   UNL     1       2.991   4.888  18.854  0.00  0.00    +0.000 A 
ATOM      8  C   UNL     1       2.183   5.490  19.836  0.00  0.00    +0.000 A 
ATOM      9  C   UNL     1       1.544   4.683  20.935  0.00  0.00    +0.000 C 
ATOM     10  C   UNL     1       1.996   6.877  19.783  0.00  0.00    +0.000 A 
ATOM     11  C   UNL     1       2.642   7.632  18.803  0.00  0.00    +0.000 A 
ATOM     12  C   UNL     1       3.479   7.016  17.872  0.00  0.00    +0.000 A 
ATOM     13  C   UNL     1       3.657   5.634  17.872  0.00  0.00    +0.000 A 
BRANCH   2  14
ATOM     14  C   UNL     1       5.323   5.708  15.883  0.00  0.00    +0.000 C 
BRANCH  14  15
ATOM     15  C   UNL     1       6.822   5.448  16.066  0.00  0.00    +0.000 C 
BRANCH  15  17
ATOM     16  C   UNL     1       7.372   7.466  17.455  0.00  0.00    +0.000 C 
ATOM     17  C   UNL     1       7.325   5.945  17.422  0.00  0.00    +0.000 C 
ENDBRANCH  15  17
ENDBRANCH  14  15
ENDBRANCH   2  14
ENDBRANCH   1  10
BRANCH   1  18
ATOM     18  C   UNL     1       1.692   8.438  21.548  0.00  0.00    +0.000 C 
BRANCH  18  19
ATOM     19  C   UNL     1       0.869   9.702  21.406  0.00  0.00    +0.000 C 
ATOM     20  O   UNL     1       0.089  10.063  22.287  0.00  0.00    +0.000 OA
ATOM     21  N   UNL     1       1.067  10.401  20.238  0.00  0.00    +0.000 N 
ATOM     22  H   UNL     1       1.828  10.087  19.638  0.00  0.00    +0.000 HD
BRANCH  21  23
ATOM     23  C   UNL     1       0.484  11.696  20.042  0.00  0.00    +0.000 C 
BRANCH  23  24
ATOM     24  C   UNL     1      -0.714  11.726  19.082  0.00  0.00    +0.000 C 
ATOM     25  C   UNL     1      -0.900  10.493  18.175  0.00  0.00    +0.000 C 
ATOM     26  C   UNL     1      -2.183  10.610  17.334  0.00  0.00    +0.000 C 
ATOM     27  C   UNL     1      -3.424  10.875  18.199  0.00  0.00    +0.000 C 
ATOM     28  C   UNL     1      -3.212  12.074  19.120  0.00  0.00    +0.000 C 
ATOM     29  C   UNL     1      -1.960  11.902  19.957  0.00  0.00    +0.000 C 
BRANCH  27  30
ATOM     30  C   UNL     1      -4.658  11.139  17.357  0.00  0.00    +0.000 C 
ATOM     31  O   UNL     1      -4.651  11.599  16.226  0.00  0.00    +0.000 OA
BRANCH  30  32
ATOM     32  O   UNL     1      -5.810  10.865  18.014  0.00  0.00    +0.000 OA
ATOM     33  H   UNL     1      -6.393  10.231  17.553  0.00  0.00    +0.000 HD
ENDBRANCH  30  32
ENDBRANCH  27  30
ENDBRANCH  23  24
ENDBRANCH  21  23
ENDBRANCH  18  19
ENDBRANCH   1  18
TORSDOF 10
ENDMDL
MODEL 4
REMARK VINA RESULT:      -8.0      4.402      6.938
REMARK  Name = 
REMARK  12 active torsions:
REMARK  status: ('A' for Active; 'I' for Inactive)
REMARK    1  A    between atoms: C_1  and  C_2
REMARK    2  A    between atoms: C_2  and  C_3
REMARK    3  A    between atoms: C_3  and  C_4
REMARK    4  A    between atoms: C_4  and  C_5
REMARK    5  A    between atoms: C_11  and  C_12
REMARK    6  A    between atoms: C_13  and  O_14
REMARK    7  A    between atoms: O_14  and  C_15
REMARK    8  A    between atoms: C_15  and  C_16
REMARK    9  A    between atoms: N_18  and  C_19
REMARK   10  A    between atoms: C_19  and  C_20
REMARK   11  A    between atoms: C_23  and  C_24
REMARK   12  A    between atoms: C_24  and  O_26
REMARK                            x       y       z     vdW  Elec       q    Type
REMARK                         _______ _______ _______ _____ _____    ______ ____
ROOT
ATOM      1  O   UNL     1       1.037   8.816  20.450  0.00  0.00    +0.000 OA
ENDROOT
BRANCH   1  10
ATOM      2  C   UNL     1       4.150   4.638  18.243  0.00  0.00    +0.000 A 
ATOM      3  C   UNL     1       4.840   4.956  17.141  0.00  0.00    +0.000 A 
ATOM      4  C   UNL     1       4.763   6.265  16.480  0.00  0.00    +0.000 A 
ATOM      5  O   UNL     1       5.452   6.520  15.498  0.00  0.00    +0.000 OA
ATOM      6  O   UNL     1       3.863   7.172  17.007  0.00  0.00    +0.000 OA
ATOM      7  C   UNL     1       3.171   6.915  18.208  0.00  0.00    +0.000 A 
ATOM      8  C   UNL     1       2.374   7.952  18.727  0.00  0.00    +0.000 A 
ATOM      9  C   UNL     1       2.165   9.239  17.973  0.00  0.00    +0.000 C 
ATOM     10  C   UNL     1       1.755   7.756  19.968  0.00  0.00    +0.000 A 
ATOM     11  C   UNL     1       1.896   6.538  20.634  0.00  0.00    +0.000 A 
ATOM     12  C   UNL     1       2.650   5.507  20.072  0.00  0.00    +0.000 A 
ATOM     13  C   UNL     1       3.311   5.681  18.858  0.00  0.00    +0.000 A 
BRANCH   2  14
ATOM     14  C   UNL     1       4.237   3.256  18.854  0.00  0.00    +0.000 C 
BRANCH  14  15
ATOM     15  C   UNL     1       3.242   2.290  18.202  0.00  0.00    +0.000 C 
BRANCH  15  17
ATOM     16  C   UNL     1       0.811   2.615  18.738  0.00  0.00    +0.000 C 
ATOM     17  C   UNL     1       2.101   1.921  19.151  0.00  0.00    +0.000 C 
ENDBRANCH  15  17
ENDBRANCH  14  15
ENDBRANCH   2  14
ENDBRANCH   1  10
BRANCH   1  18
ATOM     18  C   UNL     1       0.109   8.536  21.493  0.00  0.00    +0.000 C 
BRANCH  18  19
ATOM     19  C   UNL     1      -0.054   9.743  22.394  0.00  0.00    +0.000 C 
ATOM     20  O   UNL     1       0.372   9.746  23.548  0.00  0.00    +0.000 OA
ATOM     21  N   UNL     1      -0.700  10.815  21.823  0.00  0.00    +0.000 N 
ATOM     22  H   UNL     1      -0.895  10.757  20.825  0.00  0.00    +0.000 HD
BRANCH  21  23
ATOM     23  C   UNL     1      -0.778  12.078  22.499  0.00  0.00    +0.000 C 
BRANCH  23  24
ATOM     24  C   UNL     1      -2.175  12.450  23.014  0.00  0.00    +0.000 C 
ATOM     25  C   UNL     1      -2.277  13.735  23.861  0.00  0.00    +0.000 C 
ATOM     26  C   UNL     1      -3.738  14.040  24.233  0.00  0.00    +0.000 C 
ATOM     27  C   UNL     1      -4.653  14.094  23.001  0.00  0.00    +0.000 C 
ATOM     28  C   UNL     1      -4.514  12.833  22.150  0.00  0.00    +0.000 C 
ATOM     29  C   UNL     1      -3.066  12.589  21.775  0.00  0.00    +0.000 C 
BRANCH  27  30
ATOM     30  C   UNL     1      -6.114  14.246  23.384  0.00  0.00    +0.000 C 
ATOM     31  O   UNL     1      -6.925  14.938  22.790  0.00  0.00    +0.000 OA
BRANCH  30  32
ATOM     32  O   UNL     1      -6.434  13.571  24.513  0.00  0.00    +0.000 OA
ATOM     33  H   UNL     1      -7.252  13.042  24.445  0.00  0.00    +0.000 HD
ENDBRANCH  30  32
ENDBRANCH  27  30
ENDBRANCH  23  24
ENDBRANCH  21  23
ENDBRANCH  18  19
ENDBRANCH   1  18
TORSDOF 10
ENDMDL
MODEL 5
REMARK VINA RESULT:      -7.9      2.385     10.057
REMARK  Name = 
REMARK  12 active torsions:
REMARK  status: ('A' for Active; 'I' for Inactive)
REMARK    1  A    between atoms: C_1  and  C_2
REMARK    2  A    between atoms: C_2  and  C_3
REMARK    3  A    between atoms: C_3  and  C_4
REMARK    4  A    between atoms: C_4  and  C_5
REMARK    5  A    between atoms: C_11  and  C_12
REMARK    6  A    between atoms: C_13  and  O_14
REMARK    7  A    between atoms: O_14  and  C_15
REMARK    8  A    between atoms: C_15  and  C_16
REMARK    9  A    between atoms: N_18  and  C_19
REMARK   10  A    between atoms: C_19  and  C_20
REMARK   11  A    between atoms: C_23  and  C_24
REMARK   12  A    between atoms: C_24  and  O_26
REMARK                            x       y       z     vdW  Elec       q    Type
REMARK                         _______ _______ _______ _____ _____    ______ ____
ROOT
ATOM      1  O   UNL     1       2.163   7.138  19.838  0.00  0.00    +0.000 OA
ENDROOT
BRANCH   1  10
ATOM      2  C   UNL     1      -0.485  11.919  21.305  0.00  0.00    +0.000 A 
ATOM      3  C   UNL     1      -0.783  12.744  20.294  0.00  0.00    +0.000 A 
ATOM      4  C   UNL     1      -0.401  12.495  18.898  0.00  0.00    +0.000 A 
ATOM      5  O   UNL     1      -0.738  13.262  18.003  0.00  0.00    +0.000 OA
ATOM      6  O   UNL     1       0.374  11.375  18.659  0.00  0.00    +0.000 OA
ATOM      7  C   UNL     1       0.648  10.435  19.674  0.00  0.00    +0.000 A 
ATOM      8  C   UNL     1       1.337   9.267  19.300  0.00  0.00    +0.000 A 
ATOM      9  C   UNL     1       1.871   9.078  17.905  0.00  0.00    +0.000 C 
ATOM     10  C   UNL     1       1.536   8.275  20.269  0.00  0.00    +0.000 A 
ATOM     11  C   UNL     1       1.097   8.479  21.578  0.00  0.00    +0.000 A 
ATOM     12  C   UNL     1       0.463   9.670  21.934  0.00  0.00    +0.000 A 
ATOM     13  C   UNL     1       0.214  10.662  20.987  0.00  0.00    +0.000 A 
BRANCH   2  14
ATOM     14  C   UNL     1      -0.869  12.251  22.730  0.00  0.00    +0.000 C 
BRANCH  14  15
ATOM     15  C   UNL     1      -2.356  11.986  22.988  0.00  0.00    +0.000 C 
BRANCH  15  17
ATOM     16  C   UNL     1      -4.557  13.195  23.015  0.00  0.00    +0.000 C 
ATOM     17  C   UNL     1      -3.093  13.252  23.427  0.00  0.00    +0.000 C 
ENDBRANCH  15  17
ENDBRANCH  14  15
ENDBRANCH   2  14
ENDBRANCH   1  10
BRANCH   1  18
ATOM     18  C   UNL     1       1.682   5.906  20.366  0.00  0.00    +0.000 C 
BRANCH  18  19
ATOM     19  C   UNL     1       2.777   4.859  20.347  0.00  0.00    +0.000 C 
ATOM     20  O   UNL     1       2.559   3.695  20.684  0.00  0.00    +0.000 OA
ATOM     21  N   UNL     1       4.007   5.306  19.924  0.00  0.00    +0.000 N 
ATOM     22  H   UNL     1       4.047   6.250  19.544  0.00  0.00    +0.000 HD
BRANCH  21  23
ATOM     23  C   UNL     1       5.089   4.393  19.697  0.00  0.00    +0.000 C 
BRANCH  23  24
ATOM     24  C   UNL     1       5.462   4.187  18.222  0.00  0.00    +0.000 C 
ATOM     25  C   UNL     1       4.493   4.777  17.178  0.00  0.00    +0.000 C 
ATOM     26  C   UNL     1       5.030   4.584  15.750  0.00  0.00    +0.000 C 
ATOM     27  C   UNL     1       6.454   5.135  15.583  0.00  0.00    +0.000 C 
ATOM     28  C   UNL     1       7.394   4.574  16.647  0.00  0.00    +0.000 C 
ATOM     29  C   UNL     1       6.848   4.818  18.039  0.00  0.00    +0.000 C 
BRANCH  27  30
ATOM     30  C   UNL     1       7.034   4.809  14.220  0.00  0.00    +0.000 C 
ATOM     31  O   UNL     1       7.884   5.469  13.643  0.00  0.00    +0.000 OA
BRANCH  30  32
ATOM     32  O   UNL     1       6.466   3.717  13.654  0.00  0.00    +0.000 OA
ATOM     33  H   UNL     1       5.495   3.676  13.752  0.00  0.00    +0.000 HD
ENDBRANCH  30  32
ENDBRANCH  27  30
ENDBRANCH  23  24
ENDBRANCH  21  23
ENDBRANCH  18  19
ENDBRANCH   1  18
TORSDOF 10
ENDMDL
MODEL 6
REMARK VINA RESULT:      -7.9      4.080      6.802
REMARK  Name = 
REMARK  12 active torsions:
REMARK  status: ('A' for Active; 'I' for Inactive)
REMARK    1  A    between atoms: C_1  and  C_2
REMARK    2  A    between atoms: C_2  and  C_3
REMARK    3  A    between atoms: C_3  and  C_4
REMARK    4  A    between atoms: C_4  and  C_5
REMARK    5  A    between atoms: C_11  and  C_12
REMARK    6  A    between atoms: C_13  and  O_14
REMARK    7  A    between atoms: O_14  and  C_15
REMARK    8  A    between atoms: C_15  and  C_16
REMARK    9  A    between atoms: N_18  and  C_19
REMARK   10  A    between atoms: C_19  and  C_20
REMARK   11  A    between atoms: C_23  and  C_24
REMARK   12  A    between atoms: C_24  and  O_26
REMARK                            x       y       z     vdW  Elec       q    Type
REMARK                         _______ _______ _______ _____ _____    ______ ____
ROOT
ATOM      1  O   UNL     1       1.470   8.218  20.244  0.00  0.00    +0.000 OA
ENDROOT
BRANCH   1  10
ATOM      2  C   UNL     1       4.502   4.924  16.783  0.00  0.00    +0.000 A 
ATOM      3  C   UNL     1       4.394   3.608  17.002  0.00  0.00    +0.000 A 
ATOM      4  C   UNL     1       3.612   3.025  18.100  0.00  0.00    +0.000 A 
ATOM      5  O   UNL     1       3.510   1.810  18.229  0.00  0.00    +0.000 OA
ATOM      6  O   UNL     1       3.028   3.914  18.983  0.00  0.00    +0.000 OA
ATOM      7  C   UNL     1       3.046   5.305  18.753  0.00  0.00    +0.000 A 
ATOM      8  C   UNL     1       2.315   6.114  19.642  0.00  0.00    +0.000 A 
ATOM      9  C   UNL     1       1.642   5.539  20.861  0.00  0.00    +0.000 C 
ATOM     10  C   UNL     1       2.238   7.487  19.379  0.00  0.00    +0.000 A 
ATOM     11  C   UNL     1       2.916   8.028  18.286  0.00  0.00    +0.000 A 
ATOM     12  C   UNL     1       3.677   7.210  17.450  0.00  0.00    +0.000 A 
ATOM     13  C   UNL     1       3.744   5.834  17.659  0.00  0.00    +0.000 A 
BRANCH   2  14
ATOM     14  C   UNL     1       5.359   5.467  15.660  0.00  0.00    +0.000 C 
BRANCH  14  15
ATOM     15  C   UNL     1       6.852   5.315  15.970  0.00  0.00    +0.000 C 
BRANCH  15  17
ATOM     16  C   UNL     1       7.631   5.416  18.355  0.00  0.00    +0.000 C 
ATOM     17  C   UNL     1       7.292   6.230  17.114  0.00  0.00    +0.000 C 
ENDBRANCH  15  17
ENDBRANCH  14  15
ENDBRANCH   2  14
ENDBRANCH   1  10
BRANCH   1  18
ATOM     18  C   UNL     1       1.057   9.505  19.798  0.00  0.00    +0.000 C 
BRANCH  18  19
ATOM     19  C   UNL     1       0.647  10.367  20.975  0.00  0.00    +0.000 C 
ATOM     20  O   UNL     1       1.183  10.247  22.076  0.00  0.00    +0.000 OA
ATOM     21  N   UNL     1      -0.348  11.280  20.713  0.00  0.00    +0.000 N 
ATOM     22  H   UNL     1      -0.630  11.386  19.740  0.00  0.00    +0.000 HD
BRANCH  21  23
ATOM     23  C   UNL     1      -0.719  12.270  21.681  0.00  0.00    +0.000 C 
BRANCH  23  24
ATOM     24  C   UNL     1      -2.158  12.158  22.201  0.00  0.00    +0.000 C 
ATOM     25  C   UNL     1      -2.462  12.857  23.542  0.00  0.00    +0.000 C 
ATOM     26  C   UNL     1      -3.954  12.748  23.900  0.00  0.00    +0.000 C 
ATOM     27  C   UNL     1      -4.863  13.256  22.772  0.00  0.00    +0.000 C 
ATOM     28  C   UNL     1      -4.526  12.585  21.442  0.00  0.00    +0.000 C 
ATOM     29  C   UNL     1      -3.056  12.748  21.108  0.00  0.00    +0.000 C 
BRANCH  27  30
ATOM     30  C   UNL     1      -6.330  13.008  23.067  0.00  0.00    +0.000 C 
ATOM     31  O   UNL     1      -6.767  12.059  23.698  0.00  0.00    +0.000 OA
BRANCH  30  32
ATOM     32  O   UNL     1      -7.143  13.931  22.500  0.00  0.00    +0.000 OA
ATOM     33  H   UNL     1      -7.917  14.171  23.045  0.00  0.00    +0.000 HD
ENDBRANCH  30  32
ENDBRANCH  27  30
ENDBRANCH  23  24
ENDBRANCH  21  23
ENDBRANCH  18  19
ENDBRANCH   1  18
TORSDOF 10
ENDMDL
MODEL 7
REMARK VINA RESULT:      -7.8      4.062      6.668
REMARK  Name = 
REMARK  12 active torsions:
REMARK  status: ('A' for Active; 'I' for Inactive)
REMARK    1  A    between atoms: C_1  and  C_2
REMARK    2  A    between atoms: C_2  and  C_3
REMARK    3  A    between atoms: C_3  and  C_4
REMARK    4  A    between atoms: C_4  and  C_5
REMARK    5  A    between atoms: C_11  and  C_12
REMARK    6  A    between atoms: C_13  and  O_14
REMARK    7  A    between atoms: O_14  and  C_15
REMARK    8  A    between atoms: C_15  and  C_16
REMARK    9  A    between atoms: N_18  and  C_19
REMARK   10  A    between atoms: C_19  and  C_20
REMARK   11  A    between atoms: C_23  and  C_24
REMARK   12  A    between atoms: C_24  and  O_26
REMARK                            x       y       z     vdW  Elec       q    Type
REMARK                         _______ _______ _______ _____ _____    ______ ____
ROOT
ATOM      1  O   UNL     1       0.965   8.554  20.613  0.00  0.00    +0.000 OA
ENDROOT
BRANCH   1  10
ATOM      2  C   UNL     1       4.180   4.635  18.098  0.00  0.00    +0.000 A 
ATOM      3  C   UNL     1       4.860   5.053  17.024  0.00  0.00    +0.000 A 
ATOM      4  C   UNL     1       4.749   6.405  16.463  0.00  0.00    +0.000 A 
ATOM      5  O   UNL     1       5.429   6.751  15.503  0.00  0.00    +0.000 OA
ATOM      6  O   UNL     1       3.826   7.247  17.056  0.00  0.00    +0.000 OA
ATOM      7  C   UNL     1       3.143   6.882  18.235  0.00  0.00    +0.000 A 
ATOM      8  C   UNL     1       2.321   7.857  18.830  0.00  0.00    +0.000 A 
ATOM      9  C   UNL     1       2.077   9.191  18.175  0.00  0.00    +0.000 C 
ATOM     10  C   UNL     1       1.709   7.552  20.052  0.00  0.00    +0.000 A 
ATOM     11  C   UNL     1       1.883   6.292  20.626  0.00  0.00    +0.000 A 
ATOM     12  C   UNL     1       2.662   5.326  19.988  0.00  0.00    +0.000 A 
ATOM     13  C   UNL     1       3.316   5.607  18.790  0.00  0.00    +0.000 A 
BRANCH   2  14
ATOM     14  C   UNL     1       4.304   3.214  18.604  0.00  0.00    +0.000 C 
BRANCH  14  15
ATOM     15  C   UNL     1       3.236   2.304  17.988  0.00  0.00    +0.000 C 
BRANCH  15  17
ATOM     16  C   UNL     1       0.868   2.470  18.805  0.00  0.00    +0.000 C 
ATOM     17  C   UNL     1       2.227   1.823  19.031  0.00  0.00    +0.000 C 
ENDBRANCH  15  17
ENDBRANCH  14  15
ENDBRANCH   2  14
ENDBRANCH   1  10
BRANCH   1  18
ATOM     18  C   UNL     1       1.285   8.913  21.952  0.00  0.00    +0.000 C 
BRANCH  18  19
ATOM     19  C   UNL     1       0.424  10.073  22.410  0.00  0.00    +0.000 C 
ATOM     20  O   UNL     1      -0.020  10.129  23.557  0.00  0.00    +0.000 OA
ATOM     21  N   UNL     1       0.193  11.040  21.460  0.00  0.00    +0.000 N 
ATOM     22  H   UNL     1       0.713  10.962  20.588  0.00  0.00    +0.000 HD
BRANCH  21  23
ATOM     23  C   UNL     1      -0.462  12.270  21.799  0.00  0.00    +0.000 C 
BRANCH  23  24
ATOM     24  C   UNL     1      -1.977  12.156  22.019  0.00  0.00    +0.000 C 
ATOM     25  C   UNL     1      -2.515  12.658  23.374  0.00  0.00    +0.000 C 
ATOM     26  C   UNL     1      -4.050  12.575  23.426  0.00  0.00    +0.000 C 
ATOM     27  C   UNL     1      -4.714  13.298  22.245  0.00  0.00    +0.000 C 
ATOM     28  C   UNL     1      -4.144  12.821  20.911  0.00  0.00    +0.000 C 
ATOM     29  C   UNL     1      -2.634  12.954  20.887  0.00  0.00    +0.000 C 
BRANCH  27  30
ATOM     30  C   UNL     1      -6.216  13.087  22.219  0.00  0.00    +0.000 C 
ATOM     31  O   UNL     1      -6.799  12.138  22.719  0.00  0.00    +0.000 OA
BRANCH  30  32
ATOM     32  O   UNL     1      -6.869  14.045  21.519  0.00  0.00    +0.000 OA
ATOM     33  H   UNL     1      -6.985  13.839  20.572  0.00  0.00    +0.000 HD
ENDBRANCH  30  32
ENDBRANCH  27  30
ENDBRANCH  23  24
ENDBRANCH  21  23
ENDBRANCH  18  19
ENDBRANCH   1  18
TORSDOF 10
ENDMDL
MODEL 8
REMARK VINA RESULT:      -7.8      3.098      5.489
REMARK  Name = 
REMARK  12 active torsions:
REMARK  status: ('A' for Active; 'I' for Inactive)
REMARK    1  A    between atoms: C_1  and  C_2
REMARK    2  A    between atoms: C_2  and  C_3
REMARK    3  A    between atoms: C_3  and  C_4
REMARK    4  A    between atoms: C_4  and  C_5
REMARK    5  A    between atoms: C_11  and  C_12
REMARK    6  A    between atoms: C_13  and  O_14
REMARK    7  A    between atoms: O_14  and  C_15
REMARK    8  A    between atoms: C_15  and  C_16
REMARK    9  A    between atoms: N_18  and  C_19
REMARK   10  A    between atoms: C_19  and  C_20
REMARK   11  A    between atoms: C_23  and  C_24
REMARK   12  A    between atoms: C_24  and  O_26
REMARK                            x       y       z     vdW  Elec       q    Type
REMARK                         _______ _______ _______ _____ _____    ______ ____
ROOT
ATOM      1  O   UNL     1       1.094   7.109  20.879  0.00  0.00    +0.000 OA
ENDROOT
BRANCH   1  10
ATOM      2  C   UNL     1       4.486   4.694  17.046  0.00  0.00    +0.000 A 
ATOM      3  C   UNL     1       4.486   3.356  17.042  0.00  0.00    +0.000 A 
ATOM      4  C   UNL     1       3.730   2.537  17.997  0.00  0.00    +0.000 A 
ATOM      5  O   UNL     1       3.729   1.313  17.920  0.00  0.00    +0.000 OA
ATOM      6  O   UNL     1       3.048   3.215  18.990  0.00  0.00    +0.000 OA
ATOM      7  C   UNL     1       2.953   4.622  18.993  0.00  0.00    +0.000 A 
ATOM      8  C   UNL     1       2.132   5.210  19.973  0.00  0.00    +0.000 A 
ATOM      9  C   UNL     1       1.480   4.387  21.053  0.00  0.00    +0.000 C 
ATOM     10  C   UNL     1       1.944   6.598  19.936  0.00  0.00    +0.000 A 
ATOM     11  C   UNL     1       2.601   7.366  18.975  0.00  0.00    +0.000 A 
ATOM     12  C   UNL     1       3.451   6.763  18.046  0.00  0.00    +0.000 A 
ATOM     13  C   UNL     1       3.631   5.382  18.030  0.00  0.00    +0.000 A 
BRANCH   2  14
ATOM     14  C   UNL     1       5.322   5.484  16.063  0.00  0.00    +0.000 C 
BRANCH  14  15
ATOM     15  C   UNL     1       5.213   4.911  14.646  0.00  0.00    +0.000 C 
BRANCH  15  17
ATOM     16  C   UNL     1       6.375   3.677  12.794  0.00  0.00    +0.000 C 
ATOM     17  C   UNL     1       6.499   4.205  14.216  0.00  0.00    +0.000 C 
ENDBRANCH  15  17
ENDBRANCH  14  15
ENDBRANCH   2  14
ENDBRANCH   1  10
BRANCH   1  18
ATOM     18  C   UNL     1       1.572   8.219  21.632  0.00  0.00    +0.000 C 
BRANCH  18  19
ATOM     19  C   UNL     1       0.618   9.390  21.512  0.00  0.00    +0.000 C 
ATOM     20  O   UNL     1      -0.345   9.514  22.269  0.00  0.00    +0.000 OA
ATOM     21  N   UNL     1       0.915  10.286  20.512  0.00  0.00    +0.000 N 
ATOM     22  H   UNL     1       1.803  10.160  20.031  0.00  0.00    +0.000 HD
BRANCH  21  23
ATOM     23  C   UNL     1       0.200  11.523  20.390  0.00  0.00    +0.000 C 
BRANCH  23  24
ATOM     24  C   UNL     1      -0.750  11.603  19.187  0.00  0.00    +0.000 C 
ATOM     25  C   UNL     1      -0.791  10.373  18.258  0.00  0.00    +0.000 C 
ATOM     26  C   UNL     1      -1.846  10.545  17.153  0.00  0.00    +0.000 C 
ATOM     27  C   UNL     1      -3.234  10.879  17.720  0.00  0.00    +0.000 C 
ATOM     28  C   UNL     1      -3.174  12.075  18.668  0.00  0.00    +0.000 C 
ATOM     29  C   UNL     1      -2.150  11.849  19.762  0.00  0.00    +0.000 C 
BRANCH  27  30
ATOM     30  C   UNL     1      -4.235  11.196  16.624  0.00  0.00    +0.000 C 
ATOM     31  O   UNL     1      -4.314  10.610  15.556  0.00  0.00    +0.000 OA
BRANCH  30  32
ATOM     32  O   UNL     1      -5.020  12.258  16.922  0.00  0.00    +0.000 OA
ATOM     33  H   UNL     1      -4.771  13.081  16.459  0.00  0.00    +0.000 HD
ENDBRANCH  30  32
ENDBRANCH  27  30
ENDBRANCH  23  24
ENDBRANCH  21  23
ENDBRANCH  18  19
ENDBRANCH   1  18
TORSDOF 10
ENDMDL
MODEL 9
REMARK VINA RESULT:      -7.8      2.579      9.871
REMARK  Name = 
REMARK  12 active torsions:
REMARK  status: ('A' for Active; 'I' for Inactive)
REMARK    1  A    between atoms: C_1  and  C_2
REMARK    2  A    between atoms: C_2  and  C_3
REMARK    3  A    between atoms: C_3  and  C_4
REMARK    4  A    between atoms: C_4  and  C_5
REMARK    5  A    between atoms: C_11  and  C_12
REMARK    6  A    between atoms: C_13  and  O_14
REMARK    7  A    between atoms: O_14  and  C_15
REMARK    8  A    between atoms: C_15  and  C_16
REMARK    9  A    between atoms: N_18  and  C_19
REMARK   10  A    between atoms: C_19  and  C_20
REMARK   11  A    between atoms: C_23  and  C_24
REMARK   12  A    between atoms: C_24  and  O_26
REMARK                            x       y       z     vdW  Elec       q    Type
REMARK                         _______ _______ _______ _____ _____    ______ ____
ROOT
ATOM      1  O   UNL     1       2.031   6.880  20.252  0.00  0.00    +0.000 OA
ENDROOT
BRANCH   1  10
ATOM      2  C   UNL     1      -0.688  11.721  21.343  0.00  0.00    +0.000 A 
ATOM      3  C   UNL     1      -0.912  12.506  20.283  0.00  0.00    +0.000 A 
ATOM      4  C   UNL     1      -0.437  12.200  18.927  0.00  0.00    +0.000 A 
ATOM      5  O   UNL     1      -0.710  12.931  17.981  0.00  0.00    +0.000 OA
ATOM      6  O   UNL     1       0.346  11.070  18.786  0.00  0.00    +0.000 OA
ATOM      7  C   UNL     1       0.546  10.171  19.854  0.00  0.00    +0.000 A 
ATOM      8  C   UNL     1       1.253   8.987  19.575  0.00  0.00    +0.000 A 
ATOM      9  C   UNL     1       1.880   8.741  18.228  0.00  0.00    +0.000 C 
ATOM     10  C   UNL     1       1.381   8.035  20.594  0.00  0.00    +0.000 A 
ATOM     11  C   UNL     1       0.856   8.293  21.861  0.00  0.00    +0.000 A 
ATOM     12  C   UNL     1       0.205   9.498  22.125  0.00  0.00    +0.000 A 
ATOM     13  C   UNL     1       0.026  10.451  21.125  0.00  0.00    +0.000 A 
BRANCH   2  14
ATOM     14  C   UNL     1      -1.166  12.112  22.725  0.00  0.00    +0.000 C 
BRANCH  14  15
ATOM     15  C   UNL     1      -2.257  13.185  22.659  0.00  0.00    +0.000 C 
BRANCH  15  17
ATOM     16  C   UNL     1      -3.938  12.491  24.390  0.00  0.00    +0.000 C 
ATOM     17  C   UNL     1      -3.649  12.599  22.900  0.00  0.00    +0.000 C 
ENDBRANCH  15  17
ENDBRANCH  14  15
ENDBRANCH   2  14
ENDBRANCH   1  10
BRANCH   1  18
ATOM     18  C   UNL     1       1.545   5.678  20.841  0.00  0.00    +0.000 C 
BRANCH  18  19
ATOM     19  C   UNL     1       1.874   4.488  19.963  0.00  0.00    +0.000 C 
ATOM     20  O   UNL     1       1.151   4.167  19.019  0.00  0.00    +0.000 OA
ATOM     21  N   UNL     1       3.026   3.815  20.297  0.00  0.00    +0.000 N 
ATOM     22  H   UNL     1       3.616   4.240  21.009  0.00  0.00    +0.000 HD
BRANCH  21  23
ATOM     23  C   UNL     1       3.547   2.776  19.457  0.00  0.00    +0.000 C 
BRANCH  23  24
ATOM     24  C   UNL     1       4.563   3.243  18.406  0.00  0.00    +0.000 C 
ATOM     25  C   UNL     1       3.991   3.676  17.040  0.00  0.00    +0.000 C 
ATOM     26  C   UNL     1       5.101   4.208  16.117  0.00  0.00    +0.000 C 
ATOM     27  C   UNL     1       5.919   5.328  16.775  0.00  0.00    +0.000 C 
ATOM     28  C   UNL     1       6.446   4.902  18.143  0.00  0.00    +0.000 C 
ATOM     29  C   UNL     1       5.318   4.421  19.034  0.00  0.00    +0.000 C 
BRANCH  27  30
ATOM     30  C   UNL     1       7.102   5.745  15.922  0.00  0.00    +0.000 C 
ATOM     31  O   UNL     1       7.494   5.153  14.929  0.00  0.00    +0.000 OA
BRANCH  30  32
ATOM     32  O   UNL     1       7.743   6.834  16.409  0.00  0.00    +0.000 OA
ATOM     33  H   UNL     1       7.260   7.298  17.120  0.00  0.00    +0.000 HD
ENDBRANCH  30  32
ENDBRANCH  27  30
ENDBRANCH  23  24
ENDBRANCH  21  23
ENDBRANCH  18  19
ENDBRANCH   1  18
TORSDOF 10
ENDMDL
