MODEL 1
REMARK VINA RESULT:      -8.8      0.000      0.000
REMARK  Name = 
REMARK  7 active torsions:
REMARK  status: ('A' for Active; 'I' for Inactive)
REMARK    1  A    between atoms: C_1  and  S_2
REMARK    2  A    between atoms: S_2  and  C_3
REMARK    3  A    between atoms: C_3  and  C_4
REMARK    4  A    between atoms: C_4  and  C_5
REMARK    5  A    between atoms: C_5  and  C_6
REMARK    6  A    between atoms: C_5  and  N_15
REMARK    7  A    between atoms: C_18  and  C_19
REMARK                            x       y       z     vdW  Elec       q    Type
REMARK                         _______ _______ _______ _____ _____    ______ ____
ROOT
ATOM      1  N   UNL     1       0.408  10.184  19.104  0.00  0.00    +0.000 N 
ATOM      2  C   UNL     1       1.334   9.409  18.409  0.00  0.00    +0.000 A 
ATOM      3  O   UNL     1       1.687   9.635  17.252  0.00  0.00    +0.000 OA
ATOM      4  C   UNL     1       1.930   8.212  19.152  0.00  0.00    +0.000 A 
ATOM      5  N   UNL     1       1.853   8.088  20.441  0.00  0.00    +0.000 NA
ATOM      6  C   UNL     1       1.016   8.976  21.132  0.00  0.00    +0.000 A 
ATOM      7  C   UNL     1       0.999   8.899  22.529  0.00  0.00    +0.000 A 
ATOM      8  C   UNL     1       0.111   9.668  23.278  0.00  0.00    +0.000 A 
ATOM      9  C   UNL     1      -0.850  10.428  22.625  0.00  0.00    +0.000 A 
ATOM     10  C   UNL     1      -0.858  10.489  21.231  0.00  0.00    +0.000 A 
ATOM     11  C   UNL     1       0.151   9.881  20.479  0.00  0.00    +0.000 A 
ENDROOT
BRANCH   4  12
ATOM     12  C   UNL     1       2.641   7.240  18.351  0.00  0.00    +0.000 A 
ATOM     13  C   UNL     1       2.477   5.864  18.292  0.00  0.00    +0.000 A 
ATOM     14  C   UNL     1       3.706   5.363  17.791  0.00  0.00    +0.000 A 
ATOM     15  C   UNL     1       4.453   4.186  17.937  0.00  0.00    +0.000 A 
ATOM     16  C   UNL     1       5.639   4.058  17.201  0.00  0.00    +0.000 A 
ATOM     17  C   UNL     1       5.967   4.982  16.207  0.00  0.00    +0.000 A 
ATOM     18  C   UNL     1       5.255   6.172  16.072  0.00  0.00    +0.000 A 
ATOM     19  C   UNL     1       4.241   6.375  17.008  0.00  0.00    +0.000 A 
ATOM     20  N   UNL     1       3.726   7.526  17.549  0.00  0.00    +0.000 N 
ATOM     21  H   UNL     1       4.249   8.396  17.594  0.00  0.00    +0.000 HD
ENDBRANCH   4  12
BRANCH   1  22
ATOM     22  C   UNL     1      -0.242  11.253  18.311  0.00  0.00    +0.000 C 
BRANCH  22  23
ATOM     23  C   UNL     1       0.120  12.659  18.737  0.00  0.00    +0.000 A 
ATOM     24  N   UNL     1       1.337  13.062  19.079  0.00  0.00    +0.000 NA
ATOM     25  C   UNL     1       1.279  14.441  19.111  0.00  0.00    +0.000 A 
ATOM     26  C   UNL     1       2.299  15.374  19.284  0.00  0.00    +0.000 A 
ATOM     27  C   UNL     1       2.000  16.729  19.136  0.00  0.00    +0.000 A 
ATOM     28  C   UNL     1       0.705  17.152  18.840  0.00  0.00    +0.000 A 
ATOM     29  C   UNL     1      -0.349  16.228  18.706  0.00  0.00    +0.000 A 
ATOM     30  C   UNL     1      -0.031  14.875  18.844  0.00  0.00    +0.000 A 
ATOM     31  N   UNL     1      -0.753  13.719  18.735  0.00  0.00    +0.000 N 
ATOM     32  H   UNL     1      -1.734  13.663  18.480  0.00  0.00    +0.000 HD
ENDBRANCH  22  23
BRANCH  22  33
ATOM     33  C   UNL     1      -1.758  10.988  18.246  0.00  0.00    +0.000 C 
BRANCH  33  34
ATOM     34  C   UNL     1      -2.132   9.942  17.198  0.00  0.00    +0.000 C 
BRANCH  34  36
ATOM     35  C   UNL     1      -4.394  11.359  16.557  0.00  0.00    +0.000 C 
ATOM     36  S   UNL     1      -2.895  10.749  15.751  0.00  0.00    +0.000 S 
ENDBRANCH  34  36
ENDBRANCH  33  34
ENDBRANCH  22  33
ENDBRANCH   1  22
TORSDOF 6
ENDMDL
MODEL 2
REMARK VINA RESULT:      -8.7      3.326      9.494
REMARK  Name = 
REMARK  7 active torsions:
REMARK  status: ('A' for Active; 'I' for Inactive)
REMARK    1  A    between atoms: C_1  and  S_2
REMARK    2  A    between atoms: S_2  and  C_3
REMARK    3  A    between atoms: C_3  and  C_4
REMARK    4  A    between atoms: C_4  and  C_5
REMARK    5  A    between atoms: C_5  and  C_6
REMARK    6  A    between atoms: C_5  and  N_15
REMARK    7  A    between atoms: C_18  and  C_19
REMARK                            x       y       z     vdW  Elec       q    Type
REMARK                         _______ _______ _______ _____ _____    ______ ____
ROOT
ATOM      1  N   UNL     1       4.693   5.770  18.020  0.00  0.00    +0.000 N 
ATOM      2  C   UNL     1       3.893   6.909  17.951  0.00  0.00    +0.000 A 
ATOM      3  O   UNL     1       4.220   7.942  17.369  0.00  0.00    +0.000 OA
ATOM      4  C   UNL     1       2.533   6.843  18.649  0.00  0.00    +0.000 A 
ATOM      5  N   UNL     1       1.992   5.720  19.008  0.00  0.00    +0.000 NA
ATOM      6  C   UNL     1       2.783   4.564  18.935  0.00  0.00    +0.000 A 
ATOM      7  C   UNL     1       2.174   3.340  19.239  0.00  0.00    +0.000 A 
ATOM      8  C   UNL     1       2.919   2.165  19.299  0.00  0.00    +0.000 A 
ATOM      9  C   UNL     1       4.300   2.228  19.177  0.00  0.00    +0.000 A 
ATOM     10  C   UNL     1       4.919   3.448  18.902  0.00  0.00    +0.000 A 
ATOM     11  C   UNL     1       4.163   4.594  18.642  0.00  0.00    +0.000 A 
ENDROOT
BRANCH   4  12
ATOM     12  C   UNL     1       1.844   8.099  18.845  0.00  0.00    +0.000 A 
ATOM     13  C   UNL     1       1.564   9.098  17.925  0.00  0.00    +0.000 A 
ATOM     14  C   UNL     1       1.367  10.272  18.697  0.00  0.00    +0.000 A 
ATOM     15  C   UNL     1       1.562  11.648  18.514  0.00  0.00    +0.000 A 
ATOM     16  C   UNL     1       1.178  12.515  19.545  0.00  0.00    +0.000 A 
ATOM     17  C   UNL     1       0.443  12.048  20.637  0.00  0.00    +0.000 A 
ATOM     18  C   UNL     1       0.270  10.681  20.851  0.00  0.00    +0.000 A 
ATOM     19  C   UNL     1       0.902   9.844  19.932  0.00  0.00    +0.000 A 
ATOM     20  N   UNL     1       1.422   8.582  20.067  0.00  0.00    +0.000 N 
ATOM     21  H   UNL     1       1.724   8.202  20.959  0.00  0.00    +0.000 HD
ENDBRANCH   4  12
BRANCH   1  22
ATOM     22  C   UNL     1       6.051   5.916  17.446  0.00  0.00    +0.000 C 
BRANCH  22  23
ATOM     23  C   UNL     1       6.260   5.184  16.139  0.00  0.00    +0.000 A 
ATOM     24  N   UNL     1       5.383   4.362  15.576  0.00  0.00    +0.000 NA
ATOM     25  C   UNL     1       5.841   4.151  14.291  0.00  0.00    +0.000 A 
ATOM     26  C   UNL     1       5.241   3.479  13.228  0.00  0.00    +0.000 A 
ATOM     27  C   UNL     1       5.851   3.525  11.975  0.00  0.00    +0.000 A 
ATOM     28  C   UNL     1       7.050   4.212  11.783  0.00  0.00    +0.000 A 
ATOM     29  C   UNL     1       7.696   4.860  12.853  0.00  0.00    +0.000 A 
ATOM     30  C   UNL     1       7.065   4.815  14.099  0.00  0.00    +0.000 A 
ATOM     31  N   UNL     1       7.353   5.351  15.323  0.00  0.00    +0.000 N 
ATOM     32  H   UNL     1       8.143   5.956  15.527  0.00  0.00    +0.000 HD
ENDBRANCH  22  23
BRANCH  22  33
ATOM     33  C   UNL     1       7.098   5.585  18.526  0.00  0.00    +0.000 C 
BRANCH  33  34
ATOM     34  C   UNL     1       8.038   6.754  18.817  0.00  0.00    +0.000 C 
BRANCH  34  36
ATOM     35  C   UNL     1       8.708   9.393  18.473  0.00  0.00    +0.000 C 
ATOM     36  S   UNL     1       7.714   8.122  17.657  0.00  0.00    +0.000 S 
ENDBRANCH  34  36
ENDBRANCH  33  34
ENDBRANCH  22  33
ENDBRANCH   1  22
TORSDOF 6
ENDMDL
MODEL 3
REMARK VINA RESULT:      -8.6      3.306      9.549
REMARK  Name = 
REMARK  7 active torsions:
REMARK  status: ('A' for Active; 'I' for Inactive)
REMARK    1  A    between atoms: C_1  and  S_2
REMARK    2  A    between atoms: S_2  and  C_3
REMARK    3  A    between atoms: C_3  and  C_4
REMARK    4  A    between atoms: C_4  and  C_5
REMARK    5  A    between atoms: C_5  and  C_6
REMARK    6  A    between atoms: C_5  and  N_15
REMARK    7  A    between atoms: C_18  and  C_19
REMARK                            x       y       z     vdW  Elec       q    Type
REMARK                         _______ _______ _______ _____ _____    ______ ____
ROOT
ATOM      1  N   UNL     1       4.616   5.673  17.865  0.00  0.00    +0.000 N 
ATOM      2  C   UNL     1       3.928   6.877  17.997  0.00  0.00    +0.000 A 
ATOM      3  O   UNL     1       4.355   7.959  17.596  0.00  0.00    +0.000 OA
ATOM      4  C   UNL     1       2.563   6.821  18.686  0.00  0.00    +0.000 A 
ATOM      5  N   UNL     1       1.915   5.710  18.854  0.00  0.00    +0.000 NA
ATOM      6  C   UNL     1       2.594   4.513  18.579  0.00  0.00    +0.000 A 
ATOM      7  C   UNL     1       1.871   3.319  18.677  0.00  0.00    +0.000 A 
ATOM      8  C   UNL     1       2.501   2.086  18.530  0.00  0.00    +0.000 A 
ATOM      9  C   UNL     1       3.884   2.039  18.408  0.00  0.00    +0.000 A 
ATOM     10  C   UNL     1       4.616   3.224  18.338  0.00  0.00    +0.000 A 
ATOM     11  C   UNL     1       3.974   4.463  18.283  0.00  0.00    +0.000 A 
ENDROOT
BRANCH   4  12
ATOM     12  C   UNL     1       1.994   8.086  19.098  0.00  0.00    +0.000 A 
ATOM     13  C   UNL     1       1.489   8.458  20.336  0.00  0.00    +0.000 A 
ATOM     14  C   UNL     1       0.617   9.545  20.071  0.00  0.00    +0.000 A 
ATOM     15  C   UNL     1      -0.553  10.064  20.641  0.00  0.00    +0.000 A 
ATOM     16  C   UNL     1      -1.099  11.230  20.088  0.00  0.00    +0.000 A 
ATOM     17  C   UNL     1      -0.397  11.965  19.129  0.00  0.00    +0.000 A 
ATOM     18  C   UNL     1       0.750  11.446  18.529  0.00  0.00    +0.000 A 
ATOM     19  C   UNL     1       1.106  10.158  18.926  0.00  0.00    +0.000 A 
ATOM     20  N   UNL     1       1.750   9.150  18.255  0.00  0.00    +0.000 N 
ATOM     21  H   UNL     1       1.763   9.082  17.242  0.00  0.00    +0.000 HD
ENDBRANCH   4  12
BRANCH   1  22
ATOM     22  C   UNL     1       5.986   5.785  17.312  0.00  0.00    +0.000 C 
BRANCH  22  23
ATOM     23  C   UNL     1       6.193   5.065  15.999  0.00  0.00    +0.000 A 
ATOM     24  N   UNL     1       5.293   4.292  15.403  0.00  0.00    +0.000 NA
ATOM     25  C   UNL     1       5.771   4.080  14.125  0.00  0.00    +0.000 A 
ATOM     26  C   UNL     1       5.166   3.452  13.038  0.00  0.00    +0.000 A 
ATOM     27  C   UNL     1       5.807   3.489  11.800  0.00  0.00    +0.000 A 
ATOM     28  C   UNL     1       7.040   4.124  11.646  0.00  0.00    +0.000 A 
ATOM     29  C   UNL     1       7.689   4.725  12.741  0.00  0.00    +0.000 A 
ATOM     30  C   UNL     1       7.028   4.690  13.971  0.00  0.00    +0.000 A 
ATOM     31  N   UNL     1       7.311   5.194  15.211  0.00  0.00    +0.000 N 
ATOM     32  H   UNL     1       8.122   5.759  15.442  0.00  0.00    +0.000 HD
ENDBRANCH  22  23
BRANCH  22  33
ATOM     33  C   UNL     1       7.008   5.409  18.402  0.00  0.00    +0.000 C 
BRANCH  33  34
ATOM     34  C   UNL     1       7.908   6.578  18.798  0.00  0.00    +0.000 C 
BRANCH  34  36
ATOM     35  C   UNL     1       8.631   9.211  18.514  0.00  0.00    +0.000 C 
ATOM     36  S   UNL     1       7.738   7.936  17.593  0.00  0.00    +0.000 S 
ENDBRANCH  34  36
ENDBRANCH  33  34
ENDBRANCH  22  33
ENDBRANCH   1  22
TORSDOF 6
ENDMDL
MODEL 4
REMARK VINA RESULT:      -8.6      1.564      1.837
REMARK  Name = 
REMARK  7 active torsions:
REMARK  status: ('A' for Active; 'I' for Inactive)
REMARK    1  A    between atoms: C_1  and  S_2
REMARK    2  A    between atoms: S_2  and  C_3
REMARK    3  A    between atoms: C_3  and  C_4
REMARK    4  A    between atoms: C_4  and  C_5
REMARK    5  A    between atoms: C_5  and  C_6
REMARK    6  A    between atoms: C_5  and  N_15
REMARK    7  A    between atoms: C_18  and  C_19
REMARK                            x       y       z     vdW  Elec       q    Type
REMARK                         _______ _______ _______ _____ _____    ______ ____
ROOT
ATOM      1  N   UNL     1       0.732  10.071  19.331  0.00  0.00    +0.000 N 
ATOM      2  C   UNL     1       1.584   9.048  18.923  0.00  0.00    +0.000 A 
ATOM      3  O   UNL     1       2.187   9.044  17.850  0.00  0.00    +0.000 OA
ATOM      4  C   UNL     1       1.762   7.871  19.884  0.00  0.00    +0.000 A 
ATOM      5  N   UNL     1       1.421   7.939  21.134  0.00  0.00    +0.000 NA
ATOM      6  C   UNL     1       0.678   9.055  21.546  0.00  0.00    +0.000 A 
ATOM      7  C   UNL     1       0.384   9.172  22.910  0.00  0.00    +0.000 A 
ATOM      8  C   UNL     1      -0.442  10.190  23.379  0.00  0.00    +0.000 A 
ATOM      9  C   UNL     1      -1.080  11.023  22.469  0.00  0.00    +0.000 A 
ATOM     10  C   UNL     1      -0.814  10.896  21.106  0.00  0.00    +0.000 A 
ATOM     11  C   UNL     1       0.164  10.012  20.644  0.00  0.00    +0.000 A 
ENDROOT
BRANCH   4  12
ATOM     12  C   UNL     1       2.386   6.682  19.345  0.00  0.00    +0.000 A 
ATOM     13  C   UNL     1       2.328   6.168  18.058  0.00  0.00    +0.000 A 
ATOM     14  C   UNL     1       2.645   4.792  18.192  0.00  0.00    +0.000 A 
ATOM     15  C   UNL     1       2.307   3.608  17.523  0.00  0.00    +0.000 A 
ATOM     16  C   UNL     1       2.897   2.412  17.954  0.00  0.00    +0.000 A 
ATOM     17  C   UNL     1       3.937   2.422  18.887  0.00  0.00    +0.000 A 
ATOM     18  C   UNL     1       4.261   3.586  19.584  0.00  0.00    +0.000 A 
ATOM     19  C   UNL     1       3.462   4.694  19.308  0.00  0.00    +0.000 A 
ATOM     20  N   UNL     1       3.093   5.760  20.089  0.00  0.00    +0.000 N 
ATOM     21  H   UNL     1       3.077   5.722  21.103  0.00  0.00    +0.000 HD
ENDBRANCH   4  12
BRANCH   1  22
ATOM     22  C   UNL     1       0.485  11.127  18.322  0.00  0.00    +0.000 C 
BRANCH  22  23
ATOM     23  C   UNL     1       1.232  12.419  18.569  0.00  0.00    +0.000 A 
ATOM     24  N   UNL     1       2.512  12.626  18.283  0.00  0.00    +0.000 NA
ATOM     25  C   UNL     1       2.703  13.989  18.394  0.00  0.00    +0.000 A 
ATOM     26  C   UNL     1       3.818  14.763  18.079  0.00  0.00    +0.000 A 
ATOM     27  C   UNL     1       3.712  16.152  18.151  0.00  0.00    +0.000 A 
ATOM     28  C   UNL     1       2.524  16.764  18.549  0.00  0.00    +0.000 A 
ATOM     29  C   UNL     1       1.400  15.999  18.915  0.00  0.00    +0.000 A 
ATOM     30  C   UNL     1       1.518  14.610  18.825  0.00  0.00    +0.000 A 
ATOM     31  N   UNL     1       0.654  13.572  19.040  0.00  0.00    +0.000 N 
ATOM     32  H   UNL     1      -0.323  13.668  19.299  0.00  0.00    +0.000 HD
ENDBRANCH  22  23
BRANCH  22  33
ATOM     33  C   UNL     1      -1.034  11.307  18.135  0.00  0.00    +0.000 C 
BRANCH  33  34
ATOM     34  C   UNL     1      -1.678  10.150  17.374  0.00  0.00    +0.000 C 
BRANCH  34  36
ATOM     35  C   UNL     1      -2.983  10.313  14.965  0.00  0.00    +0.000 C 
ATOM     36  S   UNL     1      -3.298  10.661  16.711  0.00  0.00    +0.000 S 
ENDBRANCH  34  36
ENDBRANCH  33  34
ENDBRANCH  22  33
ENDBRANCH   1  22
TORSDOF 6
ENDMDL
MODEL 5
REMARK VINA RESULT:      -8.6      1.115      1.566
REMARK  Name = 
REMARK  7 active torsions:
REMARK  status: ('A' for Active; 'I' for Inactive)
REMARK    1  A    between atoms: C_1  and  S_2
REMARK    2  A    between atoms: S_2  and  C_3
REMARK    3  A    between atoms: C_3  and  C_4
REMARK    4  A    between atoms: C_4  and  C_5
REMARK    5  A    between atoms: C_5  and  C_6
REMARK    6  A    between atoms: C_5  and  N_15
REMARK    7  A    between atoms: C_18  and  C_19
REMARK                            x       y       z     vdW  Elec       q    Type
REMARK                         _______ _______ _______ _____ _____    ______ ____
ROOT
ATOM      1  N   UNL     1       0.639  10.384  19.187  0.00  0.00    +0.000 N 
ATOM      2  C   UNL     1       1.514   9.559  18.484  0.00  0.00    +0.000 A 
ATOM      3  O   UNL     1       1.951   9.819  17.363  0.00  0.00    +0.000 OA
ATOM      4  C   UNL     1       1.941   8.260  19.170  0.00  0.00    +0.000 A 
ATOM      5  N   UNL     1       1.783   8.063  20.442  0.00  0.00    +0.000 NA
ATOM      6  C   UNL     1       1.007   8.990  21.153  0.00  0.00    +0.000 A 
ATOM      7  C   UNL     1       0.907   8.826  22.539  0.00  0.00    +0.000 A 
ATOM      8  C   UNL     1       0.066   9.638  23.297  0.00  0.00    +0.000 A 
ATOM      9  C   UNL     1      -0.774  10.537  22.654  0.00  0.00    +0.000 A 
ATOM     10  C   UNL     1      -0.701  10.687  21.269  0.00  0.00    +0.000 A 
ATOM     11  C   UNL     1       0.278  10.024  20.525  0.00  0.00    +0.000 A 
ENDROOT
BRANCH   4  12
ATOM     12  C   UNL     1       2.589   7.270  18.336  0.00  0.00    +0.000 A 
ATOM     13  C   UNL     1       2.315   5.916  18.210  0.00  0.00    +0.000 A 
ATOM     14  C   UNL     1       3.510   5.339  17.709  0.00  0.00    +0.000 A 
ATOM     15  C   UNL     1       4.155   4.100  17.813  0.00  0.00    +0.000 A 
ATOM     16  C   UNL     1       5.343   3.907  17.095  0.00  0.00    +0.000 A 
ATOM     17  C   UNL     1       5.767   4.845  16.151  0.00  0.00    +0.000 A 
ATOM     18  C   UNL     1       5.157   6.096  16.059  0.00  0.00    +0.000 A 
ATOM     19  C   UNL     1       4.143   6.338  16.984  0.00  0.00    +0.000 A 
ATOM     20  N   UNL     1       3.711   7.502  17.569  0.00  0.00    +0.000 N 
ATOM     21  H   UNL     1       4.301   8.323  17.664  0.00  0.00    +0.000 HD
ENDBRANCH   4  12
BRANCH   1  22
ATOM     22  C   UNL     1       0.147  11.565  18.440  0.00  0.00    +0.000 C 
BRANCH  22  23
ATOM     23  C   UNL     1       1.046  12.779  18.524  0.00  0.00    +0.000 A 
ATOM     24  N   UNL     1       0.877  13.797  19.358  0.00  0.00    +0.000 NA
ATOM     25  C   UNL     1       2.051  14.522  19.307  0.00  0.00    +0.000 A 
ATOM     26  C   UNL     1       2.464  15.609  20.074  0.00  0.00    +0.000 A 
ATOM     27  C   UNL     1       3.767  16.081  19.921  0.00  0.00    +0.000 A 
ATOM     28  C   UNL     1       4.642  15.496  19.005  0.00  0.00    +0.000 A 
ATOM     29  C   UNL     1       4.230  14.426  18.188  0.00  0.00    +0.000 A 
ATOM     30  C   UNL     1       2.926  13.957  18.363  0.00  0.00    +0.000 A 
ATOM     31  N   UNL     1       2.207  12.935  17.807  0.00  0.00    +0.000 N 
ATOM     32  H   UNL     1       2.564  12.271  17.127  0.00  0.00    +0.000 HD
ENDBRANCH  22  23
BRANCH  22  33
ATOM     33  C   UNL     1      -1.317  11.841  18.831  0.00  0.00    +0.000 C 
BRANCH  33  34
ATOM     34  C   UNL     1      -2.289  11.633  17.670  0.00  0.00    +0.000 C 
BRANCH  34  36
ATOM     35  C   UNL     1      -2.832  10.276  15.347  0.00  0.00    +0.000 C 
ATOM     36  S   UNL     1      -2.064   9.971  16.955  0.00  0.00    +0.000 S 
ENDBRANCH  34  36
ENDBRANCH  33  34
ENDBRANCH  22  33
ENDBRANCH   1  22
TORSDOF 6
ENDMDL
MODEL 6
REMARK VINA RESULT:      -8.4      2.044      2.335
REMARK  Name = 
REMARK  7 active torsions:
REMARK  status: ('A' for Active; 'I' for Inactive)
REMARK    1  A    between atoms: C_1  and  S_2
REMARK    2  A    between atoms: S_2  and  C_3
REMARK    3  A    between atoms: C_3  and  C_4
REMARK    4  A    between atoms: C_4  and  C_5
REMARK    5  A    between atoms: C_5  and  C_6
REMARK    6  A    between atoms: C_5  and  N_15
REMARK    7  A    between atoms: C_18  and  C_19
REMARK                            x       y       z     vdW  Elec       q    Type
REMARK                         _______ _______ _______ _____ _____    ______ ____
ROOT
ATOM      1  N   UNL     1       0.914   9.965  19.374  0.00  0.00    +0.000 N 
ATOM      2  C   UNL     1       1.734   8.913  18.973  0.00  0.00    +0.000 A 
ATOM      3  O   UNL     1       2.373   8.902  17.922  0.00  0.00    +0.000 OA
ATOM      4  C   UNL     1       1.826   7.711  19.916  0.00  0.00    +0.000 A 
ATOM      5  N   UNL     1       1.445   7.770  21.154  0.00  0.00    +0.000 NA
ATOM      6  C   UNL     1       0.738   8.910  21.564  0.00  0.00    +0.000 A 
ATOM      7  C   UNL     1       0.403   9.014  22.919  0.00  0.00    +0.000 A 
ATOM      8  C   UNL     1      -0.394  10.058  23.381  0.00  0.00    +0.000 A 
ATOM      9  C   UNL     1      -0.962  10.937  22.468  0.00  0.00    +0.000 A 
ATOM     10  C   UNL     1      -0.656  10.824  21.112  0.00  0.00    +0.000 A 
ATOM     11  C   UNL     1       0.298   9.906  20.665  0.00  0.00    +0.000 A 
ENDROOT
BRANCH   4  12
ATOM     12  C   UNL     1       2.416   6.506  19.374  0.00  0.00    +0.000 A 
ATOM     13  C   UNL     1       2.268   5.949  18.112  0.00  0.00    +0.000 A 
ATOM     14  C   UNL     1       2.600   4.578  18.269  0.00  0.00    +0.000 A 
ATOM     15  C   UNL     1       2.221   3.371  17.667  0.00  0.00    +0.000 A 
ATOM     16  C   UNL     1       2.847   2.192  18.094  0.00  0.00    +0.000 A 
ATOM     17  C   UNL     1       3.950   2.237  18.949  0.00  0.00    +0.000 A 
ATOM     18  C   UNL     1       4.318   3.424  19.582  0.00  0.00    +0.000 A 
ATOM     19  C   UNL     1       3.496   4.520  19.326  0.00  0.00    +0.000 A 
ATOM     20  N   UNL     1       3.178   5.611  20.095  0.00  0.00    +0.000 N 
ATOM     21  H   UNL     1       3.236   5.607  21.109  0.00  0.00    +0.000 HD
ENDBRANCH   4  12
BRANCH   1  22
ATOM     22  C   UNL     1       0.749  11.051  18.379  0.00  0.00    +0.000 C 
BRANCH  22  23
ATOM     23  C   UNL     1       1.573  12.288  18.658  0.00  0.00    +0.000 A 
ATOM     24  N   UNL     1       1.740  12.840  19.853  0.00  0.00    +0.000 NA
ATOM     25  C   UNL     1       2.770  13.747  19.706  0.00  0.00    +0.000 A 
ATOM     26  C   UNL     1       3.438  14.504  20.666  0.00  0.00    +0.000 A 
ATOM     27  C   UNL     1       4.550  15.251  20.276  0.00  0.00    +0.000 A 
ATOM     28  C   UNL     1       4.981  15.263  18.949  0.00  0.00    +0.000 A 
ATOM     29  C   UNL     1       4.293  14.541  17.956  0.00  0.00    +0.000 A 
ATOM     30  C   UNL     1       3.189  13.788  18.365  0.00  0.00    +0.000 A 
ATOM     31  N   UNL     1       2.329  12.944  17.717  0.00  0.00    +0.000 N 
ATOM     32  H   UNL     1       2.388  12.687  16.737  0.00  0.00    +0.000 HD
ENDBRANCH  22  23
BRANCH  22  33
ATOM     33  C   UNL     1      -0.752  11.330  18.175  0.00  0.00    +0.000 C 
BRANCH  33  34
ATOM     34  C   UNL     1      -1.496  10.147  17.557  0.00  0.00    +0.000 C 
BRANCH  34  36
ATOM     35  C   UNL     1      -3.009  10.855  15.379  0.00  0.00    +0.000 C 
ATOM     36  S   UNL     1      -3.211  10.623  17.161  0.00  0.00    +0.000 S 
ENDBRANCH  34  36
ENDBRANCH  33  34
ENDBRANCH  22  33
ENDBRANCH   1  22
TORSDOF 6
ENDMDL
MODEL 7
REMARK VINA RESULT:      -8.2      3.305      9.569
REMARK  Name = 
REMARK  7 active torsions:
REMARK  status: ('A' for Active; 'I' for Inactive)
REMARK    1  A    between atoms: C_1  and  S_2
REMARK    2  A    between atoms: S_2  and  C_3
REMARK    3  A    between atoms: C_3  and  C_4
REMARK    4  A    between atoms: C_4  and  C_5
REMARK    5  A    between atoms: C_5  and  C_6
REMARK    6  A    between atoms: C_5  and  N_15
REMARK    7  A    between atoms: C_18  and  C_19
REMARK                            x       y       z     vdW  Elec       q    Type
REMARK                         _______ _______ _______ _____ _____    ______ ____
ROOT
ATOM      1  N   UNL     1       4.467   5.774  17.589  0.00  0.00    +0.000 N 
ATOM      2  C   UNL     1       3.810   6.974  17.850  0.00  0.00    +0.000 A 
ATOM      3  O   UNL     1       4.242   8.078  17.521  0.00  0.00    +0.000 OA
ATOM      4  C   UNL     1       2.474   6.884  18.591  0.00  0.00    +0.000 A 
ATOM      5  N   UNL     1       1.812   5.774  18.695  0.00  0.00    +0.000 NA
ATOM      6  C   UNL     1       2.454   4.593  18.292  0.00  0.00    +0.000 A 
ATOM      7  C   UNL     1       1.711   3.408  18.322  0.00  0.00    +0.000 A 
ATOM      8  C   UNL     1       2.309   2.181  18.046  0.00  0.00    +0.000 A 
ATOM      9  C   UNL     1       3.684   2.120  17.859  0.00  0.00    +0.000 A 
ATOM     10  C   UNL     1       4.437   3.294  17.856  0.00  0.00    +0.000 A 
ATOM     11  C   UNL     1       3.818   4.545  17.932  0.00  0.00    +0.000 A 
ENDROOT
BRANCH   4  12
ATOM     12  C   UNL     1       1.949   8.119  19.131  0.00  0.00    +0.000 A 
ATOM     13  C   UNL     1       1.595   8.424  20.437  0.00  0.00    +0.000 A 
ATOM     14  C   UNL     1       0.688   9.510  20.334  0.00  0.00    +0.000 A 
ATOM     15  C   UNL     1      -0.409   9.985  21.065  0.00  0.00    +0.000 A 
ATOM     16  C   UNL     1      -1.027  11.169  20.641  0.00  0.00    +0.000 A 
ATOM     17  C   UNL     1      -0.451  11.958  19.642  0.00  0.00    +0.000 A 
ATOM     18  C   UNL     1       0.619  11.485  18.884  0.00  0.00    +0.000 A 
ATOM     19  C   UNL     1       1.030  10.185  19.171  0.00  0.00    +0.000 A 
ATOM     20  N   UNL     1       1.597   9.219  18.378  0.00  0.00    +0.000 N 
ATOM     21  H   UNL     1       1.488   9.201  17.368  0.00  0.00    +0.000 HD
ENDBRANCH   4  12
BRANCH   1  22
ATOM     22  C   UNL     1       5.814   5.909  16.987  0.00  0.00    +0.000 C 
BRANCH  22  23
ATOM     23  C   UNL     1       5.912   5.435  15.555  0.00  0.00    +0.000 A 
ATOM     24  N   UNL     1       7.007   5.486  14.807  0.00  0.00    +0.000 NA
ATOM     25  C   UNL     1       6.742   4.704  13.701  0.00  0.00    +0.000 A 
ATOM     26  C   UNL     1       7.584   4.307  12.665  0.00  0.00    +0.000 A 
ATOM     27  C   UNL     1       7.108   3.390  11.727  0.00  0.00    +0.000 A 
ATOM     28  C   UNL     1       5.808   2.890  11.805  0.00  0.00    +0.000 A 
ATOM     29  C   UNL     1       4.927   3.313  12.817  0.00  0.00    +0.000 A 
ATOM     30  C   UNL     1       5.423   4.221  13.755  0.00  0.00    +0.000 A 
ATOM     31  N   UNL     1       4.897   4.804  14.876  0.00  0.00    +0.000 N 
ATOM     32  H   UNL     1       3.973   4.620  15.253  0.00  0.00    +0.000 HD
ENDBRANCH  22  23
BRANCH  22  33
ATOM     33  C   UNL     1       6.858   5.280  17.929  0.00  0.00    +0.000 C 
BRANCH  33  34
ATOM     34  C   UNL     1       7.808   6.312  18.534  0.00  0.00    +0.000 C 
BRANCH  34  36
ATOM     35  C   UNL     1       8.625   8.925  18.733  0.00  0.00    +0.000 C 
ATOM     36  S   UNL     1       7.761   7.853  17.561  0.00  0.00    +0.000 S 
ENDBRANCH  34  36
ENDBRANCH  33  34
ENDBRANCH  22  33
ENDBRANCH   1  22
TORSDOF 6
ENDMDL
MODEL 8
REMARK VINA RESULT:      -8.1      1.431      1.915
REMARK  Name = 
REMARK  7 active torsions:
REMARK  status: ('A' for Active; 'I' for Inactive)
REMARK    1  A    between atoms: C_1  and  S_2
REMARK    2  A    between atoms: S_2  and  C_3
REMARK    3  A    between atoms: C_3  and  C_4
REMARK    4  A    between atoms: C_4  and  C_5
REMARK    5  A    between atoms: C_5  and  C_6
REMARK    6  A    between atoms: C_5  and  N_15
REMARK    7  A    between atoms: C_18  and  C_19
REMARK                            x       y       z     vdW  Elec       q    Type
REMARK                         _______ _______ _______ _____ _____    ______ ____
ROOT
ATOM      1  N   UNL     1       0.606  10.197  19.337  0.00  0.00    +0.000 N 
ATOM      2  C   UNL     1       1.481   9.204  18.901  0.00  0.00    +0.000 A 
ATOM      3  O   UNL     1       2.067   9.232  17.820  0.00  0.00    +0.000 OA
ATOM      4  C   UNL     1       1.708   8.020  19.843  0.00  0.00    +0.000 A 
ATOM      5  N   UNL     1       1.384   8.061  21.099  0.00  0.00    +0.000 NA
ATOM      6  C   UNL     1       0.616   9.150  21.538  0.00  0.00    +0.000 A 
ATOM      7  C   UNL     1       0.341   9.240  22.907  0.00  0.00    +0.000 A 
ATOM      8  C   UNL     1      -0.507  10.227  23.403  0.00  0.00    +0.000 A 
ATOM      9  C   UNL     1      -1.183  11.053  22.516  0.00  0.00    +0.000 A 
ATOM     10  C   UNL     1      -0.935  10.952  21.146  0.00  0.00    +0.000 A 
ATOM     11  C   UNL     1       0.061  10.103  20.657  0.00  0.00    +0.000 A 
ENDROOT
BRANCH   4  12
ATOM     12  C   UNL     1       2.357   6.858  19.278  0.00  0.00    +0.000 A 
ATOM     13  C   UNL     1       2.238   6.319  18.006  0.00  0.00    +0.000 A 
ATOM     14  C   UNL     1       2.638   4.964  18.135  0.00  0.00    +0.000 A 
ATOM     15  C   UNL     1       2.321   3.751  17.509  0.00  0.00    +0.000 A 
ATOM     16  C   UNL     1       3.004   2.597  17.914  0.00  0.00    +0.000 A 
ATOM     17  C   UNL     1       4.104   2.680  18.771  0.00  0.00    +0.000 A 
ATOM     18  C   UNL     1       4.411   3.871  19.427  0.00  0.00    +0.000 A 
ATOM     19  C   UNL     1       3.536   4.930  19.193  0.00  0.00    +0.000 A 
ATOM     20  N   UNL     1       3.163   5.988  19.983  0.00  0.00    +0.000 N 
ATOM     21  H   UNL     1       3.221   5.967  20.996  0.00  0.00    +0.000 HD
ENDBRANCH   4  12
BRANCH   1  22
ATOM     22  C   UNL     1       0.312  11.259  18.346  0.00  0.00    +0.000 C 
BRANCH  22  23
ATOM     23  C   UNL     1       0.964  12.591  18.644  0.00  0.00    +0.000 A 
ATOM     24  N   UNL     1       0.358  13.770  18.574  0.00  0.00    +0.000 NA
ATOM     25  C   UNL     1       1.208  14.665  19.191  0.00  0.00    +0.000 A 
ATOM     26  C   UNL     1       1.012  16.007  19.513  0.00  0.00    +0.000 A 
ATOM     27  C   UNL     1       1.982  16.663  20.270  0.00  0.00    +0.000 A 
ATOM     28  C   UNL     1       3.138  16.004  20.687  0.00  0.00    +0.000 A 
ATOM     29  C   UNL     1       3.376  14.662  20.334  0.00  0.00    +0.000 A 
ATOM     30  C   UNL     1       2.390  14.015  19.586  0.00  0.00    +0.000 A 
ATOM     31  N   UNL     1       2.246  12.740  19.114  0.00  0.00    +0.000 N 
ATOM     32  H   UNL     1       2.896  11.977  19.280  0.00  0.00    +0.000 HD
ENDBRANCH  22  23
BRANCH  22  33
ATOM     33  C   UNL     1      -1.209  11.341  18.124  0.00  0.00    +0.000 C 
BRANCH  33  34
ATOM     34  C   UNL     1      -1.764  10.132  17.372  0.00  0.00    +0.000 C 
BRANCH  34  36
ATOM     35  C   UNL     1      -4.191  11.291  16.824  0.00  0.00    +0.000 C 
ATOM     36  S   UNL     1      -2.740  10.683  15.934  0.00  0.00    +0.000 S 
ENDBRANCH  34  36
ENDBRANCH  33  34
ENDBRANCH  22  33
ENDBRANCH   1  22
TORSDOF 6
ENDMDL
MODEL 9
REMARK VINA RESULT:      -8.0      1.142      1.420
REMARK  Name = 
REMARK  7 active torsions:
REMARK  status: ('A' for Active; 'I' for Inactive)
REMARK    1  A    between atoms: C_1  and  S_2
REMARK    2  A    between atoms: S_2  and  C_3
REMARK    3  A    between atoms: C_3  and  C_4
REMARK    4  A    between atoms: C_4  and  C_5
REMARK    5  A    between atoms: C_5  and  C_6
REMARK    6  A    between atoms: C_5  and  N_15
REMARK    7  A    between atoms: C_18  and  C_19
REMARK                            x       y       z     vdW  Elec       q    Type
REMARK                         _______ _______ _______ _____ _____    ______ ____
ROOT
ATOM      1  N   UNL     1       0.698  10.013  19.327  0.00  0.00    +0.000 N 
ATOM      2  C   UNL     1       1.571   8.998  18.943  0.00  0.00    +0.000 A 
ATOM      3  O   UNL     1       2.176   8.982  17.872  0.00  0.00    +0.000 OA
ATOM      4  C   UNL     1       1.771   7.847  19.931  0.00  0.00    +0.000 A 
ATOM      5  N   UNL     1       1.427   7.936  21.179  0.00  0.00    +0.000 NA
ATOM      6  C   UNL     1       0.661   9.046  21.565  0.00  0.00    +0.000 A 
ATOM      7  C   UNL     1       0.363   9.188  22.925  0.00  0.00    +0.000 A 
ATOM      8  C   UNL     1      -0.485  10.199  23.370  0.00  0.00    +0.000 A 
ATOM      9  C   UNL     1      -1.138  10.998  22.442  0.00  0.00    +0.000 A 
ATOM     10  C   UNL     1      -0.868  10.845  21.082  0.00  0.00    +0.000 A 
ATOM     11  C   UNL     1       0.129   9.972  20.641  0.00  0.00    +0.000 A 
ENDROOT
BRANCH   4  12
ATOM     12  C   UNL     1       2.420   6.660  19.420  0.00  0.00    +0.000 A 
ATOM     13  C   UNL     1       3.648   6.114  19.764  0.00  0.00    +0.000 A 
ATOM     14  C   UNL     1       4.025   5.314  18.655  0.00  0.00    +0.000 A 
ATOM     15  C   UNL     1       5.229   4.917  18.058  0.00  0.00    +0.000 A 
ATOM     16  C   UNL     1       5.170   4.045  16.962  0.00  0.00    +0.000 A 
ATOM     17  C   UNL     1       3.968   3.433  16.599  0.00  0.00    +0.000 A 
ATOM     18  C   UNL     1       2.758   3.841  17.161  0.00  0.00    +0.000 A 
ATOM     19  C   UNL     1       2.841   4.903  18.060  0.00  0.00    +0.000 A 
ATOM     20  N   UNL     1       1.946   5.893  18.376  0.00  0.00    +0.000 N 
ATOM     21  H   UNL     1       1.210   6.193  17.744  0.00  0.00    +0.000 HD
ENDBRANCH   4  12
BRANCH   1  22
ATOM     22  C   UNL     1       0.430  11.041  18.295  0.00  0.00    +0.000 C 
BRANCH  22  23
ATOM     23  C   UNL     1       1.144  12.356  18.519  0.00  0.00    +0.000 A 
ATOM     24  N   UNL     1       2.417  12.592  18.226  0.00  0.00    +0.000 NA
ATOM     25  C   UNL     1       2.572  13.961  18.314  0.00  0.00    +0.000 A 
ATOM     26  C   UNL     1       3.666  14.759  17.984  0.00  0.00    +0.000 A 
ATOM     27  C   UNL     1       3.523  16.146  18.032  0.00  0.00    +0.000 A 
ATOM     28  C   UNL     1       2.319  16.732  18.422  0.00  0.00    +0.000 A 
ATOM     29  C   UNL     1       1.217  15.944  18.803  0.00  0.00    +0.000 A 
ATOM     30  C   UNL     1       1.372  14.558  18.737  0.00  0.00    +0.000 A 
ATOM     31  N   UNL     1       0.535  13.501  18.971  0.00  0.00    +0.000 N 
ATOM     32  H   UNL     1      -0.443  13.575  19.231  0.00  0.00    +0.000 HD
ENDBRANCH  22  23
BRANCH  22  33
ATOM     33  C   UNL     1      -1.091  11.179  18.095  0.00  0.00    +0.000 C 
BRANCH  33  34
ATOM     34  C   UNL     1      -1.690  10.022  17.297  0.00  0.00    +0.000 C 
BRANCH  34  36
ATOM     35  C   UNL     1      -4.114  11.262  16.944  0.00  0.00    +0.000 C 
ATOM     36  S   UNL     1      -2.729  10.667  15.944  0.00  0.00    +0.000 S 
ENDBRANCH  34  36
ENDBRANCH  33  34
ENDBRANCH  22  33
ENDBRANCH   1  22
TORSDOF 6
ENDMDL
