MODEL 1
REMARK VINA RESULT:      -7.7      0.000      0.000
REMARK  Name = 
REMARK  10 active torsions:
REMARK  status: ('A' for Active; 'I' for Inactive)
REMARK    1  A    between atoms: C_1  and  C_2
REMARK    2  A    between atoms: C_2  and  C_3
REMARK    3  A    between atoms: C_9  and  C_10
REMARK    4  A    between atoms: C_11  and  O_12
REMARK    5  A    between atoms: O_12  and  C_13
REMARK    6  A    between atoms: C_13  and  C_14
REMARK    7  A    between atoms: N_16  and  C_17
REMARK    8  A    between atoms: C_17  and  C_18
REMARK    9  A    between atoms: C_18  and  C_19
REMARK   10  A    between atoms: C_19  and  N_20
REMARK                            x       y       z     vdW  Elec       q    Type
REMARK                         _______ _______ _______ _____ _____    ______ ____
ROOT
ATOM      1  O   UNL     1       2.539   6.901  19.153  0.00  0.00    +0.000 OA
ENDROOT
BRANCH   1  10
ATOM      2  C   UNL     1      -0.520  11.017  21.498  0.00  0.00    +0.000 A 
ATOM      3  C   UNL     1      -0.910  12.005  20.682  0.00  0.00    +0.000 A 
ATOM      4  C   UNL     1      -0.490  12.113  19.276  0.00  0.00    +0.000 A 
ATOM      5  O   UNL     1      -0.886  13.033  18.569  0.00  0.00    +0.000 OA
ATOM      6  O   UNL     1       0.352  11.120  18.801  0.00  0.00    +0.000 OA
ATOM      7  C   UNL     1       0.769  10.042  19.616  0.00  0.00    +0.000 A 
ATOM      8  C   UNL     1       1.548   9.032  19.025  0.00  0.00    +0.000 A 
ATOM      9  C   UNL     1       2.049   9.140  17.610  0.00  0.00    +0.000 C 
ATOM     10  C   UNL     1       1.878   7.906  19.800  0.00  0.00    +0.000 A 
ATOM     11  C   UNL     1       1.540   7.870  21.150  0.00  0.00    +0.000 A 
ATOM     12  C   UNL     1       0.862   8.935  21.734  0.00  0.00    +0.000 A 
ATOM     13  C   UNL     1       0.389   9.996  20.961  0.00  0.00    +0.000 A 
BRANCH   2  15
ATOM     14  C   UNL     1      -2.271  11.756  23.183  0.00  0.00    +0.000 C 
ATOM     15  C   UNL     1      -1.020  10.919  22.923  0.00  0.00    +0.000 C 
ENDBRANCH   2  15
ENDBRANCH   1  10
BRANCH   1  16
ATOM     16  C   UNL     1       2.772   5.698  19.881  0.00  0.00    +0.000 C 
BRANCH  16  17
ATOM     17  C   UNL     1       3.905   4.924  19.228  0.00  0.00    +0.000 C 
ATOM     18  O   UNL     1       3.976   3.692  19.279  0.00  0.00    +0.000 OA
ATOM     19  N   UNL     1       4.845   5.699  18.582  0.00  0.00    +0.000 N 
ATOM     20  H   UNL     1       4.732   6.711  18.609  0.00  0.00    +0.000 HD
BRANCH  19  21
ATOM     21  C   UNL     1       5.949   5.100  17.875  0.00  0.00    +0.000 C 
BRANCH  21  22
ATOM     22  C   UNL     1       5.786   5.214  16.358  0.00  0.00    +0.000 C 
BRANCH  22  23
ATOM     23  C   UNL     1       7.134   5.176  15.634  0.00  0.00    +0.000 C 
BRANCH  23  24
ATOM     24  N   UNL     1       7.035   4.711  14.261  0.00  0.00    +0.000 N 
ATOM     25  C   UNL     1       5.931   3.901  13.814  0.00  0.00    +0.000 C 
ATOM     26  C   UNL     1       6.351   3.458  12.427  0.00  0.00    +0.000 C 
ATOM     27  C   UNL     1       7.199   4.617  11.922  0.00  0.00    +0.000 C 
ATOM     28  C   UNL     1       7.809   5.171  13.191  0.00  0.00    +0.000 C 
ATOM     29  O   UNL     1       8.756   5.923  13.239  0.00  0.00    +0.000 OA
ENDBRANCH  23  24
ENDBRANCH  22  23
ENDBRANCH  21  22
ENDBRANCH  19  21
ENDBRANCH  16  17
ENDBRANCH   1  16
TORSDOF 8
ENDMDL
MODEL 2
REMARK VINA RESULT:      -7.7      3.028      5.136
REMARK  Name = 
REMARK  10 active torsions:
REMARK  status: ('A' for Active; 'I' for Inactive)
REMARK    1  A    between atoms: C_1  and  C_2
REMARK    2  A    between atoms: C_2  and  C_3
REMARK    3  A    between atoms: C_9  and  C_10
REMARK    4  A    between atoms: C_11  and  O_12
REMARK    5  A    between atoms: O_12  and  C_13
REMARK    6  A    between atoms: C_13  and  C_14
REMARK    7  A    between atoms: N_16  and  C_17
REMARK    8  A    between atoms: C_17  and  C_18
REMARK    9  A    between atoms: C_18  and  C_19
REMARK   10  A    between atoms: C_19  and  N_20
REMARK                            x       y       z     vdW  Elec       q    Type
REMARK                         _______ _______ _______ _____ _____    ______ ____
ROOT
ATOM      1  O   UNL     1       2.443   7.531  17.767  0.00  0.00    +0.000 OA
ENDROOT
BRANCH   1  10
ATOM      2  C   UNL     1      -0.304  11.217  21.032  0.00  0.00    +0.000 A 
ATOM      3  C   UNL     1      -0.318  10.951  22.345  0.00  0.00    +0.000 A 
ATOM      4  C   UNL     1       0.238   9.722  22.933  0.00  0.00    +0.000 A 
ATOM      5  O   UNL     1       0.209   9.533  24.144  0.00  0.00    +0.000 OA
ATOM      6  O   UNL     1       0.799   8.811  22.052  0.00  0.00    +0.000 OA
ATOM      7  C   UNL     1       0.862   9.059  20.661  0.00  0.00    +0.000 A 
ATOM      8  C   UNL     1       1.533   8.123  19.854  0.00  0.00    +0.000 A 
ATOM      9  C   UNL     1       2.055   6.826  20.409  0.00  0.00    +0.000 C 
ATOM     10  C   UNL     1       1.689   8.413  18.487  0.00  0.00    +0.000 A 
ATOM     11  C   UNL     1       1.081   9.541  17.944  0.00  0.00    +0.000 A 
ATOM     12  C   UNL     1       0.332  10.394  18.748  0.00  0.00    +0.000 A 
ATOM     13  C   UNL     1       0.282  10.216  20.131  0.00  0.00    +0.000 A 
BRANCH   2  15
ATOM     14  C   UNL     1      -1.622  13.336  21.508  0.00  0.00    +0.000 C 
ATOM     15  C   UNL     1      -0.842  12.519  20.479  0.00  0.00    +0.000 C 
ENDBRANCH   2  15
ENDBRANCH   1  10
BRANCH   1  16
ATOM     16  C   UNL     1       3.805   7.880  17.529  0.00  0.00    +0.000 C 
BRANCH  16  17
ATOM     17  C   UNL     1       4.634   6.612  17.401  0.00  0.00    +0.000 C 
ATOM     18  O   UNL     1       5.853   6.640  17.204  0.00  0.00    +0.000 OA
ATOM     19  N   UNL     1       3.924   5.435  17.516  0.00  0.00    +0.000 N 
ATOM     20  H   UNL     1       2.916   5.495  17.649  0.00  0.00    +0.000 HD
BRANCH  19  21
ATOM     21  C   UNL     1       4.586   4.156  17.465  0.00  0.00    +0.000 C 
BRANCH  21  22
ATOM     22  C   UNL     1       4.885   3.611  18.863  0.00  0.00    +0.000 C 
BRANCH  22  23
ATOM     23  C   UNL     1       4.111   2.323  19.152  0.00  0.00    +0.000 C 
BRANCH  23  24
ATOM     24  N   UNL     1       2.859   2.550  19.853  0.00  0.00    +0.000 N 
ATOM     25  C   UNL     1       2.821   2.820  21.267  0.00  0.00    +0.000 C 
ATOM     26  C   UNL     1       1.346   2.749  21.606  0.00  0.00    +0.000 C 
ATOM     27  C   UNL     1       0.662   3.224  20.331  0.00  0.00    +0.000 C 
ATOM     28  C   UNL     1       1.620   2.782  19.246  0.00  0.00    +0.000 C 
ATOM     29  O   UNL     1       1.354   2.712  18.068  0.00  0.00    +0.000 OA
ENDBRANCH  23  24
ENDBRANCH  22  23
ENDBRANCH  21  22
ENDBRANCH  19  21
ENDBRANCH  16  17
ENDBRANCH   1  16
TORSDOF 8
ENDMDL
MODEL 3
REMARK VINA RESULT:      -7.6      2.164      2.626
REMARK  Name = 
REMARK  10 active torsions:
REMARK  status: ('A' for Active; 'I' for Inactive)
REMARK    1  A    between atoms: C_1  and  C_2
REMARK    2  A    between atoms: C_2  and  C_3
REMARK    3  A    between atoms: C_9  and  C_10
REMARK    4  A    between atoms: C_11  and  O_12
REMARK    5  A    between atoms: O_12  and  C_13
REMARK    6  A    between atoms: C_13  and  C_14
REMARK    7  A    between atoms: N_16  and  C_17
REMARK    8  A    between atoms: C_17  and  C_18
REMARK    9  A    between atoms: C_18  and  C_19
REMARK   10  A    between atoms: C_19  and  N_20
REMARK                            x       y       z     vdW  Elec       q    Type
REMARK                         _______ _______ _______ _____ _____    ______ ____
ROOT
ATOM      1  O   UNL     1       2.140   6.887  20.043  0.00  0.00    +0.000 OA
ENDROOT
BRANCH   1  10
ATOM      2  C   UNL     1      -0.454  11.715  21.369  0.00  0.00    +0.000 A 
ATOM      3  C   UNL     1      -0.754  12.527  20.346  0.00  0.00    +0.000 A 
ATOM      4  C   UNL     1      -0.348  12.270  18.956  0.00  0.00    +0.000 A 
ATOM      5  O   UNL     1      -0.659  13.041  18.056  0.00  0.00    +0.000 OA
ATOM      6  O   UNL     1       0.384  11.116  18.726  0.00  0.00    +0.000 OA
ATOM      7  C   UNL     1       0.702  10.214  19.767  0.00  0.00    +0.000 A 
ATOM      8  C   UNL     1       1.366   9.022  19.427  0.00  0.00    +0.000 A 
ATOM      9  C   UNL     1       1.855   8.755  18.029  0.00  0.00    +0.000 C 
ATOM     10  C   UNL     1       1.594   8.074  20.441  0.00  0.00    +0.000 A 
ATOM     11  C   UNL     1       1.275   8.379  21.761  0.00  0.00    +0.000 A 
ATOM     12  C   UNL     1       0.715   9.612  22.082  0.00  0.00    +0.000 A 
ATOM     13  C   UNL     1       0.340  10.512  21.085  0.00  0.00    +0.000 A 
BRANCH   2  15
ATOM     14  C   UNL     1      -2.455  12.152  22.870  0.00  0.00    +0.000 C 
ATOM     15  C   UNL     1      -0.939  11.994  22.775  0.00  0.00    +0.000 C 
ENDBRANCH   2  15
ENDBRANCH   1  10
BRANCH   1  16
ATOM     16  C   UNL     1       1.707   5.710  20.722  0.00  0.00    +0.000 C 
BRANCH  16  17
ATOM     17  C   UNL     1       2.621   4.552  20.356  0.00  0.00    +0.000 C 
ATOM     18  O   UNL     1       2.640   3.499  21.001  0.00  0.00    +0.000 OA
ATOM     19  N   UNL     1       3.428   4.769  19.259  0.00  0.00    +0.000 N 
ATOM     20  H   UNL     1       3.376   5.676  18.798  0.00  0.00    +0.000 HD
BRANCH  19  21
ATOM     21  C   UNL     1       4.311   3.742  18.767  0.00  0.00    +0.000 C 
BRANCH  21  22
ATOM     22  C   UNL     1       4.066   3.438  17.288  0.00  0.00    +0.000 C 
BRANCH  22  23
ATOM     23  C   UNL     1       5.205   3.949  16.402  0.00  0.00    +0.000 C 
BRANCH  23  24
ATOM     24  N   UNL     1       5.960   5.034  17.006  0.00  0.00    +0.000 N 
ATOM     25  C   UNL     1       7.310   4.849  17.474  0.00  0.00    +0.000 C 
ATOM     26  C   UNL     1       7.607   6.129  18.226  0.00  0.00    +0.000 C 
ATOM     27  C   UNL     1       6.783   7.177  17.490  0.00  0.00    +0.000 C 
ATOM     28  C   UNL     1       5.599   6.384  16.983  0.00  0.00    +0.000 C 
ATOM     29  O   UNL     1       4.563   6.862  16.578  0.00  0.00    +0.000 OA
ENDBRANCH  23  24
ENDBRANCH  22  23
ENDBRANCH  21  22
ENDBRANCH  19  21
ENDBRANCH  16  17
ENDBRANCH   1  16
TORSDOF 8
ENDMDL
MODEL 4
REMARK VINA RESULT:      -7.6      2.115      9.606
REMARK  Name = 
REMARK  10 active torsions:
REMARK  status: ('A' for Active; 'I' for Inactive)
REMARK    1  A    between atoms: C_1  and  C_2
REMARK    2  A    between atoms: C_2  and  C_3
REMARK    3  A    between atoms: C_9  and  C_10
REMARK    4  A    between atoms: C_11  and  O_12
REMARK    5  A    between atoms: O_12  and  C_13
REMARK    6  A    between atoms: C_13  and  C_14
REMARK    7  A    between atoms: N_16  and  C_17
REMARK    8  A    between atoms: C_17  and  C_18
REMARK    9  A    between atoms: C_18  and  C_19
REMARK   10  A    between atoms: C_19  and  N_20
REMARK                            x       y       z     vdW  Elec       q    Type
REMARK                         _______ _______ _______ _____ _____    ______ ____
ROOT
ATOM      1  O   UNL     1       5.214   4.569  18.552  0.00  0.00    +0.000 OA
ENDROOT
BRANCH   1  10
ATOM      2  C   UNL     1       6.340   3.833  13.075  0.00  0.00    +0.000 A 
ATOM      3  C   UNL     1       7.392   4.507  12.590  0.00  0.00    +0.000 A 
ATOM      4  C   UNL     1       8.167   5.481  13.375  0.00  0.00    +0.000 A 
ATOM      5  O   UNL     1       9.129   6.061  12.885  0.00  0.00    +0.000 OA
ATOM      6  O   UNL     1       7.760   5.689  14.683  0.00  0.00    +0.000 OA
ATOM      7  C   UNL     1       6.673   4.983  15.248  0.00  0.00    +0.000 A 
ATOM      8  C   UNL     1       6.390   5.189  16.610  0.00  0.00    +0.000 A 
ATOM      9  C   UNL     1       7.117   6.223  17.426  0.00  0.00    +0.000 C 
ATOM     10  C   UNL     1       5.378   4.415  17.205  0.00  0.00    +0.000 A 
ATOM     11  C   UNL     1       4.606   3.562  16.420  0.00  0.00    +0.000 A 
ATOM     12  C   UNL     1       4.840   3.459  15.053  0.00  0.00    +0.000 A 
ATOM     13  C   UNL     1       5.929   4.098  14.461  0.00  0.00    +0.000 A 
BRANCH   2  15
ATOM     14  C   UNL     1       4.393   3.371  11.510  0.00  0.00    +0.000 C 
ATOM     15  C   UNL     1       5.605   2.802  12.247  0.00  0.00    +0.000 C 
ENDBRANCH   2  15
ENDBRANCH   1  10
BRANCH   1  16
ATOM     16  C   UNL     1       4.060   3.973  19.141  0.00  0.00    +0.000 C 
BRANCH  16  17
ATOM     17  C   UNL     1       2.924   4.982  19.155  0.00  0.00    +0.000 C 
ATOM     18  O   UNL     1       1.741   4.642  19.053  0.00  0.00    +0.000 OA
ATOM     19  N   UNL     1       3.313   6.299  19.284  0.00  0.00    +0.000 N 
ATOM     20  H   UNL     1       4.311   6.500  19.333  0.00  0.00    +0.000 HD
BRANCH  19  21
ATOM     21  C   UNL     1       2.342   7.360  19.362  0.00  0.00    +0.000 C 
BRANCH  21  22
ATOM     22  C   UNL     1       2.106   8.021  18.003  0.00  0.00    +0.000 C 
BRANCH  22  23
ATOM     23  C   UNL     1       2.075   9.547  18.105  0.00  0.00    +0.000 C 
BRANCH  23  24
ATOM     24  N   UNL     1       0.761  10.073  18.434  0.00  0.00    +0.000 N 
ATOM     25  C   UNL     1      -0.426   9.626  17.753  0.00  0.00    +0.000 C 
ATOM     26  C   UNL     1      -1.496  10.587  18.230  0.00  0.00    +0.000 C 
ATOM     27  C   UNL     1      -1.052  10.946  19.642  0.00  0.00    +0.000 C 
ATOM     28  C   UNL     1       0.455  10.844  19.560  0.00  0.00    +0.000 C 
ATOM     29  O   UNL     1       1.229  11.302  20.370  0.00  0.00    +0.000 OA
ENDBRANCH  23  24
ENDBRANCH  22  23
ENDBRANCH  21  22
ENDBRANCH  19  21
ENDBRANCH  16  17
ENDBRANCH   1  16
TORSDOF 8
ENDMDL
MODEL 5
REMARK VINA RESULT:      -7.6      3.439      9.552
REMARK  Name = 
REMARK  10 active torsions:
REMARK  status: ('A' for Active; 'I' for Inactive)
REMARK    1  A    between atoms: C_1  and  C_2
REMARK    2  A    between atoms: C_2  and  C_3
REMARK    3  A    between atoms: C_9  and  C_10
REMARK    4  A    between atoms: C_11  and  O_12
REMARK    5  A    between atoms: O_12  and  C_13
REMARK    6  A    between atoms: C_13  and  C_14
REMARK    7  A    between atoms: N_16  and  C_17
REMARK    8  A    between atoms: C_17  and  C_18
REMARK    9  A    between atoms: C_18  and  C_19
REMARK   10  A    between atoms: C_19  and  N_20
REMARK                            x       y       z     vdW  Elec       q    Type
REMARK                         _______ _______ _______ _____ _____    ______ ____
ROOT
ATOM      1  O   UNL     1       1.517   7.675  20.355  0.00  0.00    +0.000 OA
ENDROOT
BRANCH   1  10
ATOM      2  C   UNL     1       4.479   4.537  16.725  0.00  0.00    +0.000 A 
ATOM      3  C   UNL     1       4.417   3.210  16.900  0.00  0.00    +0.000 A 
ATOM      4  C   UNL     1       3.723   2.569  18.028  0.00  0.00    +0.000 A 
ATOM      5  O   UNL     1       3.687   1.348  18.135  0.00  0.00    +0.000 OA
ATOM      6  O   UNL     1       3.110   3.413  18.941  0.00  0.00    +0.000 OA
ATOM      7  C   UNL     1       3.126   4.818  18.785  0.00  0.00    +0.000 A 
ATOM      8  C   UNL     1       2.399   5.592  19.708  0.00  0.00    +0.000 A 
ATOM      9  C   UNL     1       1.733   4.978  20.910  0.00  0.00    +0.000 C 
ATOM     10  C   UNL     1       2.324   6.980  19.500  0.00  0.00    +0.000 A 
ATOM     11  C   UNL     1       3.058   7.569  18.474  0.00  0.00    +0.000 A 
ATOM     12  C   UNL     1       3.854   6.789  17.641  0.00  0.00    +0.000 A 
ATOM     13  C   UNL     1       3.834   5.396  17.727  0.00  0.00    +0.000 A 
BRANCH   2  15
ATOM     14  C   UNL     1       6.270   4.271  14.943  0.00  0.00    +0.000 C 
ATOM     15  C   UNL     1       5.160   5.149  15.520  0.00  0.00    +0.000 C 
ENDBRANCH   2  15
ENDBRANCH   1  10
BRANCH   1  16
ATOM     16  C   UNL     1       1.237   9.035  20.029  0.00  0.00    +0.000 C 
BRANCH  16  17
ATOM     17  C   UNL     1       0.202   9.583  20.997  0.00  0.00    +0.000 C 
ATOM     18  O   UNL     1      -0.350   8.871  21.842  0.00  0.00    +0.000 OA
ATOM     19  N   UNL     1      -0.076  10.926  20.856  0.00  0.00    +0.000 N 
ATOM     20  H   UNL     1       0.399  11.439  20.115  0.00  0.00    +0.000 HD
BRANCH  19  21
ATOM     21  C   UNL     1      -1.002  11.593  21.737  0.00  0.00    +0.000 C 
BRANCH  21  22
ATOM     22  C   UNL     1      -2.092  12.336  20.964  0.00  0.00    +0.000 C 
BRANCH  22  23
ATOM     23  C   UNL     1      -1.781  12.414  19.468  0.00  0.00    +0.000 C 
BRANCH  23  24
ATOM     24  N   UNL     1      -2.585  11.507  18.666  0.00  0.00    +0.000 N 
ATOM     25  C   UNL     1      -3.990  11.733  18.446  0.00  0.00    +0.000 C 
ATOM     26  C   UNL     1      -4.459  10.454  17.784  0.00  0.00    +0.000 C 
ATOM     27  C   UNL     1      -3.239   9.985  17.005  0.00  0.00    +0.000 C 
ATOM     28  C   UNL     1      -2.085  10.498  17.838  0.00  0.00    +0.000 C 
ATOM     29  O   UNL     1      -0.937  10.128  17.740  0.00  0.00    +0.000 OA
ENDBRANCH  23  24
ENDBRANCH  22  23
ENDBRANCH  21  22
ENDBRANCH  19  21
ENDBRANCH  16  17
ENDBRANCH   1  16
TORSDOF 8
ENDMDL
MODEL 6
REMARK VINA RESULT:      -7.6      2.992      5.166
REMARK  Name = 
REMARK  10 active torsions:
REMARK  status: ('A' for Active; 'I' for Inactive)
REMARK    1  A    between atoms: C_1  and  C_2
REMARK    2  A    between atoms: C_2  and  C_3
REMARK    3  A    between atoms: C_9  and  C_10
REMARK    4  A    between atoms: C_11  and  O_12
REMARK    5  A    between atoms: O_12  and  C_13
REMARK    6  A    between atoms: C_13  and  C_14
REMARK    7  A    between atoms: N_16  and  C_17
REMARK    8  A    between atoms: C_17  and  C_18
REMARK    9  A    between atoms: C_18  and  C_19
REMARK   10  A    between atoms: C_19  and  N_20
REMARK                            x       y       z     vdW  Elec       q    Type
REMARK                         _______ _______ _______ _____ _____    ______ ____
ROOT
ATOM      1  O   UNL     1       2.726   7.596  18.674  0.00  0.00    +0.000 OA
ENDROOT
BRANCH   1  10
ATOM      2  C   UNL     1      -0.800  11.807  19.951  0.00  0.00    +0.000 A 
ATOM      3  C   UNL     1      -1.162  11.909  21.237  0.00  0.00    +0.000 A 
ATOM      4  C   UNL     1      -0.779  10.933  22.270  0.00  0.00    +0.000 A 
ATOM      5  O   UNL     1      -1.128  11.080  23.436  0.00  0.00    +0.000 OA
ATOM      6  O   UNL     1      -0.001   9.864  21.857  0.00  0.00    +0.000 OA
ATOM      7  C   UNL     1       0.428   9.727  20.516  0.00  0.00    +0.000 A 
ATOM      8  C   UNL     1       1.292   8.662  20.206  0.00  0.00    +0.000 A 
ATOM      9  C   UNL     1       1.652   7.609  21.219  0.00  0.00    +0.000 C 
ATOM     10  C   UNL     1       1.805   8.579  18.899  0.00  0.00    +0.000 A 
ATOM     11  C   UNL     1       1.361   9.466  17.922  0.00  0.00    +0.000 A 
ATOM     12  C   UNL     1       0.423  10.445  18.234  0.00  0.00    +0.000 A 
ATOM     13  C   UNL     1       0.008  10.647  19.550  0.00  0.00    +0.000 A 
BRANCH   2  15
ATOM     14  C   UNL     1      -0.207  14.046  18.908  0.00  0.00    +0.000 C 
ATOM     15  C   UNL     1      -1.174  12.864  18.934  0.00  0.00    +0.000 C 
ENDBRANCH   2  15
ENDBRANCH   1  10
BRANCH   1  16
ATOM     16  C   UNL     1       3.375   7.588  17.405  0.00  0.00    +0.000 C 
BRANCH  16  17
ATOM     17  C   UNL     1       4.296   6.382  17.317  0.00  0.00    +0.000 C 
ATOM     18  O   UNL     1       5.348   6.402  16.672  0.00  0.00    +0.000 OA
ATOM     19  N   UNL     1       3.864   5.266  18.004  0.00  0.00    +0.000 N 
ATOM     20  H   UNL     1       2.969   5.319  18.488  0.00  0.00    +0.000 HD
BRANCH  19  21
ATOM     21  C   UNL     1       4.658   4.064  18.051  0.00  0.00    +0.000 C 
BRANCH  21  22
ATOM     22  C   UNL     1       3.934   2.876  17.416  0.00  0.00    +0.000 C 
BRANCH  22  23
ATOM     23  C   UNL     1       3.370   1.920  18.470  0.00  0.00    +0.000 C 
BRANCH  23  24
ATOM     24  N   UNL     1       2.531   2.581  19.455  0.00  0.00    +0.000 N 
ATOM     25  C   UNL     1       1.202   3.035  19.136  0.00  0.00    +0.000 C 
ATOM     26  C   UNL     1       0.804   3.856  20.345  0.00  0.00    +0.000 C 
ATOM     27  C   UNL     1       1.538   3.179  21.494  0.00  0.00    +0.000 C 
ATOM     28  C   UNL     1       2.781   2.632  20.829  0.00  0.00    +0.000 C 
ATOM     29  O   UNL     1       3.774   2.256  21.411  0.00  0.00    +0.000 OA
ENDBRANCH  23  24
ENDBRANCH  22  23
ENDBRANCH  21  22
ENDBRANCH  19  21
ENDBRANCH  16  17
ENDBRANCH   1  16
TORSDOF 8
ENDMDL
MODEL 7
REMARK VINA RESULT:      -7.5      2.988      5.051
REMARK  Name = 
REMARK  10 active torsions:
REMARK  status: ('A' for Active; 'I' for Inactive)
REMARK    1  A    between atoms: C_1  and  C_2
REMARK    2  A    between atoms: C_2  and  C_3
REMARK    3  A    between atoms: C_9  and  C_10
REMARK    4  A    between atoms: C_11  and  O_12
REMARK    5  A    between atoms: O_12  and  C_13
REMARK    6  A    between atoms: C_13  and  C_14
REMARK    7  A    between atoms: N_16  and  C_17
REMARK    8  A    between atoms: C_17  and  C_18
REMARK    9  A    between atoms: C_18  and  C_19
REMARK   10  A    between atoms: C_19  and  N_20
REMARK                            x       y       z     vdW  Elec       q    Type
REMARK                         _______ _______ _______ _____ _____    ______ ____
ROOT
ATOM      1  O   UNL     1       2.478   7.412  19.324  0.00  0.00    +0.000 OA
ENDROOT
BRANCH   1  10
ATOM      2  C   UNL     1      -0.601  12.125  19.640  0.00  0.00    +0.000 A 
ATOM      3  C   UNL     1      -1.138  12.405  20.835  0.00  0.00    +0.000 A 
ATOM      4  C   UNL     1      -1.052  11.505  21.996  0.00  0.00    +0.000 A 
ATOM      5  O   UNL     1      -1.551  11.815  23.072  0.00  0.00    +0.000 OA
ATOM      6  O   UNL     1      -0.371  10.313  21.809  0.00  0.00    +0.000 OA
ATOM      7  C   UNL     1       0.235   9.985  20.574  0.00  0.00    +0.000 A 
ATOM      8  C   UNL     1       0.984   8.797  20.502  0.00  0.00    +0.000 A 
ATOM      9  C   UNL     1       1.040   7.822  21.647  0.00  0.00    +0.000 C 
ATOM     10  C   UNL     1       1.675   8.517  19.310  0.00  0.00    +0.000 A 
ATOM     11  C   UNL     1       1.508   9.342  18.201  0.00  0.00    +0.000 A 
ATOM     12  C   UNL     1       0.674  10.453  18.270  0.00  0.00    +0.000 A 
ATOM     13  C   UNL     1       0.094  10.842  19.478  0.00  0.00    +0.000 A 
BRANCH   2  15
ATOM     14  C   UNL     1       0.094  14.402  18.753  0.00  0.00    +0.000 C 
ATOM     15  C   UNL     1      -0.670  13.106  18.489  0.00  0.00    +0.000 C 
ENDBRANCH   2  15
ENDBRANCH   1  10
BRANCH   1  16
ATOM     16  C   UNL     1       3.156   7.083  18.114  0.00  0.00    +0.000 C 
BRANCH  16  17
ATOM     17  C   UNL     1       3.939   5.795  18.310  0.00  0.00    +0.000 C 
ATOM     18  O   UNL     1       4.509   5.526  19.372  0.00  0.00    +0.000 OA
ATOM     19  N   UNL     1       3.970   4.958  17.214  0.00  0.00    +0.000 N 
ATOM     20  H   UNL     1       3.500   5.264  16.364  0.00  0.00    +0.000 HD
BRANCH  19  21
ATOM     21  C   UNL     1       4.633   3.679  17.270  0.00  0.00    +0.000 C 
BRANCH  21  22
ATOM     22  C   UNL     1       3.639   2.517  17.240  0.00  0.00    +0.000 C 
BRANCH  22  23
ATOM     23  C   UNL     1       3.514   1.836  18.605  0.00  0.00    +0.000 C 
BRANCH  23  24
ATOM     24  N   UNL     1       2.597   2.516  19.504  0.00  0.00    +0.000 N 
ATOM     25  C   UNL     1       2.929   2.757  20.884  0.00  0.00    +0.000 C 
ATOM     26  C   UNL     1       1.629   3.252  21.484  0.00  0.00    +0.000 C 
ATOM     27  C   UNL     1       0.951   3.972  20.326  0.00  0.00    +0.000 C 
ATOM     28  C   UNL     1       1.449   3.214  19.115  0.00  0.00    +0.000 C 
ATOM     29  O   UNL     1       0.961   3.270  18.010  0.00  0.00    +0.000 OA
ENDBRANCH  23  24
ENDBRANCH  22  23
ENDBRANCH  21  22
ENDBRANCH  19  21
ENDBRANCH  16  17
ENDBRANCH   1  16
TORSDOF 8
ENDMDL
MODEL 8
REMARK VINA RESULT:      -7.5      2.125      2.902
REMARK  Name = 
REMARK  10 active torsions:
REMARK  status: ('A' for Active; 'I' for Inactive)
REMARK    1  A    between atoms: C_1  and  C_2
REMARK    2  A    between atoms: C_2  and  C_3
REMARK    3  A    between atoms: C_9  and  C_10
REMARK    4  A    between atoms: C_11  and  O_12
REMARK    5  A    between atoms: O_12  and  C_13
REMARK    6  A    between atoms: C_13  and  C_14
REMARK    7  A    between atoms: N_16  and  C_17
REMARK    8  A    between atoms: C_17  and  C_18
REMARK    9  A    between atoms: C_18  and  C_19
REMARK   10  A    between atoms: C_19  and  N_20
REMARK                            x       y       z     vdW  Elec       q    Type
REMARK                         _______ _______ _______ _____ _____    ______ ____
ROOT
ATOM      1  O   UNL     1       2.325   7.088  19.953  0.00  0.00    +0.000 OA
ENDROOT
BRANCH   1  10
ATOM      2  C   UNL     1      -0.730  11.568  21.498  0.00  0.00    +0.000 A 
ATOM      3  C   UNL     1      -1.079  12.415  20.520  0.00  0.00    +0.000 A 
ATOM      4  C   UNL     1      -0.617  12.285  19.129  0.00  0.00    +0.000 A 
ATOM      5  O   UNL     1      -0.976  13.083  18.270  0.00  0.00    +0.000 OA
ATOM      6  O   UNL     1       0.222  11.219  18.849  0.00  0.00    +0.000 OA
ATOM      7  C   UNL     1       0.596  10.284  19.842  0.00  0.00    +0.000 A 
ATOM      8  C   UNL     1       1.374   9.181  19.448  0.00  0.00    +0.000 A 
ATOM      9  C   UNL     1       1.919   9.050  18.051  0.00  0.00    +0.000 C 
ATOM     10  C   UNL     1       1.663   8.193  20.407  0.00  0.00    +0.000 A 
ATOM     11  C   UNL     1       1.286   8.382  21.733  0.00  0.00    +0.000 A 
ATOM     12  C   UNL     1       0.609   9.536  22.114  0.00  0.00    +0.000 A 
ATOM     13  C   UNL     1       0.177  10.462  21.164  0.00  0.00    +0.000 A 
BRANCH   2  15
ATOM     14  C   UNL     1      -2.748  12.102  22.945  0.00  0.00    +0.000 C 
ATOM     15  C   UNL     1      -1.272  11.711  22.904  0.00  0.00    +0.000 C 
ENDBRANCH   2  15
ENDBRANCH   1  10
BRANCH   1  16
ATOM     16  C   UNL     1       1.801   5.815  20.325  0.00  0.00    +0.000 C 
BRANCH  16  17
ATOM     17  C   UNL     1       1.858   4.877  19.130  0.00  0.00    +0.000 C 
ATOM     18  O   UNL     1       1.692   5.275  17.973  0.00  0.00    +0.000 OA
ATOM     19  N   UNL     1       2.101   3.555  19.437  0.00  0.00    +0.000 N 
ATOM     20  H   UNL     1       2.197   3.300  20.418  0.00  0.00    +0.000 HD
BRANCH  19  21
ATOM     21  C   UNL     1       2.230   2.560  18.402  0.00  0.00    +0.000 C 
BRANCH  21  22
ATOM     22  C   UNL     1       3.693   2.295  18.042  0.00  0.00    +0.000 C 
BRANCH  22  23
ATOM     23  C   UNL     1       4.231   3.321  17.043  0.00  0.00    +0.000 C 
BRANCH  23  24
ATOM     24  N   UNL     1       5.338   4.105  17.564  0.00  0.00    +0.000 N 
ATOM     25  C   UNL     1       5.449   4.420  18.966  0.00  0.00    +0.000 C 
ATOM     26  C   UNL     1       6.580   5.426  19.018  0.00  0.00    +0.000 C 
ATOM     27  C   UNL     1       7.481   5.013  17.862  0.00  0.00    +0.000 C 
ATOM     28  C   UNL     1       6.507   4.422  16.867  0.00  0.00    +0.000 C 
ATOM     29  O   UNL     1       6.746   4.213  15.699  0.00  0.00    +0.000 OA
ENDBRANCH  23  24
ENDBRANCH  22  23
ENDBRANCH  21  22
ENDBRANCH  19  21
ENDBRANCH  16  17
ENDBRANCH   1  16
TORSDOF 8
ENDMDL
MODEL 9
REMARK VINA RESULT:      -7.5      2.980      4.946
REMARK  Name = 
REMARK  10 active torsions:
REMARK  status: ('A' for Active; 'I' for Inactive)
REMARK    1  A    between atoms: C_1  and  C_2
REMARK    2  A    between atoms: C_2  and  C_3
REMARK    3  A    between atoms: C_9  and  C_10
REMARK    4  A    between atoms: C_11  and  O_12
REMARK    5  A    between atoms: O_12  and  C_13
REMARK    6  A    between atoms: C_13  and  C_14
REMARK    7  A    between atoms: N_16  and  C_17
REMARK    8  A    between atoms: C_17  and  C_18
REMARK    9  A    between atoms: C_18  and  C_19
REMARK   10  A    between atoms: C_19  and  N_20
REMARK                            x       y       z     vdW  Elec       q    Type
REMARK                         _______ _______ _______ _____ _____    ______ ____
ROOT
ATOM      1  O   UNL     1       2.787   7.374  18.530  0.00  0.00    +0.000 OA
ENDROOT
BRANCH   1  10
ATOM      2  C   UNL     1      -0.245  11.856  20.116  0.00  0.00    +0.000 A 
ATOM      3  C   UNL     1      -0.683  11.858  21.383  0.00  0.00    +0.000 A 
ATOM      4  C   UNL     1      -0.506  10.727  22.307  0.00  0.00    +0.000 A 
ATOM      5  O   UNL     1      -0.917  10.786  23.460  0.00  0.00    +0.000 OA
ATOM      6  O   UNL     1       0.154   9.615  21.809  0.00  0.00    +0.000 OA
ATOM      7  C   UNL     1       0.658   9.576  20.489  0.00  0.00    +0.000 A 
ATOM      8  C   UNL     1       1.396   8.444  20.098  0.00  0.00    +0.000 A 
ATOM      9  C   UNL     1       1.542   7.242  20.992  0.00  0.00    +0.000 C 
ATOM     10  C   UNL     1       1.988   8.442  18.822  0.00  0.00    +0.000 A 
ATOM     11  C   UNL     1       1.735   9.488  17.939  0.00  0.00    +0.000 A 
ATOM     12  C   UNL     1       0.912  10.544  18.316  0.00  0.00    +0.000 A 
ATOM     13  C   UNL     1       0.432  10.650  19.622  0.00  0.00    +0.000 A 
BRANCH   2  15
ATOM     14  C   UNL     1      -0.969  14.284  19.943  0.00  0.00    +0.000 C 
ATOM     15  C   UNL     1      -0.404  13.063  19.218  0.00  0.00    +0.000 C 
ENDBRANCH   2  15
ENDBRANCH   1  10
BRANCH   1  16
ATOM     16  C   UNL     1       3.470   7.393  17.278  0.00  0.00    +0.000 C 
BRANCH  16  17
ATOM     17  C   UNL     1       4.445   6.228  17.219  0.00  0.00    +0.000 C 
ATOM     18  O   UNL     1       4.856   5.768  16.149  0.00  0.00    +0.000 OA
ATOM     19  N   UNL     1       4.828   5.724  18.444  0.00  0.00    +0.000 N 
ATOM     20  H   UNL     1       4.421   6.138  19.281  0.00  0.00    +0.000 HD
BRANCH  19  21
ATOM     21  C   UNL     1       5.785   4.651  18.543  0.00  0.00    +0.000 C 
BRANCH  21  22
ATOM     22  C   UNL     1       5.218   3.446  19.295  0.00  0.00    +0.000 C 
BRANCH  22  23
ATOM     23  C   UNL     1       3.980   2.870  18.603  0.00  0.00    +0.000 C 
BRANCH  23  24
ATOM     24  N   UNL     1       2.765   3.014  19.387  0.00  0.00    +0.000 N 
ATOM     25  C   UNL     1       2.758   2.826  20.815  0.00  0.00    +0.000 C 
ATOM     26  C   UNL     1       1.286   2.830  21.170  0.00  0.00    +0.000 C 
ATOM     27  C   UNL     1       0.670   3.761  20.134  0.00  0.00    +0.000 C 
ATOM     28  C   UNL     1       1.567   3.572  18.931  0.00  0.00    +0.000 C 
ATOM     29  O   UNL     1       1.296   3.910  17.801  0.00  0.00    +0.000 OA
ENDBRANCH  23  24
ENDBRANCH  22  23
ENDBRANCH  21  22
ENDBRANCH  19  21
ENDBRANCH  16  17
ENDBRANCH   1  16
TORSDOF 8
ENDMDL
