MODEL 1
REMARK VINA RESULT:      -7.6      0.000      0.000
REMARK  Name = 
REMARK  9 active torsions:
REMARK  status: ('A' for Active; 'I' for Inactive)
REMARK    1  A    between atoms: C_1  and  C_2
REMARK    2  A    between atoms: C_2  and  N_3
REMARK    3  A    between atoms: C_4  and  C_6
REMARK    4  A    between atoms: C_6  and  C_7
REMARK    5  A    between atoms: C_7  and  N_8
REMARK    6  A    between atoms: C_7  and  C_9
REMARK    7  A    between atoms: C_9  and  C_10
REMARK    8  A    between atoms: N_19  and  C_20
REMARK    9  A    between atoms: C_20  and  C_21
REMARK                            x       y       z     vdW  Elec       q    Type
REMARK                         _______ _______ _______ _____ _____    ______ ____
ROOT
ATOM      1  N   UNL     1       6.018   7.399  17.428  0.00  0.00    +0.000 N 
ATOM      2  C   UNL     1       7.323   7.758  17.059  0.00  0.00    +0.000 C 
ATOM      3  O   UNL     1       8.048   7.056  16.386  0.00  0.00    +0.000 OA
ATOM      4  H   UNL     1       5.391   8.171  17.595  0.00  0.00    +0.000 HD
ENDROOT
BRANCH   1   6
ATOM      5  C   UNL     1       5.131   6.142  15.499  0.00  0.00    +0.000 C 
ATOM      6  C   UNL     1       5.415   6.118  17.013  0.00  0.00    +0.000 C 
ATOM      7  C   UNL     1       6.413   4.956  17.286  0.00  0.00    +0.000 C 
ATOM      8  C   UNL     1       6.532   4.571  18.767  0.00  0.00    +0.000 C 
ATOM      9  N   UNL     1       5.241   4.357  19.437  0.00  0.00    +0.000 NA
ATOM     10  C   UNL     1       4.427   5.577  19.278  0.00  0.00    +0.000 C 
ATOM     11  C   UNL     1       4.111   5.878  17.809  0.00  0.00    +0.000 C 
BRANCH   9  12
ATOM     12  C   UNL     1       4.548   3.149  18.929  0.00  0.00    +0.000 C 
BRANCH  12  13
ATOM     13  C   UNL     1       3.117   2.997  19.407  0.00  0.00    +0.000 A 
ATOM     14  C   UNL     1       2.824   2.898  20.773  0.00  0.00    +0.000 A 
ATOM     15  C   UNL     1       1.504   2.754  21.208  0.00  0.00    +0.000 A 
ATOM     16  C   UNL     1       0.455   2.743  20.290  0.00  0.00    +0.000 A 
ATOM     17  C   UNL     1       0.727   2.844  18.929  0.00  0.00    +0.000 A 
ATOM     18  C   UNL     1       2.052   2.949  18.489  0.00  0.00    +0.000 A 
ENDBRANCH  12  13
ENDBRANCH   9  12
ENDBRANCH   1   6
BRANCH   2  19
ATOM     19  C   UNL     1       7.717   9.121  17.565  0.00  0.00    +0.000 C 
BRANCH  19  20
ATOM     20  C   UNL     1       8.933   9.143  18.516  0.00  0.00    +0.000 C 
BRANCH  20  21
ATOM     21  N   UNL     1       8.841   7.941  19.376  0.00  0.00    +0.000 NA
ATOM     22  H   UNL     1       8.916   7.101  18.799  0.00  0.00    +0.000 HD
ATOM     23  H   UNL     1       7.895   7.888  19.769  0.00  0.00    +0.000 HD
ENDBRANCH  20  21
BRANCH  20  24
ATOM     24  C   UNL     1       8.973  10.427  19.378  0.00  0.00    +0.000 C 
BRANCH  24  25
ATOM     25  C   UNL     1      10.122  11.363  19.082  0.00  0.00    +0.000 A 
ATOM     26  C   UNL     1      10.572  11.569  17.772  0.00  0.00    +0.000 A 
ATOM     27  C   UNL     1      11.578  12.508  17.512  0.00  0.00    +0.000 A 
ATOM     28  C   UNL     1      12.126  13.261  18.551  0.00  0.00    +0.000 A 
ATOM     29  C   UNL     1      11.710  13.037  19.861  0.00  0.00    +0.000 A 
ATOM     30  C   UNL     1      10.739  12.075  20.117  0.00  0.00    +0.000 A 
ATOM     31  F   UNL     1      10.401  11.827  21.391  0.00  0.00    +0.000 F 
ENDBRANCH  24  25
ENDBRANCH  20  24
ENDBRANCH  19  20
ENDBRANCH   2  19
TORSDOF 8
ENDMDL
MODEL 2
REMARK VINA RESULT:      -7.6      4.959      8.216
REMARK  Name = 
REMARK  9 active torsions:
REMARK  status: ('A' for Active; 'I' for Inactive)
REMARK    1  A    between atoms: C_1  and  C_2
REMARK    2  A    between atoms: C_2  and  N_3
REMARK    3  A    between atoms: C_4  and  C_6
REMARK    4  A    between atoms: C_6  and  C_7
REMARK    5  A    between atoms: C_7  and  N_8
REMARK    6  A    between atoms: C_7  and  C_9
REMARK    7  A    between atoms: C_9  and  C_10
REMARK    8  A    between atoms: N_19  and  C_20
REMARK    9  A    between atoms: C_20  and  C_21
REMARK                            x       y       z     vdW  Elec       q    Type
REMARK                         _______ _______ _______ _____ _____    ______ ____
ROOT
ATOM      1  N   UNL     1       3.953   6.404  18.952  0.00  0.00    +0.000 N 
ATOM      2  C   UNL     1       2.584   6.600  18.722  0.00  0.00    +0.000 C 
ATOM      3  O   UNL     1       1.901   5.852  18.053  0.00  0.00    +0.000 OA
ATOM      4  H   UNL     1       4.305   6.799  19.811  0.00  0.00    +0.000 HD
ENDROOT
BRANCH   1   6
ATOM      5  C   UNL     1       4.203   3.953  19.069  0.00  0.00    +0.000 C 
ATOM      6  C   UNL     1       4.682   5.250  18.391  0.00  0.00    +0.000 C 
ATOM      7  C   UNL     1       4.376   5.126  16.871  0.00  0.00    +0.000 C 
ATOM      8  C   UNL     1       5.095   6.168  16.003  0.00  0.00    +0.000 C 
ATOM      9  N   UNL     1       6.536   6.278  16.267  0.00  0.00    +0.000 NA
ATOM     10  C   UNL     1       6.725   6.572  17.700  0.00  0.00    +0.000 C 
ATOM     11  C   UNL     1       6.201   5.447  18.599  0.00  0.00    +0.000 C 
BRANCH   9  12
ATOM     12  C   UNL     1       7.270   5.064  15.842  0.00  0.00    +0.000 C 
BRANCH  12  13
ATOM     13  C   UNL     1       7.094   4.701  14.379  0.00  0.00    +0.000 A 
ATOM     14  C   UNL     1       6.172   3.722  13.989  0.00  0.00    +0.000 A 
ATOM     15  C   UNL     1       6.016   3.390  12.641  0.00  0.00    +0.000 A 
ATOM     16  C   UNL     1       6.752   4.055  11.660  0.00  0.00    +0.000 A 
ATOM     17  C   UNL     1       7.669   5.033  12.029  0.00  0.00    +0.000 A 
ATOM     18  C   UNL     1       7.855   5.340  13.383  0.00  0.00    +0.000 A 
ENDBRANCH  12  13
ENDBRANCH   9  12
ENDBRANCH   1   6
BRANCH   2  19
ATOM     19  C   UNL     1       2.044   7.822  19.417  0.00  0.00    +0.000 C 
BRANCH  19  20
ATOM     20  C   UNL     1       1.640   7.615  20.891  0.00  0.00    +0.000 C 
BRANCH  20  21
ATOM     21  N   UNL     1       1.939   6.206  21.237  0.00  0.00    +0.000 NA
ATOM     22  H   UNL     1       2.952   6.072  21.274  0.00  0.00    +0.000 HD
ATOM     23  H   UNL     1       1.638   5.605  20.462  0.00  0.00    +0.000 HD
ENDBRANCH  20  21
BRANCH  20  24
ATOM     24  C   UNL     1       0.144   7.928  21.133  0.00  0.00    +0.000 C 
BRANCH  24  25
ATOM     25  C   UNL     1      -0.193   9.396  21.259  0.00  0.00    +0.000 A 
ATOM     26  C   UNL     1      -0.408  10.191  20.126  0.00  0.00    +0.000 A 
ATOM     27  C   UNL     1      -0.806  11.526  20.267  0.00  0.00    +0.000 A 
ATOM     28  C   UNL     1      -1.014  12.070  21.535  0.00  0.00    +0.000 A 
ATOM     29  C   UNL     1      -0.768  11.297  22.667  0.00  0.00    +0.000 A 
ATOM     30  C   UNL     1      -0.334   9.985  22.520  0.00  0.00    +0.000 A 
ATOM     31  F   UNL     1      -0.037   9.279  23.622  0.00  0.00    +0.000 F 
ENDBRANCH  24  25
ENDBRANCH  20  24
ENDBRANCH  19  20
ENDBRANCH   2  19
TORSDOF 8
ENDMDL
MODEL 3
REMARK VINA RESULT:      -7.6      1.961      2.477
REMARK  Name = 
REMARK  9 active torsions:
REMARK  status: ('A' for Active; 'I' for Inactive)
REMARK    1  A    between atoms: C_1  and  C_2
REMARK    2  A    between atoms: C_2  and  N_3
REMARK    3  A    between atoms: C_4  and  C_6
REMARK    4  A    between atoms: C_6  and  C_7
REMARK    5  A    between atoms: C_7  and  N_8
REMARK    6  A    between atoms: C_7  and  C_9
REMARK    7  A    between atoms: C_9  and  C_10
REMARK    8  A    between atoms: N_19  and  C_20
REMARK    9  A    between atoms: C_20  and  C_21
REMARK                            x       y       z     vdW  Elec       q    Type
REMARK                         _______ _______ _______ _____ _____    ______ ____
ROOT
ATOM      1  N   UNL     1       6.840   7.580  17.054  0.00  0.00    +0.000 N 
ATOM      2  C   UNL     1       7.847   7.982  17.943  0.00  0.00    +0.000 C 
ATOM      3  O   UNL     1       8.428   7.222  18.689  0.00  0.00    +0.000 OA
ATOM      4  H   UNL     1       6.738   8.154  16.231  0.00  0.00    +0.000 HD
ENDROOT
BRANCH   1   6
ATOM      5  C   UNL     1       7.464   5.353  16.194  0.00  0.00    +0.000 C 
ATOM      6  C   UNL     1       6.405   6.173  16.954  0.00  0.00    +0.000 C 
ATOM      7  C   UNL     1       6.272   5.563  18.379  0.00  0.00    +0.000 C 
ATOM      8  C   UNL     1       5.027   6.031  19.144  0.00  0.00    +0.000 C 
ATOM      9  N   UNL     1       3.776   5.921  18.380  0.00  0.00    +0.000 NA
ATOM     10  C   UNL     1       3.932   6.678  17.123  0.00  0.00    +0.000 C 
ATOM     11  C   UNL     1       5.039   6.105  16.232  0.00  0.00    +0.000 C 
BRANCH   9  12
ATOM     12  C   UNL     1       3.396   4.509  18.142  0.00  0.00    +0.000 C 
BRANCH  12  13
ATOM     13  C   UNL     1       2.715   3.834  19.317  0.00  0.00    +0.000 A 
ATOM     14  C   UNL     1       1.326   3.912  19.483  0.00  0.00    +0.000 A 
ATOM     15  C   UNL     1       0.704   3.291  20.569  0.00  0.00    +0.000 A 
ATOM     16  C   UNL     1       1.454   2.553  21.485  0.00  0.00    +0.000 A 
ATOM     17  C   UNL     1       2.833   2.461  21.333  0.00  0.00    +0.000 A 
ATOM     18  C   UNL     1       3.463   3.115  20.267  0.00  0.00    +0.000 A 
ENDBRANCH  12  13
ENDBRANCH   9  12
ENDBRANCH   1   6
BRANCH   2  19
ATOM     19  C   UNL     1       8.150   9.455  17.852  0.00  0.00    +0.000 C 
BRANCH  19  20
ATOM     20  C   UNL     1       9.437   9.907  18.573  0.00  0.00    +0.000 C 
BRANCH  20  21
ATOM     21  N   UNL     1       9.086  10.144  19.993  0.00  0.00    +0.000 NA
ATOM     22  H   UNL     1       8.207   9.670  20.211  0.00  0.00    +0.000 HD
ATOM     23  H   UNL     1       8.869  11.139  20.118  0.00  0.00    +0.000 HD
ENDBRANCH  20  21
BRANCH  20  24
ATOM     24  C   UNL     1      10.039  11.185  17.942  0.00  0.00    +0.000 C 
BRANCH  24  25
ATOM     25  C   UNL     1       9.486  12.487  18.475  0.00  0.00    +0.000 A 
ATOM     26  C   UNL     1      10.062  13.121  19.583  0.00  0.00    +0.000 A 
ATOM     27  C   UNL     1       9.590  14.369  20.005  0.00  0.00    +0.000 A 
ATOM     28  C   UNL     1       8.557  15.003  19.313  0.00  0.00    +0.000 A 
ATOM     29  C   UNL     1       7.955  14.365  18.232  0.00  0.00    +0.000 A 
ATOM     30  C   UNL     1       8.402  13.107  17.844  0.00  0.00    +0.000 A 
ATOM     31  F   UNL     1       7.764  12.479  16.844  0.00  0.00    +0.000 F 
ENDBRANCH  24  25
ENDBRANCH  20  24
ENDBRANCH  19  20
ENDBRANCH   2  19
TORSDOF 8
ENDMDL
MODEL 4
REMARK VINA RESULT:      -7.4      1.944      2.216
REMARK  Name = 
REMARK  9 active torsions:
REMARK  status: ('A' for Active; 'I' for Inactive)
REMARK    1  A    between atoms: C_1  and  C_2
REMARK    2  A    between atoms: C_2  and  N_3
REMARK    3  A    between atoms: C_4  and  C_6
REMARK    4  A    between atoms: C_6  and  C_7
REMARK    5  A    between atoms: C_7  and  N_8
REMARK    6  A    between atoms: C_7  and  C_9
REMARK    7  A    between atoms: C_9  and  C_10
REMARK    8  A    between atoms: N_19  and  C_20
REMARK    9  A    between atoms: C_20  and  C_21
REMARK                            x       y       z     vdW  Elec       q    Type
REMARK                         _______ _______ _______ _____ _____    ______ ____
ROOT
ATOM      1  N   UNL     1       6.951   7.449  17.018  0.00  0.00    +0.000 N 
ATOM      2  C   UNL     1       7.906   7.911  17.935  0.00  0.00    +0.000 C 
ATOM      3  O   UNL     1       8.528   7.185  18.682  0.00  0.00    +0.000 OA
ATOM      4  H   UNL     1       6.823   8.028  16.202  0.00  0.00    +0.000 HD
ENDROOT
BRANCH   1   6
ATOM      5  C   UNL     1       7.365   5.425  15.670  0.00  0.00    +0.000 C 
ATOM      6  C   UNL     1       6.627   6.016  16.886  0.00  0.00    +0.000 C 
ATOM      7  C   UNL     1       7.114   5.249  18.149  0.00  0.00    +0.000 C 
ATOM      8  C   UNL     1       6.236   5.468  19.389  0.00  0.00    +0.000 C 
ATOM      9  N   UNL     1       4.799   5.275  19.147  0.00  0.00    +0.000 NA
ATOM     10  C   UNL     1       4.387   6.171  18.051  0.00  0.00    +0.000 C 
ATOM     11  C   UNL     1       5.098   5.844  16.733  0.00  0.00    +0.000 C 
BRANCH   9  12
ATOM     12  C   UNL     1       4.471   3.857  18.868  0.00  0.00    +0.000 C 
BRANCH  12  13
ATOM     13  C   UNL     1       3.061   3.449  19.252  0.00  0.00    +0.000 A 
ATOM     14  C   UNL     1       2.554   3.736  20.526  0.00  0.00    +0.000 A 
ATOM     15  C   UNL     1       1.257   3.355  20.876  0.00  0.00    +0.000 A 
ATOM     16  C   UNL     1       0.434   2.715  19.949  0.00  0.00    +0.000 A 
ATOM     17  C   UNL     1       0.920   2.427  18.678  0.00  0.00    +0.000 A 
ATOM     18  C   UNL     1       2.233   2.773  18.338  0.00  0.00    +0.000 A 
ENDBRANCH  12  13
ENDBRANCH   9  12
ENDBRANCH   1   6
BRANCH   2  19
ATOM     19  C   UNL     1       8.098   9.405  17.875  0.00  0.00    +0.000 C 
BRANCH  19  20
ATOM     20  C   UNL     1       9.385   9.930  18.543  0.00  0.00    +0.000 C 
BRANCH  20  21
ATOM     21  N   UNL     1       9.064  10.200  19.964  0.00  0.00    +0.000 NA
ATOM     22  H   UNL     1       9.323   9.391  20.533  0.00  0.00    +0.000 HD
ATOM     23  H   UNL     1       8.046  10.260  20.067  0.00  0.00    +0.000 HD
ENDBRANCH  20  21
BRANCH  20  24
ATOM     24  C   UNL     1       9.918  11.208  17.854  0.00  0.00    +0.000 C 
BRANCH  24  25
ATOM     25  C   UNL     1       9.349  12.506  18.380  0.00  0.00    +0.000 A 
ATOM     26  C   UNL     1       9.935  13.169  19.465  0.00  0.00    +0.000 A 
ATOM     27  C   UNL     1       9.447  14.414  19.879  0.00  0.00    +0.000 A 
ATOM     28  C   UNL     1       8.385  15.015  19.201  0.00  0.00    +0.000 A 
ATOM     29  C   UNL     1       7.773  14.348  18.143  0.00  0.00    +0.000 A 
ATOM     30  C   UNL     1       8.239  13.093  17.764  0.00  0.00    +0.000 A 
ATOM     31  F   UNL     1       7.592  12.437  16.788  0.00  0.00    +0.000 F 
ENDBRANCH  24  25
ENDBRANCH  20  24
ENDBRANCH  19  20
ENDBRANCH   2  19
TORSDOF 8
ENDMDL
MODEL 5
REMARK VINA RESULT:      -7.4      4.868      8.162
REMARK  Name = 
REMARK  9 active torsions:
REMARK  status: ('A' for Active; 'I' for Inactive)
REMARK    1  A    between atoms: C_1  and  C_2
REMARK    2  A    between atoms: C_2  and  N_3
REMARK    3  A    between atoms: C_4  and  C_6
REMARK    4  A    between atoms: C_6  and  C_7
REMARK    5  A    between atoms: C_7  and  N_8
REMARK    6  A    between atoms: C_7  and  C_9
REMARK    7  A    between atoms: C_9  and  C_10
REMARK    8  A    between atoms: N_19  and  C_20
REMARK    9  A    between atoms: C_20  and  C_21
REMARK                            x       y       z     vdW  Elec       q    Type
REMARK                         _______ _______ _______ _____ _____    ______ ____
ROOT
ATOM      1  N   UNL     1       4.048   6.125  19.258  0.00  0.00    +0.000 N 
ATOM      2  C   UNL     1       2.649   6.122  19.347  0.00  0.00    +0.000 C 
ATOM      3  O   UNL     1       1.950   5.221  18.932  0.00  0.00    +0.000 OA
ATOM      4  H   UNL     1       4.523   6.661  19.968  0.00  0.00    +0.000 HD
ENDROOT
BRANCH   1   6
ATOM      5  C   UNL     1       4.415   3.687  19.340  0.00  0.00    +0.000 C 
ATOM      6  C   UNL     1       4.793   5.008  18.645  0.00  0.00    +0.000 C 
ATOM      7  C   UNL     1       4.402   4.878  17.145  0.00  0.00    +0.000 C 
ATOM      8  C   UNL     1       5.018   5.957  16.244  0.00  0.00    +0.000 C 
ATOM      9  N   UNL     1       6.467   6.131  16.422  0.00  0.00    +0.000 NA
ATOM     10  C   UNL     1       6.728   6.426  17.844  0.00  0.00    +0.000 C 
ATOM     11  C   UNL     1       6.311   5.273  18.763  0.00  0.00    +0.000 C 
BRANCH   9  12
ATOM     12  C   UNL     1       7.228   4.954  15.943  0.00  0.00    +0.000 C 
BRANCH  12  13
ATOM     13  C   UNL     1       7.054   4.649  14.467  0.00  0.00    +0.000 A 
ATOM     14  C   UNL     1       6.136   3.683  14.038  0.00  0.00    +0.000 A 
ATOM     15  C   UNL     1       5.982   3.404  12.678  0.00  0.00    +0.000 A 
ATOM     16  C   UNL     1       6.715   4.110  11.724  0.00  0.00    +0.000 A 
ATOM     17  C   UNL     1       7.629   5.077  12.133  0.00  0.00    +0.000 A 
ATOM     18  C   UNL     1       7.813   5.330  13.498  0.00  0.00    +0.000 A 
ENDBRANCH  12  13
ENDBRANCH   9  12
ENDBRANCH   1   6
BRANCH   2  19
ATOM     19  C   UNL     1       2.106   7.345  20.039  0.00  0.00    +0.000 C 
BRANCH  19  20
ATOM     20  C   UNL     1       1.432   8.380  19.114  0.00  0.00    +0.000 C 
BRANCH  20  21
ATOM     21  N   UNL     1       2.142   8.337  17.814  0.00  0.00    +0.000 NA
ATOM     22  H   UNL     1       1.462   8.245  17.057  0.00  0.00    +0.000 HD
ATOM     23  H   UNL     1       2.688   7.471  17.765  0.00  0.00    +0.000 HD
ENDBRANCH  20  21
BRANCH  20  24
ATOM     24  C   UNL     1       1.473   9.807  19.710  0.00  0.00    +0.000 C 
BRANCH  24  25
ATOM     25  C   UNL     1       0.554  10.038  20.887  0.00  0.00    +0.000 A 
ATOM     26  C   UNL     1       0.655   9.264  22.050  0.00  0.00    +0.000 A 
ATOM     27  C   UNL     1      -0.146   9.554  23.161  0.00  0.00    +0.000 A 
ATOM     28  C   UNL     1      -1.036  10.629  23.128  0.00  0.00    +0.000 A 
ATOM     29  C   UNL     1      -1.168  11.382  21.964  0.00  0.00    +0.000 A 
ATOM     30  C   UNL     1      -0.398  11.063  20.851  0.00  0.00    +0.000 A 
ATOM     31  F   UNL     1      -0.589  11.756  19.718  0.00  0.00    +0.000 F 
ENDBRANCH  24  25
ENDBRANCH  20  24
ENDBRANCH  19  20
ENDBRANCH   2  19
TORSDOF 8
ENDMDL
MODEL 6
REMARK VINA RESULT:      -7.4      1.043      1.412
REMARK  Name = 
REMARK  9 active torsions:
REMARK  status: ('A' for Active; 'I' for Inactive)
REMARK    1  A    between atoms: C_1  and  C_2
REMARK    2  A    between atoms: C_2  and  N_3
REMARK    3  A    between atoms: C_4  and  C_6
REMARK    4  A    between atoms: C_6  and  C_7
REMARK    5  A    between atoms: C_7  and  N_8
REMARK    6  A    between atoms: C_7  and  C_9
REMARK    7  A    between atoms: C_9  and  C_10
REMARK    8  A    between atoms: N_19  and  C_20
REMARK    9  A    between atoms: C_20  and  C_21
REMARK                            x       y       z     vdW  Elec       q    Type
REMARK                         _______ _______ _______ _____ _____    ______ ____
ROOT
ATOM      1  N   UNL     1       6.628   7.462  17.027  0.00  0.00    +0.000 N 
ATOM      2  C   UNL     1       7.742   7.971  17.709  0.00  0.00    +0.000 C 
ATOM      3  O   UNL     1       8.567   7.274  18.262  0.00  0.00    +0.000 OA
ATOM      4  H   UNL     1       6.274   8.046  16.285  0.00  0.00    +0.000 HD
ENDROOT
BRANCH   1   6
ATOM      5  C   UNL     1       6.980   5.467  15.618  0.00  0.00    +0.000 C 
ATOM      6  C   UNL     1       6.371   6.012  16.924  0.00  0.00    +0.000 C 
ATOM      7  C   UNL     1       7.059   5.273  18.107  0.00  0.00    +0.000 C 
ATOM      8  C   UNL     1       6.336   5.439  19.451  0.00  0.00    +0.000 C 
ATOM      9  N   UNL     1       4.893   5.164  19.394  0.00  0.00    +0.000 NA
ATOM     10  C   UNL     1       4.294   6.036  18.367  0.00  0.00    +0.000 C 
ATOM     11  C   UNL     1       4.848   5.753  16.967  0.00  0.00    +0.000 C 
BRANCH   9  12
ATOM     12  C   UNL     1       4.614   3.730  19.145  0.00  0.00    +0.000 C 
BRANCH  12  13
ATOM     13  C   UNL     1       3.171   3.320  19.375  0.00  0.00    +0.000 A 
ATOM     14  C   UNL     1       2.418   2.739  18.348  0.00  0.00    +0.000 A 
ATOM     15  C   UNL     1       1.090   2.366  18.564  0.00  0.00    +0.000 A 
ATOM     16  C   UNL     1       0.503   2.536  19.818  0.00  0.00    +0.000 A 
ATOM     17  C   UNL     1       1.238   3.108  20.851  0.00  0.00    +0.000 A 
ATOM     18  C   UNL     1       2.558   3.518  20.626  0.00  0.00    +0.000 A 
ENDBRANCH  12  13
ENDBRANCH   9  12
ENDBRANCH   1   6
BRANCH   2  19
ATOM     19  C   UNL     1       7.820   9.475  17.658  0.00  0.00    +0.000 C 
BRANCH  19  20
ATOM     20  C   UNL     1       9.001  10.098  18.431  0.00  0.00    +0.000 C 
BRANCH  20  21
ATOM     21  N   UNL     1       9.051   9.446  19.760  0.00  0.00    +0.000 NA
ATOM     22  H   UNL     1       8.116   9.121  20.016  0.00  0.00    +0.000 HD
ATOM     23  H   UNL     1       9.270  10.155  20.468  0.00  0.00    +0.000 HD
ENDBRANCH  20  21
BRANCH  20  24
ATOM     24  C   UNL     1       8.851  11.631  18.583  0.00  0.00    +0.000 C 
BRANCH  24  25
ATOM     25  C   UNL     1      10.096  12.431  18.279  0.00  0.00    +0.000 A 
ATOM     26  C   UNL     1      10.293  13.019  17.023  0.00  0.00    +0.000 A 
ATOM     27  C   UNL     1      11.411  13.830  16.792  0.00  0.00    +0.000 A 
ATOM     28  C   UNL     1      12.327  14.077  17.815  0.00  0.00    +0.000 A 
ATOM     29  C   UNL     1      12.158  13.468  19.056  0.00  0.00    +0.000 A 
ATOM     30  C   UNL     1      11.067  12.631  19.266  0.00  0.00    +0.000 A 
ATOM     31  F   UNL     1      10.960  12.000  20.445  0.00  0.00    +0.000 F 
ENDBRANCH  24  25
ENDBRANCH  20  24
ENDBRANCH  19  20
ENDBRANCH   2  19
TORSDOF 8
ENDMDL
MODEL 7
REMARK VINA RESULT:      -7.4      1.035      1.182
REMARK  Name = 
REMARK  9 active torsions:
REMARK  status: ('A' for Active; 'I' for Inactive)
REMARK    1  A    between atoms: C_1  and  C_2
REMARK    2  A    between atoms: C_2  and  N_3
REMARK    3  A    between atoms: C_4  and  C_6
REMARK    4  A    between atoms: C_6  and  C_7
REMARK    5  A    between atoms: C_7  and  N_8
REMARK    6  A    between atoms: C_7  and  C_9
REMARK    7  A    between atoms: C_9  and  C_10
REMARK    8  A    between atoms: N_19  and  C_20
REMARK    9  A    between atoms: C_20  and  C_21
REMARK                            x       y       z     vdW  Elec       q    Type
REMARK                         _______ _______ _______ _____ _____    ______ ____
ROOT
ATOM      1  N   UNL     1       5.979   7.265  17.353  0.00  0.00    +0.000 N 
ATOM      2  C   UNL     1       7.284   7.645  17.008  0.00  0.00    +0.000 C 
ATOM      3  O   UNL     1       8.054   6.931  16.402  0.00  0.00    +0.000 OA
ATOM      4  H   UNL     1       5.322   8.023  17.454  0.00  0.00    +0.000 HD
ENDROOT
BRANCH   1   6
ATOM      5  C   UNL     1       5.181   5.875  15.478  0.00  0.00    +0.000 C 
ATOM      6  C   UNL     1       5.432   5.942  16.996  0.00  0.00    +0.000 C 
ATOM      7  C   UNL     1       6.466   4.834  17.349  0.00  0.00    +0.000 C 
ATOM      8  C   UNL     1       6.567   4.532  18.851  0.00  0.00    +0.000 C 
ATOM      9  N   UNL     1       5.271   4.305  19.506  0.00  0.00    +0.000 NA
ATOM     10  C   UNL     1       4.416   5.483  19.267  0.00  0.00    +0.000 C 
ATOM     11  C   UNL     1       4.122   5.695  17.778  0.00  0.00    +0.000 C 
BRANCH   9  12
ATOM     12  C   UNL     1       4.634   3.047  19.050  0.00  0.00    +0.000 C 
BRANCH  12  13
ATOM     13  C   UNL     1       3.167   2.916  19.413  0.00  0.00    +0.000 A 
ATOM     14  C   UNL     1       2.746   3.020  20.745  0.00  0.00    +0.000 A 
ATOM     15  C   UNL     1       1.395   2.895  21.075  0.00  0.00    +0.000 A 
ATOM     16  C   UNL     1       0.439   2.702  20.078  0.00  0.00    +0.000 A 
ATOM     17  C   UNL     1       0.839   2.601  18.749  0.00  0.00    +0.000 A 
ATOM     18  C   UNL     1       2.197   2.687  18.420  0.00  0.00    +0.000 A 
ENDBRANCH  12  13
ENDBRANCH   9  12
ENDBRANCH   1   6
BRANCH   2  19
ATOM     19  C   UNL     1       7.617   9.048  17.445  0.00  0.00    +0.000 C 
BRANCH  19  20
ATOM     20  C   UNL     1       8.855   9.177  18.355  0.00  0.00    +0.000 C 
BRANCH  20  21
ATOM     21  N   UNL     1       8.823   8.042  19.307  0.00  0.00    +0.000 NA
ATOM     22  H   UNL     1       9.035   7.174  18.810  0.00  0.00    +0.000 HD
ATOM     23  H   UNL     1       7.859   7.912  19.633  0.00  0.00    +0.000 HD
ENDBRANCH  20  21
BRANCH  20  24
ATOM     24  C   UNL     1       8.879  10.524  19.117  0.00  0.00    +0.000 C 
BRANCH  24  25
ATOM     25  C   UNL     1       9.767  11.587  18.513  0.00  0.00    +0.000 A 
ATOM     26  C   UNL     1      11.147  11.393  18.381  0.00  0.00    +0.000 A 
ATOM     27  C   UNL     1      11.937  12.354  17.738  0.00  0.00    +0.000 A 
ATOM     28  C   UNL     1      11.353  13.504  17.204  0.00  0.00    +0.000 A 
ATOM     29  C   UNL     1       9.987  13.722  17.363  0.00  0.00    +0.000 A 
ATOM     30  C   UNL     1       9.216  12.783  18.038  0.00  0.00    +0.000 A 
ATOM     31  F   UNL     1       7.915  13.044  18.239  0.00  0.00    +0.000 F 
ENDBRANCH  24  25
ENDBRANCH  20  24
ENDBRANCH  19  20
ENDBRANCH   2  19
TORSDOF 8
ENDMDL
MODEL 8
REMARK VINA RESULT:      -7.3      5.104      8.087
REMARK  Name = 
REMARK  9 active torsions:
REMARK  status: ('A' for Active; 'I' for Inactive)
REMARK    1  A    between atoms: C_1  and  C_2
REMARK    2  A    between atoms: C_2  and  N_3
REMARK    3  A    between atoms: C_4  and  C_6
REMARK    4  A    between atoms: C_6  and  C_7
REMARK    5  A    between atoms: C_7  and  N_8
REMARK    6  A    between atoms: C_7  and  C_9
REMARK    7  A    between atoms: C_9  and  C_10
REMARK    8  A    between atoms: N_19  and  C_20
REMARK    9  A    between atoms: C_20  and  C_21
REMARK                            x       y       z     vdW  Elec       q    Type
REMARK                         _______ _______ _______ _____ _____    ______ ____
ROOT
ATOM      1  N   UNL     1       3.574   4.817  19.881  0.00  0.00    +0.000 N 
ATOM      2  C   UNL     1       2.186   4.823  19.677  0.00  0.00    +0.000 C 
ATOM      3  O   UNL     1       1.617   4.083  18.902  0.00  0.00    +0.000 OA
ATOM      4  H   UNL     1       3.876   5.132  20.790  0.00  0.00    +0.000 HD
ENDROOT
BRANCH   1   6
ATOM      5  C   UNL     1       4.349   2.478  19.765  0.00  0.00    +0.000 C 
ATOM      6  C   UNL     1       4.464   3.889  19.159  0.00  0.00    +0.000 C 
ATOM      7  C   UNL     1       4.027   3.797  17.668  0.00  0.00    +0.000 C 
ATOM      8  C   UNL     1       4.409   5.024  16.829  0.00  0.00    +0.000 C 
ATOM      9  N   UNL     1       5.814   5.431  16.967  0.00  0.00    +0.000 NA
ATOM     10  C   UNL     1       6.092   5.668  18.395  0.00  0.00    +0.000 C 
ATOM     11  C   UNL     1       5.920   4.401  19.240  0.00  0.00    +0.000 C 
BRANCH   9  12
ATOM     12  C   UNL     1       6.738   4.436  16.372  0.00  0.00    +0.000 C 
BRANCH  12  13
ATOM     13  C   UNL     1       6.761   4.426  14.855  0.00  0.00    +0.000 A 
ATOM     14  C   UNL     1       7.638   5.256  14.146  0.00  0.00    +0.000 A 
ATOM     15  C   UNL     1       7.653   5.245  12.749  0.00  0.00    +0.000 A 
ATOM     16  C   UNL     1       6.820   4.379  12.040  0.00  0.00    +0.000 A 
ATOM     17  C   UNL     1       5.946   3.544  12.729  0.00  0.00    +0.000 A 
ATOM     18  C   UNL     1       5.901   3.582  14.128  0.00  0.00    +0.000 A 
ENDBRANCH  12  13
ENDBRANCH   9  12
ENDBRANCH   1   6
BRANCH   2  19
ATOM     19  C   UNL     1       1.474   5.829  20.544  0.00  0.00    +0.000 C 
BRANCH  19  20
ATOM     20  C   UNL     1       1.485   7.278  20.015  0.00  0.00    +0.000 C 
BRANCH  20  21
ATOM     21  N   UNL     1       2.444   7.328  18.887  0.00  0.00    +0.000 NA
ATOM     22  H   UNL     1       1.939   7.214  18.005  0.00  0.00    +0.000 HD
ATOM     23  H   UNL     1       3.051   6.503  18.933  0.00  0.00    +0.000 HD
ENDBRANCH  20  21
BRANCH  20  24
ATOM     24  C   UNL     1       1.884   8.294  21.112  0.00  0.00    +0.000 C 
BRANCH  24  25
ATOM     25  C   UNL     1       0.812   9.292  21.483  0.00  0.00    +0.000 A 
ATOM     26  C   UNL     1       0.165   9.236  22.724  0.00  0.00    +0.000 A 
ATOM     27  C   UNL     1      -0.760  10.223  23.083  0.00  0.00    +0.000 A 
ATOM     28  C   UNL     1      -1.032  11.283  22.217  0.00  0.00    +0.000 A 
ATOM     29  C   UNL     1      -0.421  11.328  20.966  0.00  0.00    +0.000 A 
ATOM     30  C   UNL     1       0.467  10.322  20.601  0.00  0.00    +0.000 A 
ATOM     31  F   UNL     1       0.993  10.346  19.366  0.00  0.00    +0.000 F 
ENDBRANCH  24  25
ENDBRANCH  20  24
ENDBRANCH  19  20
ENDBRANCH   2  19
TORSDOF 8
ENDMDL
MODEL 9
REMARK VINA RESULT:      -7.3      4.624      8.691
REMARK  Name = 
REMARK  9 active torsions:
REMARK  status: ('A' for Active; 'I' for Inactive)
REMARK    1  A    between atoms: C_1  and  C_2
REMARK    2  A    between atoms: C_2  and  N_3
REMARK    3  A    between atoms: C_4  and  C_6
REMARK    4  A    between atoms: C_6  and  C_7
REMARK    5  A    between atoms: C_7  and  N_8
REMARK    6  A    between atoms: C_7  and  C_9
REMARK    7  A    between atoms: C_9  and  C_10
REMARK    8  A    between atoms: N_19  and  C_20
REMARK    9  A    between atoms: C_20  and  C_21
REMARK                            x       y       z     vdW  Elec       q    Type
REMARK                         _______ _______ _______ _____ _____    ______ ____
ROOT
ATOM      1  N   UNL     1       5.272   6.000  18.224  0.00  0.00    +0.000 N 
ATOM      2  C   UNL     1       4.902   5.102  19.236  0.00  0.00    +0.000 C 
ATOM      3  O   UNL     1       5.487   4.061  19.457  0.00  0.00    +0.000 OA
ATOM      4  H   UNL     1       5.023   6.963  18.392  0.00  0.00    +0.000 HD
ENDROOT
BRANCH   1   6
ATOM      5  C   UNL     1       7.735   6.010  18.099  0.00  0.00    +0.000 C 
ATOM      6  C   UNL     1       6.423   5.746  17.337  0.00  0.00    +0.000 C 
ATOM      7  C   UNL     1       6.427   4.253  16.898  0.00  0.00    +0.000 C 
ATOM      8  C   UNL     1       5.369   3.911  15.840  0.00  0.00    +0.000 C 
ATOM      9  N   UNL     1       5.356   4.824  14.688  0.00  0.00    +0.000 NA
ATOM     10  C   UNL     1       5.170   6.199  15.187  0.00  0.00    +0.000 C 
ATOM     11  C   UNL     1       6.324   6.652  16.089  0.00  0.00    +0.000 C 
BRANCH   9  12
ATOM     12  C   UNL     1       6.577   4.686  13.860  0.00  0.00    +0.000 C 
BRANCH  12  13
ATOM     13  C   UNL     1       6.482   3.638  12.767  0.00  0.00    +0.000 A 
ATOM     14  C   UNL     1       7.636   3.139  12.151  0.00  0.00    +0.000 A 
ATOM     15  C   UNL     1       7.543   2.176  11.143  0.00  0.00    +0.000 A 
ATOM     16  C   UNL     1       6.301   1.672  10.760  0.00  0.00    +0.000 A 
ATOM     17  C   UNL     1       5.144   2.154  11.365  0.00  0.00    +0.000 A 
ATOM     18  C   UNL     1       5.232   3.147  12.348  0.00  0.00    +0.000 A 
ENDBRANCH  12  13
ENDBRANCH   9  12
ENDBRANCH   1   6
BRANCH   2  19
ATOM     19  C   UNL     1       3.720   5.580  20.038  0.00  0.00    +0.000 C 
BRANCH  19  20
ATOM     20  C   UNL     1       2.816   6.609  19.327  0.00  0.00    +0.000 C 
BRANCH  20  21
ATOM     21  N   UNL     1       2.135   7.398  20.379  0.00  0.00    +0.000 NA
ATOM     22  H   UNL     1       2.433   7.068  21.300  0.00  0.00    +0.000 HD
ATOM     23  H   UNL     1       1.132   7.187  20.353  0.00  0.00    +0.000 HD
ENDBRANCH  20  21
BRANCH  20  24
ATOM     24  C   UNL     1       1.780   5.930  18.400  0.00  0.00    +0.000 C 
BRANCH  24  25
ATOM     25  C   UNL     1       1.733   4.421  18.486  0.00  0.00    +0.000 A 
ATOM     26  C   UNL     1       2.321   3.620  17.500  0.00  0.00    +0.000 A 
ATOM     27  C   UNL     1       2.344   2.227  17.644  0.00  0.00    +0.000 A 
ATOM     28  C   UNL     1       1.800   1.627  18.780  0.00  0.00    +0.000 A 
ATOM     29  C   UNL     1       1.181   2.414  19.748  0.00  0.00    +0.000 A 
ATOM     30  C   UNL     1       1.127   3.793  19.579  0.00  0.00    +0.000 A 
ATOM     31  F   UNL     1       0.467   4.526  20.488  0.00  0.00    +0.000 F 
ENDBRANCH  24  25
ENDBRANCH  20  24
ENDBRANCH  19  20
ENDBRANCH   2  19
TORSDOF 8
ENDMDL
