MODEL 1
REMARK VINA RESULT:      -6.1      0.000      0.000
REMARK  Name = 
REMARK  2 active torsions:
REMARK  status: ('A' for Active; 'I' for Inactive)
REMARK    1  A    between atoms: C_5  and  O_6
REMARK    2  A    between atoms: O_6  and  C_7
REMARK                            x       y       z     vdW  Elec       q    Type
REMARK                         _______ _______ _______ _____ _____    ______ ____
ROOT
ATOM      1 BR   UNL     1       1.415   2.719  21.504  0.00  0.00    +0.000 Br
ATOM      2  C   UNL     1       2.174   3.783  20.139  0.00  0.00    +0.000 A 
ATOM      3  C   UNL     1       3.395   4.419  20.356  0.00  0.00    +0.000 A 
ATOM      4  C   UNL     1       3.963   5.188  19.338  0.00  0.00    +0.000 A 
ATOM      5  C   UNL     1       3.314   5.313  18.107  0.00  0.00    +0.000 A 
ATOM      6  C   UNL     1       2.064   4.718  17.915  0.00  0.00    +0.000 A 
ATOM      7  C   UNL     1       1.504   3.931  18.925  0.00  0.00    +0.000 A 
ENDROOT
BRANCH   5   8
ATOM      8  O   UNL     1       3.944   6.107  17.175  0.00  0.00    +0.000 OA
BRANCH   8   9
ATOM      9  C   UNL     1       4.982   5.602  16.435  0.00  0.00    +0.000 A 
ATOM     10  C   UNL     1       4.912   4.474  15.621  0.00  0.00    +0.000 A 
ATOM     11  C   UNL     1       6.045   4.069  14.914  0.00  0.00    +0.000 A 
ATOM     12  C   UNL     1       7.218   4.787  15.083  0.00  0.00    +0.000 A 
ATOM     13  N   UNL     1       7.332   5.858  15.897  0.00  0.00    +0.000 NA
ATOM     14  C   UNL     1       6.212   6.236  16.559  0.00  0.00    +0.000 A 
ENDBRANCH   8   9
ENDBRANCH   5   8
TORSDOF 2
ENDMDL
MODEL 2
REMARK VINA RESULT:      -6.0      3.478      5.670
REMARK  Name = 
REMARK  2 active torsions:
REMARK  status: ('A' for Active; 'I' for Inactive)
REMARK    1  A    between atoms: C_5  and  O_6
REMARK    2  A    between atoms: O_6  and  C_7
REMARK                            x       y       z     vdW  Elec       q    Type
REMARK                         _______ _______ _______ _____ _____    ______ ____
ROOT
ATOM      1 BR   UNL     1       6.778   4.700  14.180  0.00  0.00    +0.000 Br
ATOM      2  C   UNL     1       5.614   5.001  15.638  0.00  0.00    +0.000 A 
ATOM      3  C   UNL     1       5.175   6.295  15.917  0.00  0.00    +0.000 A 
ATOM      4  C   UNL     1       4.299   6.511  16.982  0.00  0.00    +0.000 A 
ATOM      5  C   UNL     1       3.859   5.437  17.759  0.00  0.00    +0.000 A 
ATOM      6  C   UNL     1       4.346   4.151  17.508  0.00  0.00    +0.000 A 
ATOM      7  C   UNL     1       5.205   3.929  16.430  0.00  0.00    +0.000 A 
ENDROOT
BRANCH   5   8
ATOM      8  O   UNL     1       3.013   5.755  18.798  0.00  0.00    +0.000 OA
BRANCH   8   9
ATOM      9  C   UNL     1       2.365   4.758  19.482  0.00  0.00    +0.000 A 
ATOM     10  C   UNL     1       1.362   3.946  18.957  0.00  0.00    +0.000 A 
ATOM     11  C   UNL     1       0.788   2.961  19.761  0.00  0.00    +0.000 A 
ATOM     12  C   UNL     1       1.212   2.855  21.077  0.00  0.00    +0.000 A 
ATOM     13  N   UNL     1       2.150   3.653  21.629  0.00  0.00    +0.000 NA
ATOM     14  C   UNL     1       2.700   4.590  20.819  0.00  0.00    +0.000 A 
ENDBRANCH   8   9
ENDBRANCH   5   8
TORSDOF 2
ENDMDL
MODEL 3
REMARK VINA RESULT:      -5.9      3.651      5.392
REMARK  Name = 
REMARK  2 active torsions:
REMARK  status: ('A' for Active; 'I' for Inactive)
REMARK    1  A    between atoms: C_5  and  O_6
REMARK    2  A    between atoms: O_6  and  C_7
REMARK                            x       y       z     vdW  Elec       q    Type
REMARK                         _______ _______ _______ _____ _____    ______ ____
ROOT
ATOM      1 BR   UNL     1       8.017   8.471  17.847  0.00  0.00    +0.000 Br
ATOM      2  C   UNL     1       6.995   6.916  17.519  0.00  0.00    +0.000 A 
ATOM      3  C   UNL     1       7.294   5.736  18.197  0.00  0.00    +0.000 A 
ATOM      4  C   UNL     1       6.524   4.594  17.968  0.00  0.00    +0.000 A 
ATOM      5  C   UNL     1       5.456   4.636  17.068  0.00  0.00    +0.000 A 
ATOM      6  C   UNL     1       5.196   5.807  16.351  0.00  0.00    +0.000 A 
ATOM      7  C   UNL     1       5.951   6.956  16.595  0.00  0.00    +0.000 A 
ENDROOT
BRANCH   5   8
ATOM      8  O   UNL     1       4.769   3.455  16.896  0.00  0.00    +0.000 OA
BRANCH   8   9
ATOM      9  C   UNL     1       3.578   3.255  17.544  0.00  0.00    +0.000 A 
ATOM     10  C   UNL     1       2.501   4.140  17.533  0.00  0.00    +0.000 A 
ATOM     11  C   UNL     1       1.339   3.812  18.231  0.00  0.00    +0.000 A 
ATOM     12  C   UNL     1       1.314   2.627  18.950  0.00  0.00    +0.000 A 
ATOM     13  N   UNL     1       2.355   1.769  19.018  0.00  0.00    +0.000 NA
ATOM     14  C   UNL     1       3.464   2.107  18.317  0.00  0.00    +0.000 A 
ENDBRANCH   8   9
ENDBRANCH   5   8
TORSDOF 2
ENDMDL
MODEL 4
REMARK VINA RESULT:      -5.9      0.671      1.219
REMARK  Name = 
REMARK  2 active torsions:
REMARK  status: ('A' for Active; 'I' for Inactive)
REMARK    1  A    between atoms: C_5  and  O_6
REMARK    2  A    between atoms: O_6  and  C_7
REMARK                            x       y       z     vdW  Elec       q    Type
REMARK                         _______ _______ _______ _____ _____    ______ ____
ROOT
ATOM      1 BR   UNL     1       1.727   2.651  21.566  0.00  0.00    +0.000 Br
ATOM      2  C   UNL     1       2.537   3.687  20.209  0.00  0.00    +0.000 A 
ATOM      3  C   UNL     1       1.811   4.700  19.586  0.00  0.00    +0.000 A 
ATOM      4  C   UNL     1       2.419   5.478  18.598  0.00  0.00    +0.000 A 
ATOM      5  C   UNL     1       3.750   5.245  18.242  0.00  0.00    +0.000 A 
ATOM      6  C   UNL     1       4.455   4.192  18.831  0.00  0.00    +0.000 A 
ATOM      7  C   UNL     1       3.855   3.428  19.835  0.00  0.00    +0.000 A 
ENDROOT
BRANCH   5   8
ATOM      8  O   UNL     1       4.253   6.051  17.245  0.00  0.00    +0.000 OA
BRANCH   8   9
ATOM      9  C   UNL     1       5.171   5.549  16.358  0.00  0.00    +0.000 A 
ATOM     10  C   UNL     1       4.923   4.535  15.435  0.00  0.00    +0.000 A 
ATOM     11  C   UNL     1       5.947   4.120  14.583  0.00  0.00    +0.000 A 
ATOM     12  C   UNL     1       7.194   4.710  14.716  0.00  0.00    +0.000 A 
ATOM     13  N   UNL     1       7.480   5.664  15.628  0.00  0.00    +0.000 NA
ATOM     14  C   UNL     1       6.462   6.056  16.431  0.00  0.00    +0.000 A 
ENDBRANCH   8   9
ENDBRANCH   5   8
TORSDOF 2
ENDMDL
MODEL 5
REMARK VINA RESULT:      -5.9      4.168      5.629
REMARK  Name = 
REMARK  2 active torsions:
REMARK  status: ('A' for Active; 'I' for Inactive)
REMARK    1  A    between atoms: C_5  and  O_6
REMARK    2  A    between atoms: O_6  and  C_7
REMARK                            x       y       z     vdW  Elec       q    Type
REMARK                         _______ _______ _______ _____ _____    ______ ____
ROOT
ATOM      1 BR   UNL     1       0.265  11.368  18.952  0.00  0.00    +0.000 Br
ATOM      2  C   UNL     1       1.099   9.678  19.090  0.00  0.00    +0.000 A 
ATOM      3  C   UNL     1       1.701   9.110  17.969  0.00  0.00    +0.000 A 
ATOM      4  C   UNL     1       2.334   7.870  18.080  0.00  0.00    +0.000 A 
ATOM      5  C   UNL     1       2.369   7.206  19.309  0.00  0.00    +0.000 A 
ATOM      6  C   UNL     1       1.715   7.755  20.415  0.00  0.00    +0.000 A 
ATOM      7  C   UNL     1       1.100   9.005  20.312  0.00  0.00    +0.000 A 
ENDROOT
BRANCH   5   8
ATOM      8  O   UNL     1       2.998   5.982  19.312  0.00  0.00    +0.000 OA
BRANCH   8   9
ATOM      9  C   UNL     1       2.259   4.832  19.208  0.00  0.00    +0.000 A 
ATOM     10  C   UNL     1       1.503   4.269  20.236  0.00  0.00    +0.000 A 
ATOM     11  C   UNL     1       0.789   3.095  19.995  0.00  0.00    +0.000 A 
ATOM     12  C   UNL     1       0.893   2.505  18.745  0.00  0.00    +0.000 A 
ATOM     13  N   UNL     1       1.650   2.999  17.743  0.00  0.00    +0.000 NA
ATOM     14  C   UNL     1       2.320   4.149  18.001  0.00  0.00    +0.000 A 
ENDBRANCH   8   9
ENDBRANCH   5   8
TORSDOF 2
ENDMDL
MODEL 6
REMARK VINA RESULT:      -5.9      3.432      5.653
REMARK  Name = 
REMARK  2 active torsions:
REMARK  status: ('A' for Active; 'I' for Inactive)
REMARK    1  A    between atoms: C_5  and  O_6
REMARK    2  A    between atoms: O_6  and  C_7
REMARK                            x       y       z     vdW  Elec       q    Type
REMARK                         _______ _______ _______ _____ _____    ______ ____
ROOT
ATOM      1 BR   UNL     1       6.972   4.802  14.842  0.00  0.00    +0.000 Br
ATOM      2  C   UNL     1       5.516   5.120  16.004  0.00  0.00    +0.000 A 
ATOM      3  C   UNL     1       4.709   4.058  16.408  0.00  0.00    +0.000 A 
ATOM      4  C   UNL     1       3.647   4.293  17.284  0.00  0.00    +0.000 A 
ATOM      5  C   UNL     1       3.399   5.584  17.756  0.00  0.00    +0.000 A 
ATOM      6  C   UNL     1       4.178   6.652  17.304  0.00  0.00    +0.000 A 
ATOM      7  C   UNL     1       5.254   6.416  16.445  0.00  0.00    +0.000 A 
ENDROOT
BRANCH   5   8
ATOM      8  O   UNL     1       2.318   5.717  18.599  0.00  0.00    +0.000 OA
BRANCH   8   9
ATOM      9  C   UNL     1       1.987   4.698  19.453  0.00  0.00    +0.000 A 
ATOM     10  C   UNL     1       1.123   3.646  19.152  0.00  0.00    +0.000 A 
ATOM     11  C   UNL     1       0.876   2.667  20.114  0.00  0.00    +0.000 A 
ATOM     12  C   UNL     1       1.471   2.800  21.358  0.00  0.00    +0.000 A 
ATOM     13  N   UNL     1       2.278   3.828  21.698  0.00  0.00    +0.000 NA
ATOM     14  C   UNL     1       2.512   4.756  20.738  0.00  0.00    +0.000 A 
ENDBRANCH   8   9
ENDBRANCH   5   8
TORSDOF 2
ENDMDL
MODEL 7
REMARK VINA RESULT:      -5.9      3.647      5.575
REMARK  Name = 
REMARK  2 active torsions:
REMARK  status: ('A' for Active; 'I' for Inactive)
REMARK    1  A    between atoms: C_5  and  O_6
REMARK    2  A    between atoms: O_6  and  C_7
REMARK                            x       y       z     vdW  Elec       q    Type
REMARK                         _______ _______ _______ _____ _____    ______ ____
ROOT
ATOM      1 BR   UNL     1       8.017   8.450  17.770  0.00  0.00    +0.000 Br
ATOM      2  C   UNL     1       6.988   6.883  17.536  0.00  0.00    +0.000 A 
ATOM      3  C   UNL     1       5.684   6.977  17.055  0.00  0.00    +0.000 A 
ATOM      4  C   UNL     1       4.933   5.815  16.863  0.00  0.00    +0.000 A 
ATOM      5  C   UNL     1       5.489   4.565  17.146  0.00  0.00    +0.000 A 
ATOM      6  C   UNL     1       6.778   4.482  17.680  0.00  0.00    +0.000 A 
ATOM      7  C   UNL     1       7.538   5.641  17.852  0.00  0.00    +0.000 A 
ENDROOT
BRANCH   5   8
ATOM      8  O   UNL     1       4.664   3.482  16.943  0.00  0.00    +0.000 OA
BRANCH   8   9
ATOM      9  C   UNL     1       3.716   3.159  17.879  0.00  0.00    +0.000 A 
ATOM     10  C   UNL     1       3.948   3.039  19.248  0.00  0.00    +0.000 A 
ATOM     11  C   UNL     1       2.889   2.711  20.095  0.00  0.00    +0.000 A 
ATOM     12  C   UNL     1       1.644   2.474  19.533  0.00  0.00    +0.000 A 
ATOM     13  N   UNL     1       1.394   2.540  18.208  0.00  0.00    +0.000 NA
ATOM     14  C   UNL     1       2.439   2.876  17.412  0.00  0.00    +0.000 A 
ENDBRANCH   8   9
ENDBRANCH   5   8
TORSDOF 2
ENDMDL
MODEL 8
REMARK VINA RESULT:      -5.8      3.600      5.599
REMARK  Name = 
REMARK  2 active torsions:
REMARK  status: ('A' for Active; 'I' for Inactive)
REMARK    1  A    between atoms: C_5  and  O_6
REMARK    2  A    between atoms: O_6  and  C_7
REMARK                            x       y       z     vdW  Elec       q    Type
REMARK                         _______ _______ _______ _____ _____    ______ ____
ROOT
ATOM      1 BR   UNL     1       7.978   8.096  17.818  0.00  0.00    +0.000 Br
ATOM      2  C   UNL     1       6.735   6.685  17.624  0.00  0.00    +0.000 A 
ATOM      3  C   UNL     1       5.780   6.739  16.610  0.00  0.00    +0.000 A 
ATOM      4  C   UNL     1       4.877   5.685  16.456  0.00  0.00    +0.000 A 
ATOM      5  C   UNL     1       4.934   4.581  17.310  0.00  0.00    +0.000 A 
ATOM      6  C   UNL     1       5.858   4.559  18.358  0.00  0.00    +0.000 A 
ATOM      7  C   UNL     1       6.777   5.601  18.500  0.00  0.00    +0.000 A 
ENDROOT
BRANCH   5   8
ATOM      8  O   UNL     1       3.989   3.603  17.091  0.00  0.00    +0.000 OA
BRANCH   8   9
ATOM      9  C   UNL     1       2.991   3.399  18.008  0.00  0.00    +0.000 A 
ATOM     10  C   UNL     1       2.219   4.402  18.590  0.00  0.00    +0.000 A 
ATOM     11  C   UNL     1       1.227   4.056  19.508  0.00  0.00    +0.000 A 
ATOM     12  C   UNL     1       1.075   2.719  19.841  0.00  0.00    +0.000 A 
ATOM     13  N   UNL     1       1.834   1.727  19.329  0.00  0.00    +0.000 NA
ATOM     14  C   UNL     1       2.779   2.092  18.429  0.00  0.00    +0.000 A 
ENDBRANCH   8   9
ENDBRANCH   5   8
TORSDOF 2
ENDMDL
MODEL 9
REMARK VINA RESULT:      -5.8      1.494      1.701
REMARK  Name = 
REMARK  2 active torsions:
REMARK  status: ('A' for Active; 'I' for Inactive)
REMARK    1  A    between atoms: C_5  and  O_6
REMARK    2  A    between atoms: O_6  and  C_7
REMARK                            x       y       z     vdW  Elec       q    Type
REMARK                         _______ _______ _______ _____ _____    ______ ____
ROOT
ATOM      1 BR   UNL     1       0.760   3.692  20.216  0.00  0.00    +0.000 Br
ATOM      2  C   UNL     1       2.467   3.918  19.438  0.00  0.00    +0.000 A 
ATOM      3  C   UNL     1       3.540   3.151  19.890  0.00  0.00    +0.000 A 
ATOM      4  C   UNL     1       4.796   3.306  19.299  0.00  0.00    +0.000 A 
ATOM      5  C   UNL     1       4.974   4.219  18.257  0.00  0.00    +0.000 A 
ATOM      6  C   UNL     1       3.907   5.023  17.846  0.00  0.00    +0.000 A 
ATOM      7  C   UNL     1       2.646   4.854  18.421  0.00  0.00    +0.000 A 
ENDROOT
BRANCH   5   8
ATOM      8  O   UNL     1       6.252   4.313  17.753  0.00  0.00    +0.000 OA
BRANCH   8   9
ATOM      9  C   UNL     1       6.449   4.409  16.399  0.00  0.00    +0.000 A 
ATOM     10  C   UNL     1       5.825   3.613  15.440  0.00  0.00    +0.000 A 
ATOM     11  C   UNL     1       6.110   3.820  14.090  0.00  0.00    +0.000 A 
ATOM     12  C   UNL     1       7.042   4.789  13.754  0.00  0.00    +0.000 A 
ATOM     13  N   UNL     1       7.697   5.547  14.660  0.00  0.00    +0.000 NA
ATOM     14  C   UNL     1       7.388   5.334  15.962  0.00  0.00    +0.000 A 
ENDBRANCH   8   9
ENDBRANCH   5   8
TORSDOF 2
ENDMDL
