MODEL 1
REMARK VINA RESULT:      -8.2      0.000      0.000
REMARK  Name = 
REMARK  7 active torsions:
REMARK  status: ('A' for Active; 'I' for Inactive)
REMARK    1  A    between atoms: C_1  and  O_2
REMARK    2  A    between atoms: O_2  and  C_3
REMARK    3  A    between atoms: N_5  and  C_6
REMARK    4  A    between atoms: C_11  and  N_12
REMARK    5  A    between atoms: C_13  and  C_15
REMARK    6  A    between atoms: C_29  and  C_30
REMARK    7  A    between atoms: C_33  and  C_34
REMARK                            x       y       z     vdW  Elec       q    Type
REMARK                         _______ _______ _______ _____ _____    ______ ____
ROOT
ATOM      1  C   UNL     1      -4.194  13.898  21.829  0.00  0.00    +0.000 C 
ATOM      2  C   UNL     1      -3.614  12.535  21.316  0.00  0.00    +0.000 C 
ATOM      3  N   UNL     1      -2.187  12.453  20.977  0.00  0.00    +0.000 N 
ATOM      4  C   UNL     1      -1.207  12.620  22.043  0.00  0.00    +0.000 C 
ATOM      5  C   UNL     1      -1.844  11.984  19.698  0.00  0.00    +0.000 C 
ATOM      6  O   UNL     1      -2.672  11.550  18.897  0.00  0.00    +0.000 OA
ATOM      7  C   UNL     1      -0.419  11.993  19.250  0.00  0.00    +0.000 A 
ATOM      8  C   UNL     1       0.142  10.751  18.899  0.00  0.00    +0.000 A 
ATOM      9  C   UNL     1       1.423  10.678  18.356  0.00  0.00    +0.000 A 
ATOM     10  C   UNL     1       2.147  11.871  18.192  0.00  0.00    +0.000 A 
ATOM     11  C   UNL     1       1.568  13.115  18.524  0.00  0.00    +0.000 A 
ATOM     12  C   UNL     1       0.269  13.185  19.012  0.00  0.00    +0.000 A 
ATOM     13  O   UNL     1      -0.424  14.334  19.229  0.00  0.00    +0.000 OA
ATOM     14  C   UNL     1       0.210  15.605  19.176  0.00  0.00    +0.000 C 
ATOM     15  C   UNL     1      -0.753  16.739  19.677  0.00  0.00    +0.000 C 
ATOM     16  C   UNL     1      -0.566  17.988  18.810  0.00  0.00    +0.000 C 
ATOM     17  N   UNL     1      -2.205  16.452  19.712  0.00  0.00    +0.000 NA
ATOM     18  C   UNL     1      -2.534  15.564  20.832  0.00  0.00    +0.000 C 
ATOM     19  C   UNL     1      -4.012  15.144  20.901  0.00  0.00    +0.000 C 
ATOM     20  C   UNL     1      -4.824  16.357  21.393  0.00  0.00    +0.000 C 
ATOM     21  H   UNL     1      -2.464  15.980  18.842  0.00  0.00    +0.000 HD
ENDROOT
BRANCH   9  22
ATOM     22  N   UNL     1       2.029   9.456  17.953  0.00  0.00    +0.000 N 
ATOM     23  C   UNL     1       2.206   8.327  18.744  0.00  0.00    +0.000 C 
ATOM     24  O   UNL     1       1.799   8.218  19.894  0.00  0.00    +0.000 OA
ATOM     25  H   UNL     1       2.389   9.385  17.007  0.00  0.00    +0.000 HD
BRANCH  23  26
ATOM     26  C   UNL     1       2.989   7.251  18.127  0.00  0.00    +0.000 A 
ATOM     27  N   UNL     1       4.039   7.428  17.342  0.00  0.00    +0.000 NA
ATOM     28  C   UNL     1       4.458   6.183  16.867  0.00  0.00    +0.000 A 
ATOM     29  C   UNL     1       5.451   5.944  15.894  0.00  0.00    +0.000 A 
ATOM     30  C   UNL     1       5.751   4.629  15.510  0.00  0.00    +0.000 A 
ATOM     31  C   UNL     1       5.136   3.549  16.135  0.00  0.00    +0.000 A 
ATOM     32  C   UNL     1       4.166   3.756  17.116  0.00  0.00    +0.000 A 
ATOM     33  C   UNL     1       3.805   5.079  17.422  0.00  0.00    +0.000 A 
ATOM     34  S   UNL     1       2.541   5.626  18.440  0.00  0.00    +0.000 S 
ENDBRANCH  23  26
ENDBRANCH   9  22
BRANCH   1  36
ATOM     35  C   UNL     1      -6.261  12.630  21.590  0.00  0.00    +0.000 C 
ATOM     36  O   UNL     1      -5.584  13.724  22.203  0.00  0.00    +0.000 OA
ENDBRANCH   1  36
TORSDOF 3
ENDMDL
MODEL 2
REMARK VINA RESULT:      -8.1      1.341      1.609
REMARK  Name = 
REMARK  7 active torsions:
REMARK  status: ('A' for Active; 'I' for Inactive)
REMARK    1  A    between atoms: C_1  and  O_2
REMARK    2  A    between atoms: O_2  and  C_3
REMARK    3  A    between atoms: N_5  and  C_6
REMARK    4  A    between atoms: C_11  and  N_12
REMARK    5  A    between atoms: C_13  and  C_15
REMARK    6  A    between atoms: C_29  and  C_30
REMARK    7  A    between atoms: C_33  and  C_34
REMARK                            x       y       z     vdW  Elec       q    Type
REMARK                         _______ _______ _______ _____ _____    ______ ____
ROOT
ATOM      1  C   UNL     1      -3.695  15.093  21.992  0.00  0.00    +0.000 C 
ATOM      2  C   UNL     1      -3.345  13.577  21.800  0.00  0.00    +0.000 C 
ATOM      3  N   UNL     1      -1.985  13.211  21.382  0.00  0.00    +0.000 N 
ATOM      4  C   UNL     1      -0.877  13.489  22.290  0.00  0.00    +0.000 C 
ATOM      5  C   UNL     1      -1.847  12.401  20.242  0.00  0.00    +0.000 C 
ATOM      6  O   UNL     1      -2.805  11.910  19.646  0.00  0.00    +0.000 OA
ATOM      7  C   UNL     1      -0.490  12.096  19.695  0.00  0.00    +0.000 A 
ATOM      8  C   UNL     1      -0.125  10.738  19.631  0.00  0.00    +0.000 A 
ATOM      9  C   UNL     1       1.068  10.351  19.025  0.00  0.00    +0.000 A 
ATOM     10  C   UNL     1       1.908  11.352  18.505  0.00  0.00    +0.000 A 
ATOM     11  C   UNL     1       1.523  12.709  18.553  0.00  0.00    +0.000 A 
ATOM     12  C   UNL     1       0.305  13.083  19.108  0.00  0.00    +0.000 A 
ATOM     13  O   UNL     1      -0.217  14.338  19.078  0.00  0.00    +0.000 OA
ATOM     14  C   UNL     1       0.555  15.452  18.652  0.00  0.00    +0.000 C 
ATOM     15  C   UNL     1      -0.202  16.801  18.921  0.00  0.00    +0.000 C 
ATOM     16  C   UNL     1       0.034  17.762  17.753  0.00  0.00    +0.000 C 
ATOM     17  N   UNL     1      -1.665  16.743  19.144  0.00  0.00    +0.000 NA
ATOM     18  C   UNL     1      -1.970  16.211  20.475  0.00  0.00    +0.000 C 
ATOM     19  C   UNL     1      -3.470  16.038  20.765  0.00  0.00    +0.000 C 
ATOM     20  C   UNL     1      -4.070  17.438  20.994  0.00  0.00    +0.000 C 
ATOM     21  H   UNL     1      -2.075  16.117  18.446  0.00  0.00    +0.000 HD
ENDROOT
BRANCH   9  22
ATOM     22  N   UNL     1       1.475   8.994  18.901  0.00  0.00    +0.000 N 
ATOM     23  C   UNL     1       1.746   8.119  19.946  0.00  0.00    +0.000 C 
ATOM     24  O   UNL     1       1.610   8.395  21.132  0.00  0.00    +0.000 OA
ATOM     25  H   UNL     1       1.600   8.611  17.969  0.00  0.00    +0.000 HD
BRANCH  23  26
ATOM     26  C   UNL     1       2.285   6.816  19.543  0.00  0.00    +0.000 A 
ATOM     27  N   UNL     1       3.037   6.601  18.476  0.00  0.00    +0.000 NA
ATOM     28  C   UNL     1       3.274   5.229  18.365  0.00  0.00    +0.000 A 
ATOM     29  C   UNL     1       3.908   4.568  17.292  0.00  0.00    +0.000 A 
ATOM     30  C   UNL     1       4.059   3.174  17.320  0.00  0.00    +0.000 A 
ATOM     31  C   UNL     1       3.662   2.440  18.433  0.00  0.00    +0.000 A 
ATOM     32  C   UNL     1       3.051   3.070  19.517  0.00  0.00    +0.000 A 
ATOM     33  C   UNL     1       2.818   4.453  19.434  0.00  0.00    +0.000 A 
ATOM     34  S   UNL     1       1.943   5.448  20.519  0.00  0.00    +0.000 S 
ENDBRANCH  23  26
ENDBRANCH   9  22
BRANCH   1  36
ATOM     35  C   UNL     1      -5.162  15.376  23.918  0.00  0.00    +0.000 C 
ATOM     36  O   UNL     1      -5.045  15.217  22.506  0.00  0.00    +0.000 OA
ENDBRANCH   1  36
TORSDOF 3
ENDMDL
MODEL 3
REMARK VINA RESULT:      -8.0      2.326      3.429
REMARK  Name = 
REMARK  7 active torsions:
REMARK  status: ('A' for Active; 'I' for Inactive)
REMARK    1  A    between atoms: C_1  and  O_2
REMARK    2  A    between atoms: O_2  and  C_3
REMARK    3  A    between atoms: N_5  and  C_6
REMARK    4  A    between atoms: C_11  and  N_12
REMARK    5  A    between atoms: C_13  and  C_15
REMARK    6  A    between atoms: C_29  and  C_30
REMARK    7  A    between atoms: C_33  and  C_34
REMARK                            x       y       z     vdW  Elec       q    Type
REMARK                         _______ _______ _______ _____ _____    ______ ____
ROOT
ATOM      1  C   UNL     1      -2.288  15.607  24.073  0.00  0.00    +0.000 C 
ATOM      2  C   UNL     1      -1.202  14.495  23.869  0.00  0.00    +0.000 C 
ATOM      3  N   UNL     1      -1.063  13.874  22.545  0.00  0.00    +0.000 N 
ATOM      4  C   UNL     1      -0.617  14.701  21.429  0.00  0.00    +0.000 C 
ATOM      5  C   UNL     1      -1.135  12.473  22.469  0.00  0.00    +0.000 C 
ATOM      6  O   UNL     1      -1.208  11.748  23.461  0.00  0.00    +0.000 OA
ATOM      7  C   UNL     1      -1.125  11.789  21.140  0.00  0.00    +0.000 A 
ATOM      8  C   UNL     1      -0.081  10.875  20.907  0.00  0.00    +0.000 A 
ATOM      9  C   UNL     1      -0.057  10.102  19.748  0.00  0.00    +0.000 A 
ATOM     10  C   UNL     1      -1.087  10.280  18.808  0.00  0.00    +0.000 A 
ATOM     11  C   UNL     1      -2.143  11.181  19.060  0.00  0.00    +0.000 A 
ATOM     12  C   UNL     1      -2.189  11.907  20.244  0.00  0.00    +0.000 A 
ATOM     13  O   UNL     1      -3.226  12.691  20.641  0.00  0.00    +0.000 OA
ATOM     14  C   UNL     1      -4.292  13.016  19.758  0.00  0.00    +0.000 C 
ATOM     15  C   UNL     1      -5.235  14.103  20.385  0.00  0.00    +0.000 C 
ATOM     16  C   UNL     1      -6.691  13.779  20.039  0.00  0.00    +0.000 C 
ATOM     17  N   UNL     1      -5.175  14.313  21.850  0.00  0.00    +0.000 NA
ATOM     18  C   UNL     1      -3.956  15.035  22.225  0.00  0.00    +0.000 C 
ATOM     19  C   UNL     1      -3.769  15.227  23.739  0.00  0.00    +0.000 C 
ATOM     20  C   UNL     1      -4.763  16.307  24.204  0.00  0.00    +0.000 C 
ATOM     21  H   UNL     1      -5.161  13.398  22.307  0.00  0.00    +0.000 HD
ENDROOT
BRANCH   9  22
ATOM     22  N   UNL     1       0.953   9.140  19.474  0.00  0.00    +0.000 N 
ATOM     23  C   UNL     1       1.804   9.133  18.375  0.00  0.00    +0.000 C 
ATOM     24  O   UNL     1       1.832  10.007  17.517  0.00  0.00    +0.000 OA
ATOM     25  H   UNL     1       1.071   8.366  20.120  0.00  0.00    +0.000 HD
BRANCH  23  26
ATOM     26  C   UNL     1       2.660   7.947  18.258  0.00  0.00    +0.000 A 
ATOM     27  N   UNL     1       3.560   7.750  17.309  0.00  0.00    +0.000 NA
ATOM     28  C   UNL     1       4.104   6.473  17.467  0.00  0.00    +0.000 A 
ATOM     29  C   UNL     1       4.989   5.819  16.584  0.00  0.00    +0.000 A 
ATOM     30  C   UNL     1       5.438   4.523  16.877  0.00  0.00    +0.000 A 
ATOM     31  C   UNL     1       5.084   3.902  18.070  0.00  0.00    +0.000 A 
ATOM     32  C   UNL     1       4.227   4.533  18.971  0.00  0.00    +0.000 A 
ATOM     33  C   UNL     1       3.707   5.790  18.621  0.00  0.00    +0.000 A 
ATOM     34  S   UNL     1       2.514   6.710  19.436  0.00  0.00    +0.000 S 
ENDBRANCH  23  26
ENDBRANCH   9  22
BRANCH   1  36
ATOM     35  C   UNL     1      -1.102  15.651  26.202  0.00  0.00    +0.000 C 
ATOM     36  O   UNL     1      -2.178  16.151  25.412  0.00  0.00    +0.000 OA
ENDBRANCH   1  36
TORSDOF 3
ENDMDL
MODEL 4
REMARK VINA RESULT:      -7.9      2.846      4.585
REMARK  Name = 
REMARK  7 active torsions:
REMARK  status: ('A' for Active; 'I' for Inactive)
REMARK    1  A    between atoms: C_1  and  O_2
REMARK    2  A    between atoms: O_2  and  C_3
REMARK    3  A    between atoms: N_5  and  C_6
REMARK    4  A    between atoms: C_11  and  N_12
REMARK    5  A    between atoms: C_13  and  C_15
REMARK    6  A    between atoms: C_29  and  C_30
REMARK    7  A    between atoms: C_33  and  C_34
REMARK                            x       y       z     vdW  Elec       q    Type
REMARK                         _______ _______ _______ _____ _____    ______ ____
ROOT
ATOM      1  C   UNL     1      -0.280  16.439  19.754  0.00  0.00    +0.000 C 
ATOM      2  C   UNL     1       0.537  15.132  19.472  0.00  0.00    +0.000 C 
ATOM      3  N   UNL     1       0.010  13.848  19.954  0.00  0.00    +0.000 N 
ATOM      4  C   UNL     1      -1.237  13.349  19.386  0.00  0.00    +0.000 C 
ATOM      5  C   UNL     1       0.849  13.056  20.756  0.00  0.00    +0.000 C 
ATOM      6  O   UNL     1       2.024  13.341  20.986  0.00  0.00    +0.000 OA
ATOM      7  C   UNL     1       0.330  11.800  21.377  0.00  0.00    +0.000 A 
ATOM      8  C   UNL     1       0.989  10.605  21.034  0.00  0.00    +0.000 A 
ATOM      9  C   UNL     1       0.654   9.404  21.655  0.00  0.00    +0.000 A 
ATOM     10  C   UNL     1      -0.376   9.414  22.613  0.00  0.00    +0.000 A 
ATOM     11  C   UNL     1      -1.015  10.620  22.969  0.00  0.00    +0.000 A 
ATOM     12  C   UNL     1      -0.636  11.823  22.385  0.00  0.00    +0.000 A 
ATOM     13  O   UNL     1      -1.091  13.050  22.757  0.00  0.00    +0.000 OA
ATOM     14  C   UNL     1      -2.182  13.196  23.656  0.00  0.00    +0.000 C 
ATOM     15  C   UNL     1      -2.644  14.694  23.744  0.00  0.00    +0.000 C 
ATOM     16  C   UNL     1      -3.011  15.032  25.191  0.00  0.00    +0.000 C 
ATOM     17  N   UNL     1      -1.703  15.740  23.282  0.00  0.00    +0.000 NA
ATOM     18  C   UNL     1      -1.625  15.764  21.818  0.00  0.00    +0.000 C 
ATOM     19  C   UNL     1      -0.608  16.766  21.249  0.00  0.00    +0.000 C 
ATOM     20  C   UNL     1      -1.196  18.181  21.417  0.00  0.00    +0.000 C 
ATOM     21  H   UNL     1      -0.773  15.524  23.649  0.00  0.00    +0.000 HD
ENDROOT
BRANCH   9  22
ATOM     22  N   UNL     1       1.306   8.172  21.374  0.00  0.00    +0.000 N 
ATOM     23  C   UNL     1       1.795   7.766  20.137  0.00  0.00    +0.000 C 
ATOM     24  O   UNL     1       1.779   8.457  19.126  0.00  0.00    +0.000 OA
ATOM     25  H   UNL     1       1.423   7.505  22.129  0.00  0.00    +0.000 HD
BRANCH  23  26
ATOM     26  C   UNL     1       2.297   6.388  20.089  0.00  0.00    +0.000 A 
ATOM     27  N   UNL     1       1.852   5.390  20.834  0.00  0.00    +0.000 NA
ATOM     28  C   UNL     1       2.634   4.261  20.582  0.00  0.00    +0.000 A 
ATOM     29  C   UNL     1       2.583   3.031  21.271  0.00  0.00    +0.000 A 
ATOM     30  C   UNL     1       3.449   1.989  20.906  0.00  0.00    +0.000 A 
ATOM     31  C   UNL     1       4.304   2.125  19.818  0.00  0.00    +0.000 A 
ATOM     32  C   UNL     1       4.360   3.323  19.106  0.00  0.00    +0.000 A 
ATOM     33  C   UNL     1       3.559   4.391  19.542  0.00  0.00    +0.000 A 
ATOM     34  S   UNL     1       3.548   6.009  18.980  0.00  0.00    +0.000 S 
ENDBRANCH  23  26
ENDBRANCH   9  22
BRANCH   1  36
ATOM     35  C   UNL     1       1.780  17.478  18.969  0.00  0.00    +0.000 C 
ATOM     36  O   UNL     1       0.363  17.563  19.103  0.00  0.00    +0.000 OA
ENDBRANCH   1  36
TORSDOF 3
ENDMDL
MODEL 5
REMARK VINA RESULT:      -7.9      1.825      2.357
REMARK  Name = 
REMARK  7 active torsions:
REMARK  status: ('A' for Active; 'I' for Inactive)
REMARK    1  A    between atoms: C_1  and  O_2
REMARK    2  A    between atoms: O_2  and  C_3
REMARK    3  A    between atoms: N_5  and  C_6
REMARK    4  A    between atoms: C_11  and  N_12
REMARK    5  A    between atoms: C_13  and  C_15
REMARK    6  A    between atoms: C_29  and  C_30
REMARK    7  A    between atoms: C_33  and  C_34
REMARK                            x       y       z     vdW  Elec       q    Type
REMARK                         _______ _______ _______ _____ _____    ______ ____
ROOT
ATOM      1  C   UNL     1      -3.949  15.650  22.119  0.00  0.00    +0.000 C 
ATOM      2  C   UNL     1      -3.638  14.116  22.027  0.00  0.00    +0.000 C 
ATOM      3  N   UNL     1      -2.300  13.689  21.596  0.00  0.00    +0.000 N 
ATOM      4  C   UNL     1      -1.159  14.005  22.449  0.00  0.00    +0.000 C 
ATOM      5  C   UNL     1      -2.215  12.796  20.515  0.00  0.00    +0.000 C 
ATOM      6  O   UNL     1      -3.202  12.286  19.985  0.00  0.00    +0.000 OA
ATOM      7  C   UNL     1      -0.883  12.421  19.952  0.00  0.00    +0.000 A 
ATOM      8  C   UNL     1      -0.549  11.053  19.975  0.00  0.00    +0.000 A 
ATOM      9  C   UNL     1       0.616  10.596  19.364  0.00  0.00    +0.000 A 
ATOM     10  C   UNL     1       1.460  11.537  18.749  0.00  0.00    +0.000 A 
ATOM     11  C   UNL     1       1.107  12.902  18.709  0.00  0.00    +0.000 A 
ATOM     12  C   UNL     1      -0.085  13.343  19.272  0.00  0.00    +0.000 A 
ATOM     13  O   UNL     1      -0.580  14.605  19.166  0.00  0.00    +0.000 OA
ATOM     14  C   UNL     1       0.202  15.667  18.637  0.00  0.00    +0.000 C 
ATOM     15  C   UNL     1      -0.518  17.049  18.830  0.00  0.00    +0.000 C 
ATOM     16  C   UNL     1      -0.297  17.918  17.589  0.00  0.00    +0.000 C 
ATOM     17  N   UNL     1      -1.974  17.042  19.099  0.00  0.00    +0.000 NA
ATOM     18  C   UNL     1      -2.249  16.614  20.474  0.00  0.00    +0.000 C 
ATOM     19  C   UNL     1      -3.743  16.498  20.820  0.00  0.00    +0.000 C 
ATOM     20  C   UNL     1      -4.305  17.925  20.964  0.00  0.00    +0.000 C 
ATOM     21  H   UNL     1      -2.418  16.378  18.461  0.00  0.00    +0.000 HD
ENDROOT
BRANCH   9  22
ATOM     22  N   UNL     1       0.989   9.224  19.327  0.00  0.00    +0.000 N 
ATOM     23  C   UNL     1       1.411   8.458  20.408  0.00  0.00    +0.000 C 
ATOM     24  O   UNL     1       1.458   8.860  21.564  0.00  0.00    +0.000 OA
ATOM     25  H   UNL     1       0.968   8.742  18.434  0.00  0.00    +0.000 HD
BRANCH  23  26
ATOM     26  C   UNL     1       1.873   7.107  20.070  0.00  0.00    +0.000 A 
ATOM     27  N   UNL     1       1.702   6.034  20.824  0.00  0.00    +0.000 NA
ATOM     28  C   UNL     1       2.360   4.957  20.226  0.00  0.00    +0.000 A 
ATOM     29  C   UNL     1       2.543   3.671  20.777  0.00  0.00    +0.000 A 
ATOM     30  C   UNL     1       3.244   2.694  20.054  0.00  0.00    +0.000 A 
ATOM     31  C   UNL     1       3.692   2.952  18.763  0.00  0.00    +0.000 A 
ATOM     32  C   UNL     1       3.507   4.209  18.186  0.00  0.00    +0.000 A 
ATOM     33  C   UNL     1       2.890   5.208  18.957  0.00  0.00    +0.000 A 
ATOM     34  S   UNL     1       2.690   6.867  18.582  0.00  0.00    +0.000 S 
ENDBRANCH  23  26
ENDBRANCH   9  22
BRANCH   1  36
ATOM     35  C   UNL     1      -5.346  16.152  24.052  0.00  0.00    +0.000 C 
ATOM     36  O   UNL     1      -5.279  15.843  22.662  0.00  0.00    +0.000 OA
ENDBRANCH   1  36
TORSDOF 3
ENDMDL
MODEL 6
REMARK VINA RESULT:      -7.9      2.122      3.303
REMARK  Name = 
REMARK  7 active torsions:
REMARK  status: ('A' for Active; 'I' for Inactive)
REMARK    1  A    between atoms: C_1  and  O_2
REMARK    2  A    between atoms: O_2  and  C_3
REMARK    3  A    between atoms: N_5  and  C_6
REMARK    4  A    between atoms: C_11  and  N_12
REMARK    5  A    between atoms: C_13  and  C_15
REMARK    6  A    between atoms: C_29  and  C_30
REMARK    7  A    between atoms: C_33  and  C_34
REMARK                            x       y       z     vdW  Elec       q    Type
REMARK                         _______ _______ _______ _____ _____    ______ ____
ROOT
ATOM      1  C   UNL     1      -1.561  14.670  23.162  0.00  0.00    +0.000 C 
ATOM      2  C   UNL     1      -0.406  13.662  22.836  0.00  0.00    +0.000 C 
ATOM      3  N   UNL     1      -0.338  13.073  21.493  0.00  0.00    +0.000 N 
ATOM      4  C   UNL     1      -0.071  13.951  20.359  0.00  0.00    +0.000 C 
ATOM      5  C   UNL     1      -0.294  11.672  21.394  0.00  0.00    +0.000 C 
ATOM      6  O   UNL     1      -0.211  10.931  22.374  0.00  0.00    +0.000 OA
ATOM      7  C   UNL     1      -0.348  11.009  20.056  0.00  0.00    +0.000 A 
ATOM      8  C   UNL     1       0.747  10.194  19.710  0.00  0.00    +0.000 A 
ATOM      9  C   UNL     1       0.729   9.442  18.538  0.00  0.00    +0.000 A 
ATOM     10  C   UNL     1      -0.395   9.539  17.699  0.00  0.00    +0.000 A 
ATOM     11  C   UNL     1      -1.498  10.340  18.065  0.00  0.00    +0.000 A 
ATOM     12  C   UNL     1      -1.497  11.044  19.264  0.00  0.00    +0.000 A 
ATOM     13  O   UNL     1      -2.557  11.728  19.770  0.00  0.00    +0.000 OA
ATOM     14  C   UNL     1      -3.724  11.967  18.995  0.00  0.00    +0.000 C 
ATOM     15  C   UNL     1      -4.696  12.959  19.729  0.00  0.00    +0.000 C 
ATOM     16  C   UNL     1      -6.144  12.510  19.511  0.00  0.00    +0.000 C 
ATOM     17  N   UNL     1      -4.519  13.153  21.186  0.00  0.00    +0.000 NA
ATOM     18  C   UNL     1      -3.338  13.976  21.464  0.00  0.00    +0.000 C 
ATOM     19  C   UNL     1      -3.028  14.165  22.958  0.00  0.00    +0.000 C 
ATOM     20  C   UNL     1      -4.066  15.147  23.534  0.00  0.00    +0.000 C 
ATOM     21  H   UNL     1      -4.382  12.238  21.621  0.00  0.00    +0.000 HD
ENDROOT
BRANCH   9  22
ATOM     22  N   UNL     1       1.790   8.576  18.152  0.00  0.00    +0.000 N 
ATOM     23  C   UNL     1       2.325   7.543  18.912  0.00  0.00    +0.000 C 
ATOM     24  O   UNL     1       1.902   7.202  20.010  0.00  0.00    +0.000 OA
ATOM     25  H   UNL     1       2.223   8.719  17.245  0.00  0.00    +0.000 HD
BRANCH  23  26
ATOM     26  C   UNL     1       3.508   6.895  18.336  0.00  0.00    +0.000 A 
ATOM     27  N   UNL     1       3.997   7.136  17.131  0.00  0.00    +0.000 NA
ATOM     28  C   UNL     1       5.062   6.263  16.898  0.00  0.00    +0.000 A 
ATOM     29  C   UNL     1       5.761   6.095  15.684  0.00  0.00    +0.000 A 
ATOM     30  C   UNL     1       6.806   5.162  15.603  0.00  0.00    +0.000 A 
ATOM     31  C   UNL     1       7.215   4.455  16.729  0.00  0.00    +0.000 A 
ATOM     32  C   UNL     1       6.555   4.618  17.947  0.00  0.00    +0.000 A 
ATOM     33  C   UNL     1       5.449   5.482  17.990  0.00  0.00    +0.000 A 
ATOM     34  S   UNL     1       4.354   5.741  19.282  0.00  0.00    +0.000 S 
ENDBRANCH  23  26
ENDBRANCH   9  22
BRANCH   1  36
ATOM     35  C   UNL     1      -0.633  16.420  24.584  0.00  0.00    +0.000 C 
ATOM     36  O   UNL     1      -1.375  15.206  24.497  0.00  0.00    +0.000 OA
ENDBRANCH   1  36
TORSDOF 3
ENDMDL
MODEL 7
REMARK VINA RESULT:      -7.9      2.599      4.226
REMARK  Name = 
REMARK  7 active torsions:
REMARK  status: ('A' for Active; 'I' for Inactive)
REMARK    1  A    between atoms: C_1  and  O_2
REMARK    2  A    between atoms: O_2  and  C_3
REMARK    3  A    between atoms: N_5  and  C_6
REMARK    4  A    between atoms: C_11  and  N_12
REMARK    5  A    between atoms: C_13  and  C_15
REMARK    6  A    between atoms: C_29  and  C_30
REMARK    7  A    between atoms: C_33  and  C_34
REMARK                            x       y       z     vdW  Elec       q    Type
REMARK                         _______ _______ _______ _____ _____    ______ ____
ROOT
ATOM      1  C   UNL     1      -0.316  16.235  19.323  0.00  0.00    +0.000 C 
ATOM      2  C   UNL     1       0.426  14.912  18.928  0.00  0.00    +0.000 C 
ATOM      3  N   UNL     1      -0.038  13.641  19.498  0.00  0.00    +0.000 N 
ATOM      4  C   UNL     1      -1.367  13.160  19.139  0.00  0.00    +0.000 C 
ATOM      5  C   UNL     1       0.904  12.840  20.166  0.00  0.00    +0.000 C 
ATOM      6  O   UNL     1       2.105  13.107  20.205  0.00  0.00    +0.000 OA
ATOM      7  C   UNL     1       0.469  11.598  20.873  0.00  0.00    +0.000 A 
ATOM      8  C   UNL     1       1.048  10.390  20.440  0.00  0.00    +0.000 A 
ATOM      9  C   UNL     1       0.796   9.199  21.118  0.00  0.00    +0.000 A 
ATOM     10  C   UNL     1      -0.070   9.232  22.225  0.00  0.00    +0.000 A 
ATOM     11  C   UNL     1      -0.626  10.451  22.667  0.00  0.00    +0.000 A 
ATOM     12  C   UNL     1      -0.325  11.644  22.020  0.00  0.00    +0.000 A 
ATOM     13  O   UNL     1      -0.696  12.880  22.446  0.00  0.00    +0.000 OA
ATOM     14  C   UNL     1      -1.630  13.051  23.504  0.00  0.00    +0.000 C 
ATOM     15  C   UNL     1      -2.049  14.557  23.650  0.00  0.00    +0.000 C 
ATOM     16  C   UNL     1      -2.178  14.911  25.134  0.00  0.00    +0.000 C 
ATOM     17  N   UNL     1      -1.176  15.584  23.037  0.00  0.00    +0.000 NA
ATOM     18  C   UNL     1      -1.330  15.597  21.578  0.00  0.00    +0.000 C 
ATOM     19  C   UNL     1      -0.399  16.578  20.847  0.00  0.00    +0.000 C 
ATOM     20  C   UNL     1      -0.931  18.003  21.093  0.00  0.00    +0.000 C 
ATOM     21  H   UNL     1      -0.203  15.354  23.255  0.00  0.00    +0.000 HD
ENDROOT
BRANCH   9  22
ATOM     22  N   UNL     1       1.376   7.954  20.748  0.00  0.00    +0.000 N 
ATOM     23  C   UNL     1       1.997   7.664  19.539  0.00  0.00    +0.000 C 
ATOM     24  O   UNL     1       2.179   8.479  18.643  0.00  0.00    +0.000 OA
ATOM     25  H   UNL     1       1.331   7.185  21.409  0.00  0.00    +0.000 HD
BRANCH  23  26
ATOM     26  C   UNL     1       2.384   6.261  19.359  0.00  0.00    +0.000 A 
ATOM     27  N   UNL     1       3.029   5.778  18.310  0.00  0.00    +0.000 NA
ATOM     28  C   UNL     1       3.132   4.392  18.446  0.00  0.00    +0.000 A 
ATOM     29  C   UNL     1       3.619   3.485  17.482  0.00  0.00    +0.000 A 
ATOM     30  C   UNL     1       3.647   2.111  17.766  0.00  0.00    +0.000 A 
ATOM     31  C   UNL     1       3.273   1.638  19.019  0.00  0.00    +0.000 A 
ATOM     32  C   UNL     1       2.807   2.515  19.999  0.00  0.00    +0.000 A 
ATOM     33  C   UNL     1       2.692   3.876  19.669  0.00  0.00    +0.000 A 
ATOM     34  S   UNL     1       1.997   5.137  20.595  0.00  0.00    +0.000 S 
ENDBRANCH  23  26
ENDBRANCH   9  22
BRANCH   1  36
ATOM     35  C   UNL     1       1.598  17.213  18.173  0.00  0.00    +0.000 C 
ATOM     36  O   UNL     1       0.235  17.344  18.568  0.00  0.00    +0.000 OA
ENDBRANCH   1  36
TORSDOF 3
ENDMDL
MODEL 8
REMARK VINA RESULT:      -7.8      1.881      3.767
REMARK  Name = 
REMARK  7 active torsions:
REMARK  status: ('A' for Active; 'I' for Inactive)
REMARK    1  A    between atoms: C_1  and  O_2
REMARK    2  A    between atoms: O_2  and  C_3
REMARK    3  A    between atoms: N_5  and  C_6
REMARK    4  A    between atoms: C_11  and  N_12
REMARK    5  A    between atoms: C_13  and  C_15
REMARK    6  A    between atoms: C_29  and  C_30
REMARK    7  A    between atoms: C_33  and  C_34
REMARK                            x       y       z     vdW  Elec       q    Type
REMARK                         _______ _______ _______ _____ _____    ______ ____
ROOT
ATOM      1  C   UNL     1       0.623  17.087  21.174  0.00  0.00    +0.000 C 
ATOM      2  C   UNL     1       1.539  15.897  20.727  0.00  0.00    +0.000 C 
ATOM      3  N   UNL     1       0.942  14.785  19.976  0.00  0.00    +0.000 N 
ATOM      4  C   UNL     1       0.409  15.050  18.644  0.00  0.00    +0.000 C 
ATOM      5  C   UNL     1       1.127  13.485  20.474  0.00  0.00    +0.000 C 
ATOM      6  O   UNL     1       1.842  13.231  21.443  0.00  0.00    +0.000 OA
ATOM      7  C   UNL     1       0.443  12.325  19.826  0.00  0.00    +0.000 A 
ATOM      8  C   UNL     1       1.270  11.307  19.316  0.00  0.00    +0.000 A 
ATOM      9  C   UNL     1       0.720  10.134  18.804  0.00  0.00    +0.000 A 
ATOM     10  C   UNL     1      -0.680  10.007  18.786  0.00  0.00    +0.000 A 
ATOM     11  C   UNL     1      -1.502  11.022  19.321  0.00  0.00    +0.000 A 
ATOM     12  C   UNL     1      -0.943  12.165  19.881  0.00  0.00    +0.000 A 
ATOM     13  O   UNL     1      -1.636  13.130  20.542  0.00  0.00    +0.000 OA
ATOM     14  C   UNL     1      -3.057  13.163  20.533  0.00  0.00    +0.000 C 
ATOM     15  C   UNL     1      -3.596  14.489  21.178  0.00  0.00    +0.000 C 
ATOM     16  C   UNL     1      -4.841  14.182  22.014  0.00  0.00    +0.000 C 
ATOM     17  N   UNL     1      -2.676  15.265  22.041  0.00  0.00    +0.000 NA
ATOM     18  C   UNL     1      -1.672  15.968  21.236  0.00  0.00    +0.000 C 
ATOM     19  C   UNL     1      -0.622  16.736  22.055  0.00  0.00    +0.000 C 
ATOM     20  C   UNL     1      -1.301  17.995  22.627  0.00  0.00    +0.000 C 
ATOM     21  H   UNL     1      -2.191  14.615  22.664  0.00  0.00    +0.000 HD
ENDROOT
BRANCH   9  22
ATOM     22  N   UNL     1       1.505   9.058  18.306  0.00  0.00    +0.000 N 
ATOM     23  C   UNL     1       2.032   8.011  19.053  0.00  0.00    +0.000 C 
ATOM     24  O   UNL     1       1.833   7.848  20.251  0.00  0.00    +0.000 OA
ATOM     25  H   UNL     1       1.726   9.040  17.316  0.00  0.00    +0.000 HD
BRANCH  23  26
ATOM     26  C   UNL     1       2.925   7.109  18.318  0.00  0.00    +0.000 A 
ATOM     27  N   UNL     1       3.847   7.492  17.450  0.00  0.00    +0.000 NA
ATOM     28  C   UNL     1       4.426   6.356  16.881  0.00  0.00    +0.000 A 
ATOM     29  C   UNL     1       5.345   6.325  15.811  0.00  0.00    +0.000 A 
ATOM     30  C   UNL     1       5.828   5.095  15.340  0.00  0.00    +0.000 A 
ATOM     31  C   UNL     1       5.474   3.906  15.968  0.00  0.00    +0.000 A 
ATOM     32  C   UNL     1       4.582   3.909  17.041  0.00  0.00    +0.000 A 
ATOM     33  C   UNL     1       4.031   5.137  17.440  0.00  0.00    +0.000 A 
ATOM     34  S   UNL     1       2.796   5.422  18.593  0.00  0.00    +0.000 S 
ENDBRANCH  23  26
ENDBRANCH   9  22
BRANCH   1  36
ATOM     35  C   UNL     1       2.715  17.699  22.266  0.00  0.00    +0.000 C 
ATOM     36  O   UNL     1       1.433  18.114  21.800  0.00  0.00    +0.000 OA
ENDBRANCH   1  36
TORSDOF 3
ENDMDL
MODEL 9
REMARK VINA RESULT:      -7.8      1.239      1.617
REMARK  Name = 
REMARK  7 active torsions:
REMARK  status: ('A' for Active; 'I' for Inactive)
REMARK    1  A    between atoms: C_1  and  O_2
REMARK    2  A    between atoms: O_2  and  C_3
REMARK    3  A    between atoms: N_5  and  C_6
REMARK    4  A    between atoms: C_11  and  N_12
REMARK    5  A    between atoms: C_13  and  C_15
REMARK    6  A    between atoms: C_29  and  C_30
REMARK    7  A    between atoms: C_33  and  C_34
REMARK                            x       y       z     vdW  Elec       q    Type
REMARK                         _______ _______ _______ _____ _____    ______ ____
ROOT
ATOM      1  C   UNL     1      -4.877  14.650  21.983  0.00  0.00    +0.000 C 
ATOM      2  C   UNL     1      -4.362  13.207  21.650  0.00  0.00    +0.000 C 
ATOM      3  N   UNL     1      -2.931  13.008  21.387  0.00  0.00    +0.000 N 
ATOM      4  C   UNL     1      -1.984  13.239  22.472  0.00  0.00    +0.000 C 
ATOM      5  C   UNL     1      -2.567  12.379  20.184  0.00  0.00    +0.000 C 
ATOM      6  O   UNL     1      -3.388  11.905  19.399  0.00  0.00    +0.000 OA
ATOM      7  C   UNL     1      -1.128  12.258  19.803  0.00  0.00    +0.000 A 
ATOM      8  C   UNL     1      -0.631  10.955  19.617  0.00  0.00    +0.000 A 
ATOM      9  C   UNL     1       0.663  10.749  19.143  0.00  0.00    +0.000 A 
ATOM     10  C   UNL     1       1.465  11.874  18.883  0.00  0.00    +0.000 A 
ATOM     11  C   UNL     1       0.951  13.178  19.049  0.00  0.00    +0.000 A 
ATOM     12  C   UNL     1      -0.360  13.375  19.467  0.00  0.00    +0.000 A 
ATOM     13  O   UNL     1      -0.990  14.579  19.525  0.00  0.00    +0.000 OA
ATOM     14  C   UNL     1      -0.277  15.798  19.361  0.00  0.00    +0.000 C 
ATOM     15  C   UNL     1      -1.188  17.033  19.690  0.00  0.00    +0.000 C 
ATOM     16  C   UNL     1      -0.893  18.164  18.701  0.00  0.00    +0.000 C 
ATOM     17  N   UNL     1      -2.656  16.834  19.691  0.00  0.00    +0.000 NA
ATOM     18  C   UNL     1      -3.082  16.098  20.886  0.00  0.00    +0.000 C 
ATOM     19  C   UNL     1      -4.583  15.772  20.933  0.00  0.00    +0.000 C 
ATOM     20  C   UNL     1      -5.338  17.076  21.252  0.00  0.00    +0.000 C 
ATOM     21  H   UNL     1      -2.909  16.283  18.867  0.00  0.00    +0.000 HD
ENDROOT
BRANCH   9  22
ATOM     22  N   UNL     1       1.210   9.458  18.905  0.00  0.00    +0.000 N 
ATOM     23  C   UNL     1       1.598   8.539  19.873  0.00  0.00    +0.000 C 
ATOM     24  O   UNL     1       1.462   8.706  21.079  0.00  0.00    +0.000 OA
ATOM     25  H   UNL     1       1.352   9.164  17.945  0.00  0.00    +0.000 HD
BRANCH  23  26
ATOM     26  C   UNL     1       2.264   7.337  19.359  0.00  0.00    +0.000 A 
ATOM     27  N   UNL     1       2.307   6.168  19.976  0.00  0.00    +0.000 NA
ATOM     28  C   UNL     1       3.108   5.299  19.233  0.00  0.00    +0.000 A 
ATOM     29  C   UNL     1       3.527   4.007  19.614  0.00  0.00    +0.000 A 
ATOM     30  C   UNL     1       4.348   3.257  18.759  0.00  0.00    +0.000 A 
ATOM     31  C   UNL     1       4.691   3.741  17.501  0.00  0.00    +0.000 A 
ATOM     32  C   UNL     1       4.274   5.007  17.089  0.00  0.00    +0.000 A 
ATOM     33  C   UNL     1       3.533   5.786  17.994  0.00  0.00    +0.000 A 
ATOM     34  S   UNL     1       3.044   7.420  17.834  0.00  0.00    +0.000 S 
ENDBRANCH  23  26
ENDBRANCH   9  22
BRANCH   1  36
ATOM     35  C   UNL     1      -7.019  13.511  21.746  0.00  0.00    +0.000 C 
ATOM     36  O   UNL     1      -6.288  14.597  22.311  0.00  0.00    +0.000 OA
ENDBRANCH   1  36
TORSDOF 3
ENDMDL
