MODEL 1
REMARK VINA RESULT:      -6.1      0.000      0.000
REMARK  Name = 
REMARK  4 active torsions:
REMARK  status: ('A' for Active; 'I' for Inactive)
REMARK    1  A    between atoms: N_1  and  C_2
REMARK    2  A    between atoms: C_2  and  C_3
REMARK    3  A    between atoms: C_3  and  C_4
REMARK    4  A    between atoms: C_4  and  N_5
REMARK                            x       y       z     vdW  Elec       q    Type
REMARK                         _______ _______ _______ _____ _____    ______ ____
ROOT
ATOM      1  N   UNL     1       5.618   5.171  17.171  0.00  0.00    +0.000 N 
ATOM      2  C   UNL     1       5.029   6.316  16.704  0.00  0.00    +0.000 C 
ATOM      3  O   UNL     1       5.271   6.958  15.704  0.00  0.00    +0.000 OA
ATOM      4  C   UNL     1       3.998   6.673  17.680  0.00  0.00    +0.000 A 
ATOM      5  C   UNL     1       3.102   7.722  17.693  0.00  0.00    +0.000 A 
ATOM      6  C   UNL     1       2.232   7.804  18.787  0.00  0.00    +0.000 A 
ATOM      7  C   UNL     1       2.281   6.851  19.826  0.00  0.00    +0.000 A 
ATOM      8  C   UNL     1       3.198   5.796  19.788  0.00  0.00    +0.000 A 
ATOM      9  C   UNL     1       4.041   5.739  18.695  0.00  0.00    +0.000 A 
ATOM     10  C   UNL     1       5.090   4.778  18.373  0.00  0.00    +0.000 C 
ATOM     11  O   UNL     1       5.385   3.834  19.081  0.00  0.00    +0.000 OA
ENDROOT
BRANCH   1  12
ATOM     12  C   UNL     1       6.731   4.501  16.527  0.00  0.00    +0.000 C 
BRANCH  12  13
ATOM     13  C   UNL     1       6.279   3.686  15.314  0.00  0.00    +0.000 C 
BRANCH  13  14
ATOM     14  C   UNL     1       6.643   4.363  13.997  0.00  0.00    +0.000 C 
BRANCH  14  15
ATOM     15  N   UNL     1       7.618   5.427  14.206  0.00  0.00    +0.000 NA
ATOM     16  H   UNL     1       8.548   5.099  13.950  0.00  0.00    +0.000 HD
ATOM     17  H   UNL     1       7.660   5.666  15.198  0.00  0.00    +0.000 HD
ENDBRANCH  14  15
ENDBRANCH  13  14
ENDBRANCH  12  13
ENDBRANCH   1  12
TORSDOF 4
ENDMDL
MODEL 2
REMARK VINA RESULT:      -6.1      2.785      3.451
REMARK  Name = 
REMARK  4 active torsions:
REMARK  status: ('A' for Active; 'I' for Inactive)
REMARK    1  A    between atoms: N_1  and  C_2
REMARK    2  A    between atoms: C_2  and  C_3
REMARK    3  A    between atoms: C_3  and  C_4
REMARK    4  A    between atoms: C_4  and  N_5
REMARK                            x       y       z     vdW  Elec       q    Type
REMARK                         _______ _______ _______ _____ _____    ______ ____
ROOT
ATOM      1  N   UNL     1       4.164   3.576  17.640  0.00  0.00    +0.000 N 
ATOM      2  C   UNL     1       2.810   3.422  17.503  0.00  0.00    +0.000 C 
ATOM      3  O   UNL     1       2.128   3.432  16.500  0.00  0.00    +0.000 OA
ATOM      4  C   UNL     1       2.280   3.243  18.855  0.00  0.00    +0.000 A 
ATOM      5  C   UNL     1       0.988   3.033  19.291  0.00  0.00    +0.000 A 
ATOM      6  C   UNL     1       0.793   2.909  20.671  0.00  0.00    +0.000 A 
ATOM      7  C   UNL     1       1.877   3.001  21.569  0.00  0.00    +0.000 A 
ATOM      8  C   UNL     1       3.178   3.213  21.102  0.00  0.00    +0.000 A 
ATOM      9  C   UNL     1       3.340   3.328  19.735  0.00  0.00    +0.000 A 
ATOM     10  C   UNL     1       4.552   3.553  18.954  0.00  0.00    +0.000 C 
ATOM     11  O   UNL     1       5.658   3.683  19.442  0.00  0.00    +0.000 OA
ENDROOT
BRANCH   1  12
ATOM     12  C   UNL     1       5.074   3.831  16.540  0.00  0.00    +0.000 C 
BRANCH  12  13
ATOM     13  C   UNL     1       5.392   5.321  16.397  0.00  0.00    +0.000 C 
BRANCH  13  14
ATOM     14  C   UNL     1       6.854   5.629  16.701  0.00  0.00    +0.000 C 
BRANCH  14  15
ATOM     15  N   UNL     1       7.579   4.419  17.071  0.00  0.00    +0.000 NA
ATOM     16  H   UNL     1       8.346   4.654  17.700  0.00  0.00    +0.000 HD
ATOM     17  H   UNL     1       8.005   4.004  16.241  0.00  0.00    +0.000 HD
ENDBRANCH  14  15
ENDBRANCH  13  14
ENDBRANCH  12  13
ENDBRANCH   1  12
TORSDOF 4
ENDMDL
MODEL 3
REMARK VINA RESULT:      -6.1      2.676      5.440
REMARK  Name = 
REMARK  4 active torsions:
REMARK  status: ('A' for Active; 'I' for Inactive)
REMARK    1  A    between atoms: N_1  and  C_2
REMARK    2  A    between atoms: C_2  and  C_3
REMARK    3  A    between atoms: C_3  and  C_4
REMARK    4  A    between atoms: C_4  and  N_5
REMARK                            x       y       z     vdW  Elec       q    Type
REMARK                         _______ _______ _______ _____ _____    ______ ____
ROOT
ATOM      1  N   UNL     1       3.119   5.021  19.454  0.00  0.00    +0.000 N 
ATOM      2  C   UNL     1       3.857   4.022  18.877  0.00  0.00    +0.000 C 
ATOM      3  O   UNL     1       4.030   2.878  19.242  0.00  0.00    +0.000 OA
ATOM      4  C   UNL     1       4.455   4.599  17.673  0.00  0.00    +0.000 A 
ATOM      5  C   UNL     1       5.274   4.031  16.717  0.00  0.00    +0.000 A 
ATOM      6  C   UNL     1       5.699   4.856  15.670  0.00  0.00    +0.000 A 
ATOM      7  C   UNL     1       5.306   6.209  15.606  0.00  0.00    +0.000 A 
ATOM      8  C   UNL     1       4.475   6.761  16.585  0.00  0.00    +0.000 A 
ATOM      9  C   UNL     1       4.068   5.922  17.605  0.00  0.00    +0.000 A 
ATOM     10  C   UNL     1       3.216   6.197  18.757  0.00  0.00    +0.000 C 
ATOM     11  O   UNL     1       2.721   7.283  18.989  0.00  0.00    +0.000 OA
ENDROOT
BRANCH   1  12
ATOM     12  C   UNL     1       2.396   4.887  20.704  0.00  0.00    +0.000 C 
BRANCH  12  13
ATOM     13  C   UNL     1       1.159   3.999  20.554  0.00  0.00    +0.000 C 
BRANCH  13  14
ATOM     14  C   UNL     1       1.266   2.720  21.377  0.00  0.00    +0.000 C 
BRANCH  14  15
ATOM     15  N   UNL     1       2.585   2.599  21.989  0.00  0.00    +0.000 NA
ATOM     16  H   UNL     1       2.836   3.474  22.445  0.00  0.00    +0.000 HD
ATOM     17  H   UNL     1       3.287   2.439  21.265  0.00  0.00    +0.000 HD
ENDBRANCH  14  15
ENDBRANCH  13  14
ENDBRANCH  12  13
ENDBRANCH   1  12
TORSDOF 4
ENDMDL
MODEL 4
REMARK VINA RESULT:      -6.1      2.790      3.743
REMARK  Name = 
REMARK  4 active torsions:
REMARK  status: ('A' for Active; 'I' for Inactive)
REMARK    1  A    between atoms: N_1  and  C_2
REMARK    2  A    between atoms: C_2  and  C_3
REMARK    3  A    between atoms: C_3  and  C_4
REMARK    4  A    between atoms: C_4  and  N_5
REMARK                            x       y       z     vdW  Elec       q    Type
REMARK                         _______ _______ _______ _____ _____    ______ ____
ROOT
ATOM      1  N   UNL     1       4.139   3.640  17.650  0.00  0.00    +0.000 N 
ATOM      2  C   UNL     1       4.553   3.575  18.954  0.00  0.00    +0.000 C 
ATOM      3  O   UNL     1       5.671   3.666  19.416  0.00  0.00    +0.000 OA
ATOM      4  C   UNL     1       3.349   3.350  19.755  0.00  0.00    +0.000 A 
ATOM      5  C   UNL     1       3.190   3.223  21.120  0.00  0.00    +0.000 A 
ATOM      6  C   UNL     1       1.892   3.000  21.593  0.00  0.00    +0.000 A 
ATOM      7  C   UNL     1       0.802   2.907  20.704  0.00  0.00    +0.000 A 
ATOM      8  C   UNL     1       0.987   3.041  19.325  0.00  0.00    +0.000 A 
ATOM      9  C   UNL     1       2.279   3.264  18.887  0.00  0.00    +0.000 A 
ATOM     10  C   UNL     1       2.789   3.440  17.532  0.00  0.00    +0.000 C 
ATOM     11  O   UNL     1       2.091   3.405  16.536  0.00  0.00    +0.000 OA
ENDROOT
BRANCH   1  12
ATOM     12  C   UNL     1       5.028   3.804  16.516  0.00  0.00    +0.000 C 
BRANCH  12  13
ATOM     13  C   UNL     1       5.592   5.224  16.437  0.00  0.00    +0.000 C 
BRANCH  13  14
ATOM     14  C   UNL     1       7.103   5.232  16.233  0.00  0.00    +0.000 C 
BRANCH  14  15
ATOM     15  N   UNL     1       7.754   4.247  17.089  0.00  0.00    +0.000 NA
ATOM     16  H   UNL     1       7.259   4.181  17.977  0.00  0.00    +0.000 HD
ATOM     17  H   UNL     1       8.702   4.554  17.309  0.00  0.00    +0.000 HD
ENDBRANCH  14  15
ENDBRANCH  13  14
ENDBRANCH  12  13
ENDBRANCH   1  12
TORSDOF 4
ENDMDL
MODEL 5
REMARK VINA RESULT:      -6.1      2.481      3.458
REMARK  Name = 
REMARK  4 active torsions:
REMARK  status: ('A' for Active; 'I' for Inactive)
REMARK    1  A    between atoms: N_1  and  C_2
REMARK    2  A    between atoms: C_2  and  C_3
REMARK    3  A    between atoms: C_3  and  C_4
REMARK    4  A    between atoms: C_4  and  N_5
REMARK                            x       y       z     vdW  Elec       q    Type
REMARK                         _______ _______ _______ _____ _____    ______ ____
ROOT
ATOM      1  N   UNL     1       4.065   5.605  17.203  0.00  0.00    +0.000 N 
ATOM      2  C   UNL     1       4.159   4.255  16.991  0.00  0.00    +0.000 C 
ATOM      3  O   UNL     1       4.904   3.637  16.260  0.00  0.00    +0.000 OA
ATOM      4  C   UNL     1       3.137   3.636  17.836  0.00  0.00    +0.000 A 
ATOM      5  C   UNL     1       2.809   2.308  18.019  0.00  0.00    +0.000 A 
ATOM      6  C   UNL     1       1.759   2.026  18.900  0.00  0.00    +0.000 A 
ATOM      7  C   UNL     1       1.070   3.063  19.563  0.00  0.00    +0.000 A 
ATOM      8  C   UNL     1       1.422   4.401  19.362  0.00  0.00    +0.000 A 
ATOM      9  C   UNL     1       2.464   4.649  18.489  0.00  0.00    +0.000 A 
ATOM     10  C   UNL     1       3.055   5.917  18.075  0.00  0.00    +0.000 C 
ATOM     11  O   UNL     1       2.673   7.002  18.468  0.00  0.00    +0.000 OA
ENDROOT
BRANCH   1  12
ATOM     12  C   UNL     1       4.869   6.599  16.520  0.00  0.00    +0.000 C 
BRANCH  12  13
ATOM     13  C   UNL     1       6.081   7.022  17.353  0.00  0.00    +0.000 C 
BRANCH  13  14
ATOM     14  C   UNL     1       7.283   6.112  17.123  0.00  0.00    +0.000 C 
BRANCH  14  15
ATOM     15  N   UNL     1       7.327   5.641  15.743  0.00  0.00    +0.000 NA
ATOM     16  H   UNL     1       7.831   6.310  15.165  0.00  0.00    +0.000 HD
ATOM     17  H   UNL     1       6.379   5.590  15.366  0.00  0.00    +0.000 HD
ENDBRANCH  14  15
ENDBRANCH  13  14
ENDBRANCH  12  13
ENDBRANCH   1  12
TORSDOF 4
ENDMDL
MODEL 6
REMARK VINA RESULT:      -6.0      2.497      3.364
REMARK  Name = 
REMARK  4 active torsions:
REMARK  status: ('A' for Active; 'I' for Inactive)
REMARK    1  A    between atoms: N_1  and  C_2
REMARK    2  A    between atoms: C_2  and  C_3
REMARK    3  A    between atoms: C_3  and  C_4
REMARK    4  A    between atoms: C_4  and  N_5
REMARK                            x       y       z     vdW  Elec       q    Type
REMARK                         _______ _______ _______ _____ _____    ______ ____
ROOT
ATOM      1  N   UNL     1       4.056   5.575  17.124  0.00  0.00    +0.000 N 
ATOM      2  C   UNL     1       3.038   5.868  17.991  0.00  0.00    +0.000 C 
ATOM      3  O   UNL     1       2.640   6.946  18.381  0.00  0.00    +0.000 OA
ATOM      4  C   UNL     1       2.477   4.584  18.413  0.00  0.00    +0.000 A 
ATOM      5  C   UNL     1       1.429   4.300  19.264  0.00  0.00    +0.000 A 
ATOM      6  C   UNL     1       1.132   2.949  19.480  0.00  0.00    +0.000 A 
ATOM      7  C   UNL     1       1.881   1.932  18.854  0.00  0.00    +0.000 A 
ATOM      8  C   UNL     1       2.938   2.245  17.995  0.00  0.00    +0.000 A 
ATOM      9  C   UNL     1       3.206   3.587  17.797  0.00  0.00    +0.000 A 
ATOM     10  C   UNL     1       4.229   4.224  16.975  0.00  0.00    +0.000 C 
ATOM     11  O   UNL     1       5.043   3.612  16.312  0.00  0.00    +0.000 OA
ENDROOT
BRANCH   1  12
ATOM     12  C   UNL     1       4.916   6.566  16.505  0.00  0.00    +0.000 C 
BRANCH  12  13
ATOM     13  C   UNL     1       6.057   6.988  17.433  0.00  0.00    +0.000 C 
BRANCH  13  14
ATOM     14  C   UNL     1       7.332   6.191  17.177  0.00  0.00    +0.000 C 
BRANCH  14  15
ATOM     15  N   UNL     1       7.372   5.693  15.806  0.00  0.00    +0.000 NA
ATOM     16  H   UNL     1       7.015   4.740  15.774  0.00  0.00    +0.000 HD
ATOM     17  H   UNL     1       8.340   5.649  15.484  0.00  0.00    +0.000 HD
ENDBRANCH  14  15
ENDBRANCH  13  14
ENDBRANCH  12  13
ENDBRANCH   1  12
TORSDOF 4
ENDMDL
MODEL 7
REMARK VINA RESULT:      -6.0      2.874      4.953
REMARK  Name = 
REMARK  4 active torsions:
REMARK  status: ('A' for Active; 'I' for Inactive)
REMARK    1  A    between atoms: N_1  and  C_2
REMARK    2  A    between atoms: C_2  and  C_3
REMARK    3  A    between atoms: C_3  and  C_4
REMARK    4  A    between atoms: C_4  and  N_5
REMARK                            x       y       z     vdW  Elec       q    Type
REMARK                         _______ _______ _______ _____ _____    ______ ____
ROOT
ATOM      1  N   UNL     1       3.263   4.350  18.861  0.00  0.00    +0.000 N 
ATOM      2  C   UNL     1       3.263   5.517  18.146  0.00  0.00    +0.000 C 
ATOM      3  O   UNL     1       2.330   6.159  17.711  0.00  0.00    +0.000 OA
ATOM      4  C   UNL     1       4.668   5.885  17.965  0.00  0.00    +0.000 A 
ATOM      5  C   UNL     1       5.236   6.973  17.334  0.00  0.00    +0.000 A 
ATOM      6  C   UNL     1       6.634   7.043  17.318  0.00  0.00    +0.000 A 
ATOM      7  C   UNL     1       7.418   6.037  17.920  0.00  0.00    +0.000 A 
ATOM      8  C   UNL     1       6.819   4.945  18.554  0.00  0.00    +0.000 A 
ATOM      9  C   UNL     1       5.437   4.904  18.558  0.00  0.00    +0.000 A 
ATOM     10  C   UNL     1       4.533   3.911  19.126  0.00  0.00    +0.000 C 
ATOM     11  O   UNL     1       4.906   2.911  19.709  0.00  0.00    +0.000 OA
ENDROOT
BRANCH   1  12
ATOM     12  C   UNL     1       2.068   3.609  19.218  0.00  0.00    +0.000 C 
BRANCH  12  13
ATOM     13  C   UNL     1       1.509   4.050  20.573  0.00  0.00    +0.000 C 
BRANCH  13  14
ATOM     14  C   UNL     1       1.424   2.894  21.564  0.00  0.00    +0.000 C 
BRANCH  14  15
ATOM     15  N   UNL     1       2.754   2.429  21.942  0.00  0.00    +0.000 NA
ATOM     16  H   UNL     1       3.431   3.180  21.817  0.00  0.00    +0.000 HD
ATOM     17  H   UNL     1       3.044   1.672  21.321  0.00  0.00    +0.000 HD
ENDBRANCH  14  15
ENDBRANCH  13  14
ENDBRANCH  12  13
ENDBRANCH   1  12
TORSDOF 4
ENDMDL
MODEL 8
REMARK VINA RESULT:      -6.0      2.121      3.428
REMARK  Name = 
REMARK  4 active torsions:
REMARK  status: ('A' for Active; 'I' for Inactive)
REMARK    1  A    between atoms: N_1  and  C_2
REMARK    2  A    between atoms: C_2  and  C_3
REMARK    3  A    between atoms: C_3  and  C_4
REMARK    4  A    between atoms: C_4  and  N_5
REMARK                            x       y       z     vdW  Elec       q    Type
REMARK                         _______ _______ _______ _____ _____    ______ ____
ROOT
ATOM      1  N   UNL     1       4.474   5.510  18.371  0.00  0.00    +0.000 N 
ATOM      2  C   UNL     1       4.833   4.366  19.034  0.00  0.00    +0.000 C 
ATOM      3  O   UNL     1       5.904   3.797  19.070  0.00  0.00    +0.000 OA
ATOM      4  C   UNL     1       3.632   3.902  19.728  0.00  0.00    +0.000 A 
ATOM      5  C   UNL     1       3.437   2.810  20.550  0.00  0.00    +0.000 A 
ATOM      6  C   UNL     1       2.149   2.622  21.065  0.00  0.00    +0.000 A 
ATOM      7  C   UNL     1       1.103   3.514  20.748  0.00  0.00    +0.000 A 
ATOM      8  C   UNL     1       1.326   4.613  19.915  0.00  0.00    +0.000 A 
ATOM      9  C   UNL     1       2.608   4.776  19.424  0.00  0.00    +0.000 A 
ATOM     10  C   UNL     1       3.147   5.805  18.542  0.00  0.00    +0.000 C 
ATOM     11  O   UNL     1       2.488   6.719  18.086  0.00  0.00    +0.000 OA
ENDROOT
BRANCH   1  12
ATOM     12  C   UNL     1       5.361   6.271  17.512  0.00  0.00    +0.000 C 
BRANCH  12  13
ATOM     13  C   UNL     1       5.284   5.803  16.057  0.00  0.00    +0.000 C 
BRANCH  13  14
ATOM     14  C   UNL     1       6.469   4.925  15.671  0.00  0.00    +0.000 C 
BRANCH  14  15
ATOM     15  N   UNL     1       7.500   4.954  16.702  0.00  0.00    +0.000 NA
ATOM     16  H   UNL     1       7.321   4.226  17.392  0.00  0.00    +0.000 HD
ATOM     17  H   UNL     1       7.461   5.842  17.204  0.00  0.00    +0.000 HD
ENDBRANCH  14  15
ENDBRANCH  13  14
ENDBRANCH  12  13
ENDBRANCH   1  12
TORSDOF 4
ENDMDL
MODEL 9
REMARK VINA RESULT:      -6.0      2.169      2.979
REMARK  Name = 
REMARK  4 active torsions:
REMARK  status: ('A' for Active; 'I' for Inactive)
REMARK    1  A    between atoms: N_1  and  C_2
REMARK    2  A    between atoms: C_2  and  C_3
REMARK    3  A    between atoms: C_3  and  C_4
REMARK    4  A    between atoms: C_4  and  N_5
REMARK                            x       y       z     vdW  Elec       q    Type
REMARK                         _______ _______ _______ _____ _____    ______ ____
ROOT
ATOM      1  N   UNL     1       4.352   5.388  18.255  0.00  0.00    +0.000 N 
ATOM      2  C   UNL     1       3.033   5.689  18.465  0.00  0.00    +0.000 C 
ATOM      3  O   UNL     1       2.364   6.595  18.013  0.00  0.00    +0.000 OA
ATOM      4  C   UNL     1       2.527   4.680  19.397  0.00  0.00    +0.000 A 
ATOM      5  C   UNL     1       1.266   4.504  19.929  0.00  0.00    +0.000 A 
ATOM      6  C   UNL     1       1.091   3.436  20.816  0.00  0.00    +0.000 A 
ATOM      7  C   UNL     1       2.166   2.585  21.147  0.00  0.00    +0.000 A 
ATOM      8  C   UNL     1       3.434   2.783  20.593  0.00  0.00    +0.000 A 
ATOM      9  C   UNL     1       3.576   3.843  19.718  0.00  0.00    +0.000 A 
ATOM     10  C   UNL     1       4.753   4.304  18.992  0.00  0.00    +0.000 C 
ATOM     11  O   UNL     1       5.847   3.779  19.071  0.00  0.00    +0.000 OA
ENDROOT
BRANCH   1  12
ATOM     12  C   UNL     1       5.249   6.172  17.428  0.00  0.00    +0.000 C 
BRANCH  12  13
ATOM     13  C   UNL     1       5.277   5.668  15.983  0.00  0.00    +0.000 C 
BRANCH  13  14
ATOM     14  C   UNL     1       6.632   5.079  15.606  0.00  0.00    +0.000 C 
BRANCH  14  15
ATOM     15  N   UNL     1       7.502   4.975  16.772  0.00  0.00    +0.000 NA
ATOM     16  H   UNL     1       7.942   5.875  16.957  0.00  0.00    +0.000 HD
ATOM     17  H   UNL     1       8.260   4.318  16.579  0.00  0.00    +0.000 HD
ENDBRANCH  14  15
ENDBRANCH  13  14
ENDBRANCH  12  13
ENDBRANCH   1  12
TORSDOF 4
ENDMDL
