MODEL 1
REMARK VINA RESULT:      -7.9      0.000      0.000
REMARK  Name = 
REMARK  8 active torsions:
REMARK  status: ('A' for Active; 'I' for Inactive)
REMARK    1  A    between atoms: C_1  and  C_2
REMARK    2  A    between atoms: C_5  and  C_6
REMARK    3  A    between atoms: C_7  and  N_8
REMARK    4  A    between atoms: C_10  and  C_11
REMARK    5  A    between atoms: C_12  and  C_13
REMARK    6  A    between atoms: C_13  and  N_14
REMARK    7  A    between atoms: C_19  and  S_20
REMARK    8  A    between atoms: S_20  and  C_21
REMARK                            x       y       z     vdW  Elec       q    Type
REMARK                         _______ _______ _______ _____ _____    ______ ____
ROOT
ATOM      1  N   UNL     1       2.489   6.531  19.273  0.00  0.00    +0.000 N 
ATOM      2  N   UNL     1       1.921   6.895  20.457  0.00  0.00    +0.000 NA
ATOM      3  C   UNL     1       1.508   8.153  20.281  0.00  0.00    +0.000 A 
ATOM      4  C   UNL     1       0.754   8.856  21.351  0.00  0.00    +0.000 C 
ATOM      5  C   UNL     1       1.902   8.681  19.027  0.00  0.00    +0.000 A 
ATOM      6  C   UNL     1       2.569   7.633  18.434  0.00  0.00    +0.000 A 
ATOM      7 CL   UNL     1       3.472   7.638  16.984  0.00  0.00    +0.000 Cl
ENDROOT
BRANCH   1  14
ATOM      8  C   UNL     1       0.591   2.015  18.811  0.00  0.00    +0.000 C 
ATOM      9  C   UNL     1       1.806   2.895  18.782  0.00  0.00    +0.000 A 
ATOM     10  C   UNL     1       3.090   2.357  18.833  0.00  0.00    +0.000 A 
ATOM     11  C   UNL     1       4.196   3.198  18.967  0.00  0.00    +0.000 A 
ATOM     12  C   UNL     1       4.045   4.594  19.084  0.00  0.00    +0.000 A 
ATOM     13  C   UNL     1       5.294   5.408  19.301  0.00  0.00    +0.000 C 
ATOM     14  C   UNL     1       2.745   5.146  19.012  0.00  0.00    +0.000 A 
ATOM     15  C   UNL     1       1.645   4.287  18.834  0.00  0.00    +0.000 A 
ENDBRANCH   1  14
BRANCH   5  16
ATOM     16  C   UNL     1       1.648  10.055  18.505  0.00  0.00    +0.000 C 
BRANCH  16  17
ATOM     17  N   UNL     1       0.423  10.650  19.097  0.00  0.00    +0.000 NA
ATOM     18  C   UNL     1       0.674  12.010  19.579  0.00  0.00    +0.000 C 
ATOM     19  C   UNL     1      -0.377  12.579  20.533  0.00  0.00    +0.000 C 
ATOM     20  C   UNL     1      -1.652  13.066  19.868  0.00  0.00    +0.000 C 
ATOM     21  C   UNL     1      -2.470  11.945  19.244  0.00  0.00    +0.000 C 
ATOM     22  C   UNL     1      -1.826  11.447  17.953  0.00  0.00    +0.000 C 
ATOM     23  C   UNL     1      -0.716  10.407  18.188  0.00  0.00    +0.000 C 
BRANCH  22  24
ATOM     24  S   UNL     1      -3.071  10.689  16.873  0.00  0.00    +0.000 S 
ATOM     25  C   UNL     1      -4.541  11.677  17.053  0.00  0.00    +0.000 C 
ATOM     26  O   UNL     1      -2.633  10.853  15.492  0.00  0.00    +0.000 OA
ATOM     27  O   UNL     1      -3.378   9.350  17.372  0.00  0.00    +0.000 OA
ENDBRANCH  22  24
ENDBRANCH  16  17
ENDBRANCH   5  16
TORSDOF 4
ENDMDL
MODEL 2
REMARK VINA RESULT:      -7.4      3.068      4.172
REMARK  Name = 
REMARK  8 active torsions:
REMARK  status: ('A' for Active; 'I' for Inactive)
REMARK    1  A    between atoms: C_1  and  C_2
REMARK    2  A    between atoms: C_5  and  C_6
REMARK    3  A    between atoms: C_7  and  N_8
REMARK    4  A    between atoms: C_10  and  C_11
REMARK    5  A    between atoms: C_12  and  C_13
REMARK    6  A    between atoms: C_13  and  N_14
REMARK    7  A    between atoms: C_19  and  S_20
REMARK    8  A    between atoms: S_20  and  C_21
REMARK                            x       y       z     vdW  Elec       q    Type
REMARK                         _______ _______ _______ _____ _____    ______ ____
ROOT
ATOM      1  N   UNL     1       2.734   6.887  18.498  0.00  0.00    +0.000 N 
ATOM      2  N   UNL     1       2.720   7.969  17.672  0.00  0.00    +0.000 NA
ATOM      3  C   UNL     1       2.193   8.962  18.393  0.00  0.00    +0.000 A 
ATOM      4  C   UNL     1       2.102  10.335  17.833  0.00  0.00    +0.000 C 
ATOM      5  C   UNL     1       1.739   8.526  19.662  0.00  0.00    +0.000 A 
ATOM      6  C   UNL     1       2.056   7.186  19.671  0.00  0.00    +0.000 A 
ATOM      7 CL   UNL     1       1.617   6.004  20.824  0.00  0.00    +0.000 Cl
ENDROOT
BRANCH   1  14
ATOM      8  C   UNL     1       7.202   5.175  17.355  0.00  0.00    +0.000 C 
ATOM      9  C   UNL     1       5.747   4.887  17.579  0.00  0.00    +0.000 A 
ATOM     10  C   UNL     1       5.173   3.690  17.156  0.00  0.00    +0.000 A 
ATOM     11  C   UNL     1       3.791   3.512  17.230  0.00  0.00    +0.000 A 
ATOM     12  C   UNL     1       2.944   4.536  17.701  0.00  0.00    +0.000 A 
ATOM     13  C   UNL     1       1.461   4.274  17.671  0.00  0.00    +0.000 C 
ATOM     14  C   UNL     1       3.525   5.745  18.151  0.00  0.00    +0.000 A 
ATOM     15  C   UNL     1       4.924   5.891  18.108  0.00  0.00    +0.000 A 
ENDBRANCH   1  14
BRANCH   5  16
ATOM     16  C   UNL     1       1.071   9.346  20.713  0.00  0.00    +0.000 C 
BRANCH  16  17
ATOM     17  N   UNL     1       0.279  10.456  20.124  0.00  0.00    +0.000 NA
ATOM     18  C   UNL     1      -1.022   9.983  19.645  0.00  0.00    +0.000 C 
ATOM     19  C   UNL     1      -1.760  10.926  18.694  0.00  0.00    +0.000 C 
ATOM     20  C   UNL     1      -2.449  12.102  19.361  0.00  0.00    +0.000 C 
ATOM     21  C   UNL     1      -1.477  13.094  19.984  0.00  0.00    +0.000 C 
ATOM     22  C   UNL     1      -0.876  12.541  21.272  0.00  0.00    +0.000 C 
ATOM     23  C   UNL     1       0.333  11.619  21.033  0.00  0.00    +0.000 C 
BRANCH  22  24
ATOM     24  S   UNL     1      -0.331  13.893  22.351  0.00  0.00    +0.000 S 
ATOM     25  C   UNL     1      -1.200  15.344  21.794  0.00  0.00    +0.000 C 
ATOM     26  O   UNL     1      -0.814  13.620  23.700  0.00  0.00    +0.000 OA
ATOM     27  O   UNL     1       1.095  14.126  22.136  0.00  0.00    +0.000 OA
ENDBRANCH  22  24
ENDBRANCH  16  17
ENDBRANCH   5  16
TORSDOF 4
ENDMDL
MODEL 3
REMARK VINA RESULT:      -7.4      3.785      5.324
REMARK  Name = 
REMARK  8 active torsions:
REMARK  status: ('A' for Active; 'I' for Inactive)
REMARK    1  A    between atoms: C_1  and  C_2
REMARK    2  A    between atoms: C_5  and  C_6
REMARK    3  A    between atoms: C_7  and  N_8
REMARK    4  A    between atoms: C_10  and  C_11
REMARK    5  A    between atoms: C_12  and  C_13
REMARK    6  A    between atoms: C_13  and  N_14
REMARK    7  A    between atoms: C_19  and  S_20
REMARK    8  A    between atoms: S_20  and  C_21
REMARK                            x       y       z     vdW  Elec       q    Type
REMARK                         _______ _______ _______ _____ _____    ______ ____
ROOT
ATOM      1  N   UNL     1       4.480   4.366  16.943  0.00  0.00    +0.000 N 
ATOM      2  N   UNL     1       3.624   3.321  17.111  0.00  0.00    +0.000 NA
ATOM      3  C   UNL     1       2.788   3.697  18.082  0.00  0.00    +0.000 A 
ATOM      4  C   UNL     1       1.649   2.828  18.477  0.00  0.00    +0.000 C 
ATOM      5  C   UNL     1       3.149   4.941  18.653  0.00  0.00    +0.000 A 
ATOM      6  C   UNL     1       4.263   5.312  17.934  0.00  0.00    +0.000 A 
ATOM      7 CL   UNL     1       5.323   6.620  18.225  0.00  0.00    +0.000 Cl
ENDROOT
BRANCH   1  14
ATOM      8  C   UNL     1       4.767   3.606  12.091  0.00  0.00    +0.000 C 
ATOM      9  C   UNL     1       5.446   4.047  13.353  0.00  0.00    +0.000 A 
ATOM     10  C   UNL     1       6.832   4.175  13.421  0.00  0.00    +0.000 A 
ATOM     11  C   UNL     1       7.452   4.430  14.645  0.00  0.00    +0.000 A 
ATOM     12  C   UNL     1       6.706   4.534  15.836  0.00  0.00    +0.000 A 
ATOM     13  C   UNL     1       7.474   4.735  17.117  0.00  0.00    +0.000 C 
ATOM     14  C   UNL     1       5.297   4.426  15.768  0.00  0.00    +0.000 A 
ATOM     15  C   UNL     1       4.687   4.210  14.519  0.00  0.00    +0.000 A 
ENDBRANCH   1  14
BRANCH   5  16
ATOM     16  C   UNL     1       2.471   5.652  19.776  0.00  0.00    +0.000 C 
BRANCH  16  17
ATOM     17  N   UNL     1       2.365   7.111  19.519  0.00  0.00    +0.000 NA
ATOM     18  C   UNL     1       1.875   7.376  18.164  0.00  0.00    +0.000 C 
ATOM     19  C   UNL     1       2.081   8.803  17.654  0.00  0.00    +0.000 C 
ATOM     20  C   UNL     1       1.098   9.826  18.194  0.00  0.00    +0.000 C 
ATOM     21  C   UNL     1       1.250  10.076  19.687  0.00  0.00    +0.000 C 
ATOM     22  C   UNL     1       0.693   8.912  20.500  0.00  0.00    +0.000 C 
ATOM     23  C   UNL     1       1.692   7.753  20.667  0.00  0.00    +0.000 C 
BRANCH  22  24
ATOM     24  S   UNL     1       0.213   9.467  22.159  0.00  0.00    +0.000 S 
ATOM     25  C   UNL     1      -0.492  11.088  21.947  0.00  0.00    +0.000 C 
ATOM     26  O   UNL     1      -0.869   8.608  22.629  0.00  0.00    +0.000 OA
ATOM     27  O   UNL     1       1.415   9.614  22.976  0.00  0.00    +0.000 OA
ENDBRANCH  22  24
ENDBRANCH  16  17
ENDBRANCH   5  16
TORSDOF 4
ENDMDL
MODEL 4
REMARK VINA RESULT:      -7.2      3.332      4.296
REMARK  Name = 
REMARK  8 active torsions:
REMARK  status: ('A' for Active; 'I' for Inactive)
REMARK    1  A    between atoms: C_1  and  C_2
REMARK    2  A    between atoms: C_5  and  C_6
REMARK    3  A    between atoms: C_7  and  N_8
REMARK    4  A    between atoms: C_10  and  C_11
REMARK    5  A    between atoms: C_12  and  C_13
REMARK    6  A    between atoms: C_13  and  N_14
REMARK    7  A    between atoms: C_19  and  S_20
REMARK    8  A    between atoms: S_20  and  C_21
REMARK                            x       y       z     vdW  Elec       q    Type
REMARK                         _______ _______ _______ _____ _____    ______ ____
ROOT
ATOM      1  N   UNL     1       2.038   7.757  19.730  0.00  0.00    +0.000 N 
ATOM      2  N   UNL     1       1.783   7.765  21.068  0.00  0.00    +0.000 NA
ATOM      3  C   UNL     1       0.913   8.759  21.259  0.00  0.00    +0.000 A 
ATOM      4  C   UNL     1       0.337   9.010  22.606  0.00  0.00    +0.000 C 
ATOM      5  C   UNL     1       0.672   9.501  20.076  0.00  0.00    +0.000 A 
ATOM      6  C   UNL     1       1.446   8.862  19.135  0.00  0.00    +0.000 A 
ATOM      7 CL   UNL     1       1.777   9.348  17.531  0.00  0.00    +0.000 Cl
ENDROOT
BRANCH   1  14
ATOM      8  C   UNL     1       5.041   6.096  16.205  0.00  0.00    +0.000 C 
ATOM      9  C   UNL     1       4.171   5.786  17.386  0.00  0.00    +0.000 A 
ATOM     10  C   UNL     1       3.763   4.482  17.662  0.00  0.00    +0.000 A 
ATOM     11  C   UNL     1       2.826   4.240  18.668  0.00  0.00    +0.000 A 
ATOM     12  C   UNL     1       2.251   5.296  19.403  0.00  0.00    +0.000 A 
ATOM     13  C   UNL     1       1.194   4.937  20.415  0.00  0.00    +0.000 C 
ATOM     14  C   UNL     1       2.677   6.619  19.141  0.00  0.00    +0.000 A 
ATOM     15  C   UNL     1       3.654   6.840  18.152  0.00  0.00    +0.000 A 
ENDBRANCH   1  14
BRANCH   5  16
ATOM     16  C   UNL     1      -0.211  10.693  19.922  0.00  0.00    +0.000 C 
BRANCH  16  17
ATOM     17  N   UNL     1       0.562  11.960  19.986  0.00  0.00    +0.000 NA
ATOM     18  C   UNL     1       0.612  12.617  18.678  0.00  0.00    +0.000 C 
ATOM     19  C   UNL     1       1.674  13.707  18.525  0.00  0.00    +0.000 C 
ATOM     20  C   UNL     1       1.324  15.039  19.164  0.00  0.00    +0.000 C 
ATOM     21  C   UNL     1       1.254  14.977  20.683  0.00  0.00    +0.000 C 
ATOM     22  C   UNL     1      -0.014  14.267  21.147  0.00  0.00    +0.000 C 
ATOM     23  C   UNL     1       0.118  12.734  21.164  0.00  0.00    +0.000 C 
BRANCH  22  24
ATOM     24  S   UNL     1      -0.463  14.798  22.822  0.00  0.00    +0.000 S 
ATOM     25  C   UNL     1      -1.985  15.708  22.656  0.00  0.00    +0.000 C 
ATOM     26  O   UNL     1      -0.781  13.609  23.606  0.00  0.00    +0.000 OA
ATOM     27  O   UNL     1       0.552  15.728  23.313  0.00  0.00    +0.000 OA
ENDBRANCH  22  24
ENDBRANCH  16  17
ENDBRANCH   5  16
TORSDOF 4
ENDMDL
MODEL 5
REMARK VINA RESULT:      -7.2      2.931      4.069
REMARK  Name = 
REMARK  8 active torsions:
REMARK  status: ('A' for Active; 'I' for Inactive)
REMARK    1  A    between atoms: C_1  and  C_2
REMARK    2  A    between atoms: C_5  and  C_6
REMARK    3  A    between atoms: C_7  and  N_8
REMARK    4  A    between atoms: C_10  and  C_11
REMARK    5  A    between atoms: C_12  and  C_13
REMARK    6  A    between atoms: C_13  and  N_14
REMARK    7  A    between atoms: C_19  and  S_20
REMARK    8  A    between atoms: S_20  and  C_21
REMARK                            x       y       z     vdW  Elec       q    Type
REMARK                         _______ _______ _______ _____ _____    ______ ____
ROOT
ATOM      1  N   UNL     1       2.722   7.043  18.452  0.00  0.00    +0.000 N 
ATOM      2  N   UNL     1       2.703   8.140  17.645  0.00  0.00    +0.000 NA
ATOM      3  C   UNL     1       2.139   9.108  18.371  0.00  0.00    +0.000 A 
ATOM      4  C   UNL     1       2.031  10.489  17.834  0.00  0.00    +0.000 C 
ATOM      5  C   UNL     1       1.666   8.639  19.621  0.00  0.00    +0.000 A 
ATOM      6  C   UNL     1       2.011   7.306  19.614  0.00  0.00    +0.000 A 
ATOM      7 CL   UNL     1       1.572   6.094  20.735  0.00  0.00    +0.000 Cl
ENDROOT
BRANCH   1  14
ATOM      8  C   UNL     1       7.230   5.466  17.272  0.00  0.00    +0.000 C 
ATOM      9  C   UNL     1       5.787   5.134  17.512  0.00  0.00    +0.000 A 
ATOM     10  C   UNL     1       5.247   3.917  17.101  0.00  0.00    +0.000 A 
ATOM     11  C   UNL     1       3.872   3.697  17.190  0.00  0.00    +0.000 A 
ATOM     12  C   UNL     1       2.999   4.696  17.664  0.00  0.00    +0.000 A 
ATOM     13  C   UNL     1       1.524   4.387  17.651  0.00  0.00    +0.000 C 
ATOM     14  C   UNL     1       3.545   5.925  18.102  0.00  0.00    +0.000 A 
ATOM     15  C   UNL     1       4.938   6.114  18.044  0.00  0.00    +0.000 A 
ENDBRANCH   1  14
BRANCH   5  16
ATOM     16  C   UNL     1       0.957   9.425  20.672  0.00  0.00    +0.000 C 
BRANCH  16  17
ATOM     17  N   UNL     1       0.067  10.456  20.080  0.00  0.00    +0.000 NA
ATOM     18  C   UNL     1      -0.978   9.845  19.256  0.00  0.00    +0.000 C 
ATOM     19  C   UNL     1      -1.709  10.793  18.303  0.00  0.00    +0.000 C 
ATOM     20  C   UNL     1      -2.759  11.675  18.954  0.00  0.00    +0.000 C 
ATOM     21  C   UNL     1      -2.171  12.698  19.915  0.00  0.00    +0.000 C 
ATOM     22  C   UNL     1      -1.723  12.039  21.215  0.00  0.00    +0.000 C 
ATOM     23  C   UNL     1      -0.316  11.420  21.131  0.00  0.00    +0.000 C 
BRANCH  22  24
ATOM     24  S   UNL     1      -1.712  13.247  22.569  0.00  0.00    +0.000 S 
ATOM     25  C   UNL     1      -3.066  12.799  23.635  0.00  0.00    +0.000 C 
ATOM     26  O   UNL     1      -0.495  13.045  23.347  0.00  0.00    +0.000 OA
ATOM     27  O   UNL     1      -2.002  14.571  22.025  0.00  0.00    +0.000 OA
ENDBRANCH  22  24
ENDBRANCH  16  17
ENDBRANCH   5  16
TORSDOF 4
ENDMDL
MODEL 6
REMARK VINA RESULT:      -7.1      3.090      3.980
REMARK  Name = 
REMARK  8 active torsions:
REMARK  status: ('A' for Active; 'I' for Inactive)
REMARK    1  A    between atoms: C_1  and  C_2
REMARK    2  A    between atoms: C_5  and  C_6
REMARK    3  A    between atoms: C_7  and  N_8
REMARK    4  A    between atoms: C_10  and  C_11
REMARK    5  A    between atoms: C_12  and  C_13
REMARK    6  A    between atoms: C_13  and  N_14
REMARK    7  A    between atoms: C_19  and  S_20
REMARK    8  A    between atoms: S_20  and  C_21
REMARK                            x       y       z     vdW  Elec       q    Type
REMARK                         _______ _______ _______ _____ _____    ______ ____
ROOT
ATOM      1  N   UNL     1       2.313   7.033  19.940  0.00  0.00    +0.000 N 
ATOM      2  N   UNL     1       1.799   7.254  21.181  0.00  0.00    +0.000 NA
ATOM      3  C   UNL     1       1.038   8.345  21.063  0.00  0.00    +0.000 A 
ATOM      4  C   UNL     1       0.240   8.837  22.216  0.00  0.00    +0.000 C 
ATOM      5  C   UNL     1       1.132   8.932  19.777  0.00  0.00    +0.000 A 
ATOM      6  C   UNL     1       1.994   8.095  19.106  0.00  0.00    +0.000 A 
ATOM      7 CL   UNL     1       2.697   8.316  17.564  0.00  0.00    +0.000 Cl
ENDROOT
BRANCH   1  14
ATOM      8  C   UNL     1       6.046   4.656  17.791  0.00  0.00    +0.000 C 
ATOM      9  C   UNL     1       4.767   4.578  18.570  0.00  0.00    +0.000 A 
ATOM     10  C   UNL     1       4.064   3.380  18.688  0.00  0.00    +0.000 A 
ATOM     11  C   UNL     1       2.800   3.367  19.279  0.00  0.00    +0.000 A 
ATOM     12  C   UNL     1       2.193   4.553  19.739  0.00  0.00    +0.000 A 
ATOM     13  C   UNL     1       0.795   4.443  20.291  0.00  0.00    +0.000 C 
ATOM     14  C   UNL     1       2.911   5.767  19.640  0.00  0.00    +0.000 A 
ATOM     15  C   UNL     1       4.202   5.755  19.080  0.00  0.00    +0.000 A 
ENDBRANCH   1  14
BRANCH   5  16
ATOM     16  C   UNL     1       0.453  10.170  19.297  0.00  0.00    +0.000 C 
BRANCH  16  17
ATOM     17  N   UNL     1       1.249  11.387  19.601  0.00  0.00    +0.000 NA
ATOM     18  C   UNL     1       1.608  12.105  18.377  0.00  0.00    +0.000 C 
ATOM     19  C   UNL     1       2.726  13.139  18.519  0.00  0.00    +0.000 C 
ATOM     20  C   UNL     1       2.307  14.455  19.151  0.00  0.00    +0.000 C 
ATOM     21  C   UNL     1       1.911  14.319  20.613  0.00  0.00    +0.000 C 
ATOM     22  C   UNL     1       0.542  13.660  20.755  0.00  0.00    +0.000 C 
ATOM     23  C   UNL     1       0.599  12.123  20.704  0.00  0.00    +0.000 C 
BRANCH  22  24
ATOM     24  S   UNL     1      -0.231  14.131  22.327  0.00  0.00    +0.000 S 
ATOM     25  C   UNL     1      -1.862  14.714  21.914  0.00  0.00    +0.000 C 
ATOM     26  O   UNL     1      -0.417  12.921  23.121  0.00  0.00    +0.000 OA
ATOM     27  O   UNL     1       0.505  15.255  22.899  0.00  0.00    +0.000 OA
ENDBRANCH  22  24
ENDBRANCH  16  17
ENDBRANCH   5  16
TORSDOF 4
ENDMDL
MODEL 7
REMARK VINA RESULT:      -7.1      3.574      5.573
REMARK  Name = 
REMARK  8 active torsions:
REMARK  status: ('A' for Active; 'I' for Inactive)
REMARK    1  A    between atoms: C_1  and  C_2
REMARK    2  A    between atoms: C_5  and  C_6
REMARK    3  A    between atoms: C_7  and  N_8
REMARK    4  A    between atoms: C_10  and  C_11
REMARK    5  A    between atoms: C_12  and  C_13
REMARK    6  A    between atoms: C_13  and  N_14
REMARK    7  A    between atoms: C_19  and  S_20
REMARK    8  A    between atoms: S_20  and  C_21
REMARK                            x       y       z     vdW  Elec       q    Type
REMARK                         _______ _______ _______ _____ _____    ______ ____
ROOT
ATOM      1  N   UNL     1       0.173  11.388  20.584  0.00  0.00    +0.000 N 
ATOM      2  N   UNL     1       0.681  12.341  21.414  0.00  0.00    +0.000 NA
ATOM      3  C   UNL     1      -0.281  13.259  21.534  0.00  0.00    +0.000 A 
ATOM      4  C   UNL     1      -0.109  14.419  22.447  0.00  0.00    +0.000 C 
ATOM      5  C   UNL     1      -1.390  12.991  20.694  0.00  0.00    +0.000 A 
ATOM      6  C   UNL     1      -1.040  11.817  20.067  0.00  0.00    +0.000 A 
ATOM      7 CL   UNL     1      -1.837  11.027  18.778  0.00  0.00    +0.000 Cl
ENDROOT
BRANCH   1  14
ATOM      8  C   UNL     1       2.436   8.106  17.702  0.00  0.00    +0.000 C 
ATOM      9  C   UNL     1       1.942   8.472  19.070  0.00  0.00    +0.000 A 
ATOM     10  C   UNL     1       1.823   7.516  20.076  0.00  0.00    +0.000 A 
ATOM     11  C   UNL     1       1.212   7.846  21.286  0.00  0.00    +0.000 A 
ATOM     12  C   UNL     1       0.679   9.131  21.511  0.00  0.00    +0.000 A 
ATOM     13  C   UNL     1      -0.028   9.366  22.821  0.00  0.00    +0.000 C 
ATOM     14  C   UNL     1       0.817  10.111  20.501  0.00  0.00    +0.000 A 
ATOM     15  C   UNL     1       1.472   9.772  19.303  0.00  0.00    +0.000 A 
ENDBRANCH   1  14
BRANCH   5  16
ATOM     16  C   UNL     1      -2.626  13.813  20.538  0.00  0.00    +0.000 C 
BRANCH  16  17
ATOM     17  N   UNL     1      -3.833  13.082  21.002  0.00  0.00    +0.000 NA
ATOM     18  C   UNL     1      -4.502  13.800  22.089  0.00  0.00    +0.000 C 
ATOM     19  C   UNL     1      -5.515  12.986  22.896  0.00  0.00    +0.000 C 
ATOM     20  C   UNL     1      -6.860  12.784  22.221  0.00  0.00    +0.000 C 
ATOM     21  C   UNL     1      -6.782  11.915  20.975  0.00  0.00    +0.000 C 
ATOM     22  C   UNL     1      -6.159  12.676  19.809  0.00  0.00    +0.000 C 
ATOM     23  C   UNL     1      -4.620  12.661  19.825  0.00  0.00    +0.000 C 
BRANCH  22  24
ATOM     24  S   UNL     1      -6.700  11.971  18.228  0.00  0.00    +0.000 S 
ATOM     25  C   UNL     1      -5.264  11.976  17.174  0.00  0.00    +0.000 C 
ATOM     26  O   UNL     1      -7.040  10.570  18.449  0.00  0.00    +0.000 OA
ATOM     27  O   UNL     1      -7.690  12.861  17.626  0.00  0.00    +0.000 OA
ENDBRANCH  22  24
ENDBRANCH  16  17
ENDBRANCH   5  16
TORSDOF 4
ENDMDL
MODEL 8
REMARK VINA RESULT:      -7.0      0.851      1.684
REMARK  Name = 
REMARK  8 active torsions:
REMARK  status: ('A' for Active; 'I' for Inactive)
REMARK    1  A    between atoms: C_1  and  C_2
REMARK    2  A    between atoms: C_5  and  C_6
REMARK    3  A    between atoms: C_7  and  N_8
REMARK    4  A    between atoms: C_10  and  C_11
REMARK    5  A    between atoms: C_12  and  C_13
REMARK    6  A    between atoms: C_13  and  N_14
REMARK    7  A    between atoms: C_19  and  S_20
REMARK    8  A    between atoms: S_20  and  C_21
REMARK                            x       y       z     vdW  Elec       q    Type
REMARK                         _______ _______ _______ _____ _____    ______ ____
ROOT
ATOM      1  N   UNL     1       2.424   6.721  19.353  0.00  0.00    +0.000 N 
ATOM      2  N   UNL     1       1.856   6.979  20.564  0.00  0.00    +0.000 NA
ATOM      3  C   UNL     1       1.374   8.221  20.474  0.00  0.00    +0.000 A 
ATOM      4  C   UNL     1       0.599   8.814  21.595  0.00  0.00    +0.000 C 
ATOM      5  C   UNL     1       1.721   8.848  19.252  0.00  0.00    +0.000 A 
ATOM      6  C   UNL     1       2.433   7.877  18.586  0.00  0.00    +0.000 A 
ATOM      7 CL   UNL     1       3.314   8.023  17.128  0.00  0.00    +0.000 Cl
ENDROOT
BRANCH   1  14
ATOM      8  C   UNL     1       4.997   3.752  16.393  0.00  0.00    +0.000 C 
ATOM      9  C   UNL     1       4.027   3.888  17.528  0.00  0.00    +0.000 A 
ATOM     10  C   UNL     1       3.265   2.806  17.962  0.00  0.00    +0.000 A 
ATOM     11  C   UNL     1       2.256   2.995  18.908  0.00  0.00    +0.000 A 
ATOM     12  C   UNL     1       1.964   4.274  19.422  0.00  0.00    +0.000 A 
ATOM     13  C   UNL     1       0.808   4.384  20.382  0.00  0.00    +0.000 C 
ATOM     14  C   UNL     1       2.749   5.372  19.001  0.00  0.00    +0.000 A 
ATOM     15  C   UNL     1       3.789   5.156  18.077  0.00  0.00    +0.000 A 
ENDBRANCH   1  14
BRANCH   5  16
ATOM     16  C   UNL     1       1.387  10.236  18.821  0.00  0.00    +0.000 C 
BRANCH  16  17
ATOM     17  N   UNL     1       0.069  10.673  19.348  0.00  0.00    +0.000 NA
ATOM     18  C   UNL     1       0.166  11.979  20.004  0.00  0.00    +0.000 C 
ATOM     19  C   UNL     1      -1.011  12.358  20.904  0.00  0.00    +0.000 C 
ATOM     20  C   UNL     1      -2.252  12.835  20.171  0.00  0.00    +0.000 C 
ATOM     21  C   UNL     1      -2.917  11.745  19.344  0.00  0.00    +0.000 C 
ATOM     22  C   UNL     1      -2.118  11.449  18.078  0.00  0.00    +0.000 C 
ATOM     23  C   UNL     1      -0.958  10.465  18.306  0.00  0.00    +0.000 C 
BRANCH  22  24
ATOM     24  S   UNL     1      -3.194  10.745  16.798  0.00  0.00    +0.000 S 
ATOM     25  C   UNL     1      -4.732  11.636  16.907  0.00  0.00    +0.000 C 
ATOM     26  O   UNL     1      -2.622  11.071  15.496  0.00  0.00    +0.000 OA
ATOM     27  O   UNL     1      -3.471   9.349  17.128  0.00  0.00    +0.000 OA
ENDBRANCH  22  24
ENDBRANCH  16  17
ENDBRANCH   5  16
TORSDOF 4
ENDMDL
MODEL 9
REMARK VINA RESULT:      -7.0      0.934      1.671
REMARK  Name = 
REMARK  8 active torsions:
REMARK  status: ('A' for Active; 'I' for Inactive)
REMARK    1  A    between atoms: C_1  and  C_2
REMARK    2  A    between atoms: C_5  and  C_6
REMARK    3  A    between atoms: C_7  and  N_8
REMARK    4  A    between atoms: C_10  and  C_11
REMARK    5  A    between atoms: C_12  and  C_13
REMARK    6  A    between atoms: C_13  and  N_14
REMARK    7  A    between atoms: C_19  and  S_20
REMARK    8  A    between atoms: S_20  and  C_21
REMARK                            x       y       z     vdW  Elec       q    Type
REMARK                         _______ _______ _______ _____ _____    ______ ____
ROOT
ATOM      1  N   UNL     1       2.426   5.909  19.466  0.00  0.00    +0.000 N 
ATOM      2  N   UNL     1       1.823   6.358  20.602  0.00  0.00    +0.000 NA
ATOM      3  C   UNL     1       1.527   7.638  20.366  0.00  0.00    +0.000 A 
ATOM      4  C   UNL     1       0.773   8.435  21.368  0.00  0.00    +0.000 C 
ATOM      5  C   UNL     1       2.035   8.090  19.123  0.00  0.00    +0.000 A 
ATOM      6  C   UNL     1       2.645   6.972  18.602  0.00  0.00    +0.000 A 
ATOM      7 CL   UNL     1       3.628   6.856  17.209  0.00  0.00    +0.000 Cl
ENDROOT
BRANCH   1  14
ATOM      8  C   UNL     1       4.974   1.848  20.570  0.00  0.00    +0.000 C 
ATOM      9  C   UNL     1       3.848   2.475  19.804  0.00  0.00    +0.000 A 
ATOM     10  C   UNL     1       3.237   1.811  18.743  0.00  0.00    +0.000 A 
ATOM     11  C   UNL     1       2.303   2.475  17.946  0.00  0.00    +0.000 A 
ATOM     12  C   UNL     1       1.979   3.828  18.170  0.00  0.00    +0.000 A 
ATOM     13  C   UNL     1       1.017   4.477  17.209  0.00  0.00    +0.000 C 
ATOM     14  C   UNL     1       2.581   4.500  19.260  0.00  0.00    +0.000 A 
ATOM     15  C   UNL     1       3.488   3.802  20.078  0.00  0.00    +0.000 A 
ENDBRANCH   1  14
BRANCH   5  16
ATOM     16  C   UNL     1       1.926   9.462  18.548  0.00  0.00    +0.000 C 
BRANCH  16  17
ATOM     17  N   UNL     1       0.778  10.209  19.121  0.00  0.00    +0.000 NA
ATOM     18  C   UNL     1       1.150  11.588  19.443  0.00  0.00    +0.000 C 
ATOM     19  C   UNL     1       0.191  12.334  20.372  0.00  0.00    +0.000 C 
ATOM     20  C   UNL     1      -1.076  12.846  19.710  0.00  0.00    +0.000 C 
ATOM     21  C   UNL     1      -2.002  11.733  19.243  0.00  0.00    +0.000 C 
ATOM     22  C   UNL     1      -1.459  11.054  17.989  0.00  0.00    +0.000 C 
ATOM     23  C   UNL     1      -0.418   9.962  18.290  0.00  0.00    +0.000 C 
BRANCH  22  24
ATOM     24  S   UNL     1      -2.806  10.287  17.048  0.00  0.00    +0.000 S 
ATOM     25  C   UNL     1      -4.053  11.545  16.863  0.00  0.00    +0.000 C 
ATOM     26  O   UNL     1      -2.314   9.998  15.705  0.00  0.00    +0.000 OA
ATOM     27  O   UNL     1      -3.386   9.208  17.844  0.00  0.00    +0.000 OA
ENDBRANCH  22  24
ENDBRANCH  16  17
ENDBRANCH   5  16
TORSDOF 4
ENDMDL
