MODEL 1
REMARK VINA RESULT:      -6.8      0.000      0.000
REMARK  Name = 
REMARK  10 active torsions:
REMARK  status: ('A' for Active; 'I' for Inactive)
REMARK    1  A    between atoms: O_1  and  C_2
REMARK    2  A    between atoms: C_2  and  C_3
REMARK    3  A    between atoms: C_3  and  C_4
REMARK    4  A    between atoms: C_4  and  N_5
REMARK    5  A    between atoms: N_5  and  C_6
REMARK    6  A    between atoms: N_14  and  C_15
REMARK    7  A    between atoms: N_17  and  C_18
REMARK    8  A    between atoms: C_18  and  C_19
REMARK    9  A    between atoms: C_25  and  C_26
REMARK   10  A    between atoms: C_26  and  O_27
REMARK                            x       y       z     vdW  Elec       q    Type
REMARK                         _______ _______ _______ _____ _____    ______ ____
ROOT
ATOM      1  C   UNL     1       1.946   7.191  20.057  0.00  0.00    +0.000 A 
ATOM      2  N   UNL     1       2.271   7.247  18.740  0.00  0.00    +0.000 NA
ATOM      3  C   UNL     1       2.099   8.408  18.078  0.00  0.00    +0.000 A 
ATOM      4  N   UNL     1       1.674   9.589  18.564  0.00  0.00    +0.000 NA
ATOM      5  C   UNL     1       1.341   9.493  19.860  0.00  0.00    +0.000 A 
ATOM      6  C   UNL     1       1.414   8.358  20.650  0.00  0.00    +0.000 A 
ATOM      7  N   UNL     1       0.977   8.626  21.930  0.00  0.00    +0.000 NA
ATOM      8  C   UNL     1       0.673   9.906  21.921  0.00  0.00    +0.000 A 
ATOM      9  N   UNL     1       0.892  10.490  20.694  0.00  0.00    +0.000 N 
ENDROOT
BRANCH   9  10
ATOM     10  C   UNL     1       0.922  11.925  20.435  0.00  0.00    +0.000 C 
ATOM     11  C   UNL     1       0.195  12.488  19.185  0.00  0.00    +0.000 C 
ATOM     12  N   UNL     1      -1.269  12.649  19.302  0.00  0.00    +0.000 NA
ATOM     13  C   UNL     1      -1.537  13.443  20.513  0.00  0.00    +0.000 C 
ATOM     14  C   UNL     1      -0.787  13.038  21.809  0.00  0.00    +0.000 C 
ATOM     15  O   UNL     1       0.595  12.669  21.627  0.00  0.00    +0.000 OA
BRANCH  12  16
ATOM     16  C   UNL     1      -1.949  11.348  19.240  0.00  0.00    +0.000 C 
BRANCH  16  17
ATOM     17  C   UNL     1      -2.275  10.882  17.865  0.00  0.00    +0.000 A 
ATOM     18  C   UNL     1      -1.843   9.833  17.082  0.00  0.00    +0.000 A 
ATOM     19  C   UNL     1      -2.615   9.881  15.896  0.00  0.00    +0.000 A 
ATOM     20  C   UNL     1      -3.457  10.959  16.026  0.00  0.00    +0.000 A 
ATOM     21  O   UNL     1      -3.256  11.576  17.216  0.00  0.00    +0.000 OA
ENDBRANCH  16  17
ENDBRANCH  12  16
BRANCH  14  22
ATOM     22  C   UNL     1      -1.535  12.021  22.675  0.00  0.00    +0.000 C 
BRANCH  22  23
ATOM     23  O   UNL     1      -2.938  12.251  22.606  0.00  0.00    +0.000 OA
ATOM     24  H   UNL     1      -3.131  12.563  21.704  0.00  0.00    +0.000 HD
ENDBRANCH  22  23
ENDBRANCH  14  22
ENDBRANCH   9  10
BRANCH   1  25
ATOM     25  N   UNL     1       2.147   6.018  20.799  0.00  0.00    +0.000 N 
ATOM     26  H   UNL     1       2.812   6.222  21.546  0.00  0.00    +0.000 HD
BRANCH  25  27
ATOM     27  C   UNL     1       2.489   4.843  19.999  0.00  0.00    +0.000 C 
BRANCH  27  28
ATOM     28  C   UNL     1       1.283   3.900  19.975  0.00  0.00    +0.000 C 
BRANCH  28  29
ATOM     29  C   UNL     1       1.252   2.953  21.165  0.00  0.00    +0.000 C 
BRANCH  29  30
ATOM     30  O   UNL     1       2.279   3.286  22.087  0.00  0.00    +0.000 OA
ATOM     31  H   UNL     1       1.886   3.252  22.977  0.00  0.00    +0.000 HD
ENDBRANCH  29  30
ENDBRANCH  28  29
ENDBRANCH  27  28
ENDBRANCH  25  27
ENDBRANCH   1  25
TORSDOF 10
ENDMDL
MODEL 2
REMARK VINA RESULT:      -6.7      2.793      8.261
REMARK  Name = 
REMARK  10 active torsions:
REMARK  status: ('A' for Active; 'I' for Inactive)
REMARK    1  A    between atoms: O_1  and  C_2
REMARK    2  A    between atoms: C_2  and  C_3
REMARK    3  A    between atoms: C_3  and  C_4
REMARK    4  A    between atoms: C_4  and  N_5
REMARK    5  A    between atoms: N_5  and  C_6
REMARK    6  A    between atoms: N_14  and  C_15
REMARK    7  A    between atoms: N_17  and  C_18
REMARK    8  A    between atoms: C_18  and  C_19
REMARK    9  A    between atoms: C_25  and  C_26
REMARK   10  A    between atoms: C_26  and  O_27
REMARK                            x       y       z     vdW  Elec       q    Type
REMARK                         _______ _______ _______ _____ _____    ______ ____
ROOT
ATOM      1  C   UNL     1       1.453   9.070  19.901  0.00  0.00    +0.000 A 
ATOM      2  N   UNL     1       1.769   9.609  18.694  0.00  0.00    +0.000 NA
ATOM      3  C   UNL     1       2.211   8.794  17.716  0.00  0.00    +0.000 A 
ATOM      4  N   UNL     1       2.349   7.455  17.746  0.00  0.00    +0.000 NA
ATOM      5  C   UNL     1       2.050   6.959  18.956  0.00  0.00    +0.000 A 
ATOM      6  C   UNL     1       1.637   7.679  20.065  0.00  0.00    +0.000 A 
ATOM      7  N   UNL     1       1.433   6.842  21.141  0.00  0.00    +0.000 NA
ATOM      8  C   UNL     1       1.689   5.635  20.683  0.00  0.00    +0.000 A 
ATOM      9  N   UNL     1       2.051   5.644  19.356  0.00  0.00    +0.000 N 
ENDROOT
BRANCH   9  10
ATOM     10  C   UNL     1       2.125   4.469  18.493  0.00  0.00    +0.000 C 
ATOM     11  C   UNL     1       3.445   4.161  17.738  0.00  0.00    +0.000 C 
ATOM     12  N   UNL     1       4.510   3.513  18.529  0.00  0.00    +0.000 NA
ATOM     13  C   UNL     1       3.932   2.315  19.162  0.00  0.00    +0.000 C 
ATOM     14  C   UNL     1       2.559   2.475  19.866  0.00  0.00    +0.000 C 
ATOM     15  O   UNL     1       1.607   3.304  19.168  0.00  0.00    +0.000 OA
BRANCH  12  16
ATOM     16  C   UNL     1       5.139   4.470  19.450  0.00  0.00    +0.000 C 
BRANCH  16  17
ATOM     17  C   UNL     1       6.151   5.362  18.823  0.00  0.00    +0.000 A 
ATOM     18  C   UNL     1       6.156   6.164  17.701  0.00  0.00    +0.000 A 
ATOM     19  C   UNL     1       7.400   6.841  17.705  0.00  0.00    +0.000 A 
ATOM     20  C   UNL     1       8.076   6.401  18.818  0.00  0.00    +0.000 A 
ATOM     21  O   UNL     1       7.328   5.501  19.501  0.00  0.00    +0.000 OA
ENDBRANCH  16  17
ENDBRANCH  12  16
BRANCH  14  22
ATOM     22  C   UNL     1       2.652   2.845  21.348  0.00  0.00    +0.000 C 
BRANCH  22  23
ATOM     23  O   UNL     1       1.467   2.452  22.031  0.00  0.00    +0.000 OA
ATOM     24  H   UNL     1       0.773   3.089  21.786  0.00  0.00    +0.000 HD
ENDBRANCH  22  23
ENDBRANCH  14  22
ENDBRANCH   9  10
BRANCH   1  25
ATOM     25  N   UNL     1       0.949   9.871  20.936  0.00  0.00    +0.000 N 
ATOM     26  H   UNL     1       0.279   9.317  21.470  0.00  0.00    +0.000 HD
BRANCH  25  27
ATOM     27  C   UNL     1       0.442  11.173  20.507  0.00  0.00    +0.000 C 
BRANCH  27  28
ATOM     28  C   UNL     1      -0.943  11.386  21.122  0.00  0.00    +0.000 C 
BRANCH  28  29
ATOM     29  C   UNL     1      -0.880  11.801  22.585  0.00  0.00    +0.000 C 
BRANCH  29  30
ATOM     30  O   UNL     1      -0.447  10.713  23.388  0.00  0.00    +0.000 OA
ATOM     31  H   UNL     1      -0.129  11.087  24.228  0.00  0.00    +0.000 HD
ENDBRANCH  29  30
ENDBRANCH  28  29
ENDBRANCH  27  28
ENDBRANCH  25  27
ENDBRANCH   1  25
TORSDOF 10
ENDMDL
MODEL 3
REMARK VINA RESULT:      -6.6      4.805      8.952
REMARK  Name = 
REMARK  10 active torsions:
REMARK  status: ('A' for Active; 'I' for Inactive)
REMARK    1  A    between atoms: O_1  and  C_2
REMARK    2  A    between atoms: C_2  and  C_3
REMARK    3  A    between atoms: C_3  and  C_4
REMARK    4  A    between atoms: C_4  and  N_5
REMARK    5  A    between atoms: N_5  and  C_6
REMARK    6  A    between atoms: N_14  and  C_15
REMARK    7  A    between atoms: N_17  and  C_18
REMARK    8  A    between atoms: C_18  and  C_19
REMARK    9  A    between atoms: C_25  and  C_26
REMARK   10  A    between atoms: C_26  and  O_27
REMARK                            x       y       z     vdW  Elec       q    Type
REMARK                         _______ _______ _______ _____ _____    ______ ____
ROOT
ATOM      1  C   UNL     1       1.833   8.945  18.626  0.00  0.00    +0.000 A 
ATOM      2  N   UNL     1       1.272   8.681  19.835  0.00  0.00    +0.000 NA
ATOM      3  C   UNL     1       1.595   7.533  20.463  0.00  0.00    +0.000 A 
ATOM      4  N   UNL     1       2.468   6.586  20.071  0.00  0.00    +0.000 NA
ATOM      5  C   UNL     1       2.987   6.867  18.866  0.00  0.00    +0.000 A 
ATOM      6  C   UNL     1       2.707   7.977  18.085  0.00  0.00    +0.000 A 
ATOM      7  N   UNL     1       3.412   7.928  16.901  0.00  0.00    +0.000 NA
ATOM      8  C   UNL     1       4.127   6.826  16.979  0.00  0.00    +0.000 A 
ATOM      9  N   UNL     1       3.922   6.150  18.160  0.00  0.00    +0.000 N 
ENDROOT
BRANCH   9  10
ATOM     10  C   UNL     1       4.755   5.064  18.666  0.00  0.00    +0.000 C 
ATOM     11  C   UNL     1       5.041   3.838  17.759  0.00  0.00    +0.000 C 
ATOM     12  N   UNL     1       6.089   4.018  16.734  0.00  0.00    +0.000 NA
ATOM     13  C   UNL     1       7.300   4.509  17.413  0.00  0.00    +0.000 C 
ATOM     14  C   UNL     1       7.125   5.672  18.425  0.00  0.00    +0.000 C 
ATOM     15  O   UNL     1       5.960   5.579  19.269  0.00  0.00    +0.000 OA
BRANCH  12  16
ATOM     16  C   UNL     1       5.605   4.854  15.627  0.00  0.00    +0.000 C 
BRANCH  16  17
ATOM     17  C   UNL     1       6.262   4.593  14.318  0.00  0.00    +0.000 A 
ATOM     18  C   UNL     1       6.007   3.727  13.275  0.00  0.00    +0.000 A 
ATOM     19  C   UNL     1       6.949   4.039  12.264  0.00  0.00    +0.000 A 
ATOM     20  C   UNL     1       7.722   5.062  12.758  0.00  0.00    +0.000 A 
ATOM     21  O   UNL     1       7.316   5.403  14.006  0.00  0.00    +0.000 OA
ENDBRANCH  16  17
ENDBRANCH  12  16
BRANCH  14  22
ATOM     22  C   UNL     1       7.269   7.066  17.810  0.00  0.00    +0.000 C 
BRANCH  22  23
ATOM     23  O   UNL     1       7.771   6.971  16.482  0.00  0.00    +0.000 OA
ATOM     24  H   UNL     1       7.171   6.380  15.992  0.00  0.00    +0.000 HD
ENDBRANCH  22  23
ENDBRANCH  14  22
ENDBRANCH   9  10
BRANCH   1  25
ATOM     25  N   UNL     1       1.561  10.145  17.954  0.00  0.00    +0.000 N 
ATOM     26  H   UNL     1       2.386  10.401  17.411  0.00  0.00    +0.000 HD
BRANCH  25  27
ATOM     27  C   UNL     1       1.049  11.217  18.805  0.00  0.00    +0.000 C 
BRANCH  27  28
ATOM     28  C   UNL     1      -0.445  11.392  18.526  0.00  0.00    +0.000 C 
BRANCH  28  29
ATOM     29  C   UNL     1      -1.278  11.463  19.797  0.00  0.00    +0.000 C 
BRANCH  29  30
ATOM     30  O   UNL     1      -0.597  10.826  20.868  0.00  0.00    +0.000 OA
ATOM     31  H   UNL     1       0.279  11.244  20.938  0.00  0.00    +0.000 HD
ENDBRANCH  29  30
ENDBRANCH  28  29
ENDBRANCH  27  28
ENDBRANCH  25  27
ENDBRANCH   1  25
TORSDOF 10
ENDMDL
MODEL 4
REMARK VINA RESULT:      -6.6      0.997      1.052
REMARK  Name = 
REMARK  10 active torsions:
REMARK  status: ('A' for Active; 'I' for Inactive)
REMARK    1  A    between atoms: O_1  and  C_2
REMARK    2  A    between atoms: C_2  and  C_3
REMARK    3  A    between atoms: C_3  and  C_4
REMARK    4  A    between atoms: C_4  and  N_5
REMARK    5  A    between atoms: N_5  and  C_6
REMARK    6  A    between atoms: N_14  and  C_15
REMARK    7  A    between atoms: N_17  and  C_18
REMARK    8  A    between atoms: C_18  and  C_19
REMARK    9  A    between atoms: C_25  and  C_26
REMARK   10  A    between atoms: C_26  and  O_27
REMARK                            x       y       z     vdW  Elec       q    Type
REMARK                         _______ _______ _______ _____ _____    ______ ____
ROOT
ATOM      1  C   UNL     1       2.080   7.371  19.753  0.00  0.00    +0.000 A 
ATOM      2  N   UNL     1       2.272   7.563  18.422  0.00  0.00    +0.000 NA
ATOM      3  C   UNL     1       1.944   8.754  17.884  0.00  0.00    +0.000 A 
ATOM      4  N   UNL     1       1.474   9.849  18.510  0.00  0.00    +0.000 NA
ATOM      5  C   UNL     1       1.276   9.619  19.817  0.00  0.00    +0.000 A 
ATOM      6  C   UNL     1       1.516   8.434  20.493  0.00  0.00    +0.000 A 
ATOM      7  N   UNL     1       1.184   8.557  21.825  0.00  0.00    +0.000 NA
ATOM      8  C   UNL     1       0.779   9.802  21.958  0.00  0.00    +0.000 A 
ATOM      9  N   UNL     1       0.831  10.501  20.773  0.00  0.00    +0.000 N 
ENDROOT
BRANCH   9  10
ATOM     10  C   UNL     1       0.720  11.949  20.641  0.00  0.00    +0.000 C 
ATOM     11  C   UNL     1      -0.030  12.548  19.422  0.00  0.00    +0.000 C 
ATOM     12  N   UNL     1      -1.504  12.552  19.505  0.00  0.00    +0.000 NA
ATOM     13  C   UNL     1      -1.881  13.202  20.771  0.00  0.00    +0.000 C 
ATOM     14  C   UNL     1      -1.126  12.758  22.051  0.00  0.00    +0.000 C 
ATOM     15  O   UNL     1       0.290  12.546  21.883  0.00  0.00    +0.000 OA
BRANCH  12  16
ATOM     16  C   UNL     1      -2.047  11.200  19.306  0.00  0.00    +0.000 C 
BRANCH  16  17
ATOM     17  C   UNL     1      -2.386  10.868  17.896  0.00  0.00    +0.000 A 
ATOM     18  C   UNL     1      -1.926   9.929  16.996  0.00  0.00    +0.000 A 
ATOM     19  C   UNL     1      -2.729  10.065  15.838  0.00  0.00    +0.000 A 
ATOM     20  C   UNL     1      -3.616  11.081  16.100  0.00  0.00    +0.000 A 
ATOM     21  O   UNL     1      -3.414  11.578  17.345  0.00  0.00    +0.000 OA
ENDBRANCH  16  17
ENDBRANCH  12  16
BRANCH  14  22
ATOM     22  C   UNL     1      -1.787  11.597  22.799  0.00  0.00    +0.000 C 
BRANCH  22  23
ATOM     23  O   UNL     1      -3.109  11.950  23.189  0.00  0.00    +0.000 OA
ATOM     24  H   UNL     1      -3.590  11.119  23.351  0.00  0.00    +0.000 HD
ENDBRANCH  22  23
ENDBRANCH  14  22
ENDBRANCH   9  10
BRANCH   1  25
ATOM     25  N   UNL     1       2.445   6.164  20.365  0.00  0.00    +0.000 N 
ATOM     26  H   UNL     1       3.273   6.333  20.938  0.00  0.00    +0.000 HD
BRANCH  25  27
ATOM     27  C   UNL     1       2.572   5.031  19.451  0.00  0.00    +0.000 C 
BRANCH  27  28
ATOM     28  C   UNL     1       1.659   3.903  19.938  0.00  0.00    +0.000 C 
BRANCH  28  29
ATOM     29  C   UNL     1       1.009   3.137  18.797  0.00  0.00    +0.000 C 
BRANCH  29  30
ATOM     30  O   UNL     1       1.249   3.794  17.562  0.00  0.00    +0.000 OA
ATOM     31  H   UNL     1       0.633   3.413  16.911  0.00  0.00    +0.000 HD
ENDBRANCH  29  30
ENDBRANCH  28  29
ENDBRANCH  27  28
ENDBRANCH  25  27
ENDBRANCH   1  25
TORSDOF 10
ENDMDL
MODEL 5
REMARK VINA RESULT:      -6.6      4.827      9.068
REMARK  Name = 
REMARK  10 active torsions:
REMARK  status: ('A' for Active; 'I' for Inactive)
REMARK    1  A    between atoms: O_1  and  C_2
REMARK    2  A    between atoms: C_2  and  C_3
REMARK    3  A    between atoms: C_3  and  C_4
REMARK    4  A    between atoms: C_4  and  N_5
REMARK    5  A    between atoms: N_5  and  C_6
REMARK    6  A    between atoms: N_14  and  C_15
REMARK    7  A    between atoms: N_17  and  C_18
REMARK    8  A    between atoms: C_18  and  C_19
REMARK    9  A    between atoms: C_25  and  C_26
REMARK   10  A    between atoms: C_26  and  O_27
REMARK                            x       y       z     vdW  Elec       q    Type
REMARK                         _______ _______ _______ _____ _____    ______ ____
ROOT
ATOM      1  C   UNL     1       1.751   8.734  18.935  0.00  0.00    +0.000 A 
ATOM      2  N   UNL     1       1.175   8.384  20.115  0.00  0.00    +0.000 NA
ATOM      3  C   UNL     1       1.545   7.229  20.700  0.00  0.00    +0.000 A 
ATOM      4  N   UNL     1       2.479   6.349  20.291  0.00  0.00    +0.000 NA
ATOM      5  C   UNL     1       3.012   6.713  19.115  0.00  0.00    +0.000 A 
ATOM      6  C   UNL     1       2.691   7.840  18.376  0.00  0.00    +0.000 A 
ATOM      7  N   UNL     1       3.427   7.884  17.211  0.00  0.00    +0.000 NA
ATOM      8  C   UNL     1       4.200   6.820  17.260  0.00  0.00    +0.000 A 
ATOM      9  N   UNL     1       4.003   6.080  18.404  0.00  0.00    +0.000 N 
ENDROOT
BRANCH   9  10
ATOM     10  C   UNL     1       4.882   5.019  18.884  0.00  0.00    +0.000 C 
ATOM     11  C   UNL     1       5.191   3.811  17.962  0.00  0.00    +0.000 C 
ATOM     12  N   UNL     1       6.212   4.035  16.919  0.00  0.00    +0.000 NA
ATOM     13  C   UNL     1       7.419   4.561  17.578  0.00  0.00    +0.000 C 
ATOM     14  C   UNL     1       7.225   5.710  18.603  0.00  0.00    +0.000 C 
ATOM     15  O   UNL     1       6.080   5.570  19.468  0.00  0.00    +0.000 OA
BRANCH  12  16
ATOM     16  C   UNL     1       5.679   4.863  15.828  0.00  0.00    +0.000 C 
BRANCH  16  17
ATOM     17  C   UNL     1       6.314   4.631  14.503  0.00  0.00    +0.000 A 
ATOM     18  C   UNL     1       6.008   3.832  13.421  0.00  0.00    +0.000 A 
ATOM     19  C   UNL     1       6.961   4.141  12.420  0.00  0.00    +0.000 A 
ATOM     20  C   UNL     1       7.791   5.095  12.958  0.00  0.00    +0.000 A 
ATOM     21  O   UNL     1       7.410   5.396  14.223  0.00  0.00    +0.000 OA
ENDBRANCH  16  17
ENDBRANCH  12  16
BRANCH  14  22
ATOM     22  C   UNL     1       7.310   7.113  17.997  0.00  0.00    +0.000 C 
BRANCH  22  23
ATOM     23  O   UNL     1       7.715   7.039  16.635  0.00  0.00    +0.000 OA
ATOM     24  H   UNL     1       8.659   7.277  16.605  0.00  0.00    +0.000 HD
ENDBRANCH  22  23
ENDBRANCH  14  22
ENDBRANCH   9  10
BRANCH   1  25
ATOM     25  N   UNL     1       1.430   9.947  18.310  0.00  0.00    +0.000 N 
ATOM     26  H   UNL     1       2.291  10.356  17.945  0.00  0.00    +0.000 HD
BRANCH  25  27
ATOM     27  C   UNL     1       0.631  10.860  19.125  0.00  0.00    +0.000 C 
BRANCH  27  28
ATOM     28  C   UNL     1       1.486  12.083  19.469  0.00  0.00    +0.000 C 
BRANCH  28  29
ATOM     29  C   UNL     1       1.677  13.019  18.286  0.00  0.00    +0.000 C 
BRANCH  29  30
ATOM     30  O   UNL     1       2.636  12.486  17.385  0.00  0.00    +0.000 OA
ATOM     31  H   UNL     1       3.511  12.776  17.695  0.00  0.00    +0.000 HD
ENDBRANCH  29  30
ENDBRANCH  28  29
ENDBRANCH  27  28
ENDBRANCH  25  27
ENDBRANCH   1  25
TORSDOF 10
ENDMDL
MODEL 6
REMARK VINA RESULT:      -6.6      0.994      1.075
REMARK  Name = 
REMARK  10 active torsions:
REMARK  status: ('A' for Active; 'I' for Inactive)
REMARK    1  A    between atoms: O_1  and  C_2
REMARK    2  A    between atoms: C_2  and  C_3
REMARK    3  A    between atoms: C_3  and  C_4
REMARK    4  A    between atoms: C_4  and  N_5
REMARK    5  A    between atoms: N_5  and  C_6
REMARK    6  A    between atoms: N_14  and  C_15
REMARK    7  A    between atoms: N_17  and  C_18
REMARK    8  A    between atoms: C_18  and  C_19
REMARK    9  A    between atoms: C_25  and  C_26
REMARK   10  A    between atoms: C_26  and  O_27
REMARK                            x       y       z     vdW  Elec       q    Type
REMARK                         _______ _______ _______ _____ _____    ______ ____
ROOT
ATOM      1  C   UNL     1       2.127   7.260  19.746  0.00  0.00    +0.000 A 
ATOM      2  N   UNL     1       2.294   7.428  18.408  0.00  0.00    +0.000 NA
ATOM      3  C   UNL     1       1.972   8.615  17.858  0.00  0.00    +0.000 A 
ATOM      4  N   UNL     1       1.529   9.727  18.476  0.00  0.00    +0.000 NA
ATOM      5  C   UNL     1       1.356   9.520  19.790  0.00  0.00    +0.000 A 
ATOM      6  C   UNL     1       1.593   8.342  20.480  0.00  0.00    +0.000 A 
ATOM      7  N   UNL     1       1.290   8.491  21.816  0.00  0.00    +0.000 NA
ATOM      8  C   UNL     1       0.904   9.744  21.937  0.00  0.00    +0.000 A 
ATOM      9  N   UNL     1       0.942  10.422  20.741  0.00  0.00    +0.000 N 
ENDROOT
BRANCH   9  10
ATOM     10  C   UNL     1       0.848  11.870  20.588  0.00  0.00    +0.000 C 
ATOM     11  C   UNL     1       0.132  12.460  19.344  0.00  0.00    +0.000 C 
ATOM     12  N   UNL     1      -1.344  12.478  19.392  0.00  0.00    +0.000 NA
ATOM     13  C   UNL     1      -1.744  13.149  20.641  0.00  0.00    +0.000 C 
ATOM     14  C   UNL     1      -1.022  12.714  21.944  0.00  0.00    +0.000 C 
ATOM     15  O   UNL     1       0.395  12.487  21.811  0.00  0.00    +0.000 OA
BRANCH  12  16
ATOM     16  C   UNL     1      -1.894  11.129  19.198  0.00  0.00    +0.000 C 
BRANCH  16  17
ATOM     17  C   UNL     1      -2.314  10.824  17.804  0.00  0.00    +0.000 A 
ATOM     18  C   UNL     1      -1.931   9.881  16.874  0.00  0.00    +0.000 A 
ATOM     19  C   UNL     1      -2.787  10.056  15.759  0.00  0.00    +0.000 A 
ATOM     20  C   UNL     1      -3.626  11.097  16.075  0.00  0.00    +0.000 A 
ATOM     21  O   UNL     1      -3.345  11.573  17.313  0.00  0.00    +0.000 OA
ENDBRANCH  16  17
ENDBRANCH  12  16
BRANCH  14  22
ATOM     22  C   UNL     1      -1.712  11.570  22.691  0.00  0.00    +0.000 C 
BRANCH  22  23
ATOM     23  O   UNL     1      -2.774  12.072  23.493  0.00  0.00    +0.000 OA
ATOM     24  H   UNL     1      -2.375  12.653  24.164  0.00  0.00    +0.000 HD
ENDBRANCH  22  23
ENDBRANCH  14  22
ENDBRANCH   9  10
BRANCH   1  25
ATOM     25  N   UNL     1       2.489   6.058  20.371  0.00  0.00    +0.000 N 
ATOM     26  H   UNL     1       3.387   6.196  20.836  0.00  0.00    +0.000 HD
BRANCH  25  27
ATOM     27  C   UNL     1       2.440   4.882  19.503  0.00  0.00    +0.000 C 
BRANCH  27  28
ATOM     28  C   UNL     1       3.826   4.234  19.480  0.00  0.00    +0.000 C 
BRANCH  28  29
ATOM     29  C   UNL     1       3.788   2.750  19.816  0.00  0.00    +0.000 C 
BRANCH  29  30
ATOM     30  O   UNL     1       5.105   2.221  19.860  0.00  0.00    +0.000 OA
ATOM     31  H   UNL     1       5.283   1.974  20.784  0.00  0.00    +0.000 HD
ENDBRANCH  29  30
ENDBRANCH  28  29
ENDBRANCH  27  28
ENDBRANCH  25  27
ENDBRANCH   1  25
TORSDOF 10
ENDMDL
MODEL 7
REMARK VINA RESULT:      -6.5      4.999      8.115
REMARK  Name = 
REMARK  10 active torsions:
REMARK  status: ('A' for Active; 'I' for Inactive)
REMARK    1  A    between atoms: O_1  and  C_2
REMARK    2  A    between atoms: C_2  and  C_3
REMARK    3  A    between atoms: C_3  and  C_4
REMARK    4  A    between atoms: C_4  and  N_5
REMARK    5  A    between atoms: N_5  and  C_6
REMARK    6  A    between atoms: N_14  and  C_15
REMARK    7  A    between atoms: N_17  and  C_18
REMARK    8  A    between atoms: C_18  and  C_19
REMARK    9  A    between atoms: C_25  and  C_26
REMARK   10  A    between atoms: C_26  and  O_27
REMARK                            x       y       z     vdW  Elec       q    Type
REMARK                         _______ _______ _______ _____ _____    ______ ____
ROOT
ATOM      1  C   UNL     1       7.048   5.183  15.573  0.00  0.00    +0.000 A 
ATOM      2  N   UNL     1       7.602   6.278  16.156  0.00  0.00    +0.000 NA
ATOM      3  C   UNL     1       7.163   6.658  17.372  0.00  0.00    +0.000 A 
ATOM      4  N   UNL     1       6.243   6.058  18.150  0.00  0.00    +0.000 NA
ATOM      5  C   UNL     1       5.702   4.995  17.537  0.00  0.00    +0.000 A 
ATOM      6  C   UNL     1       6.015   4.522  16.273  0.00  0.00    +0.000 A 
ATOM      7  N   UNL     1       5.249   3.418  15.963  0.00  0.00    +0.000 NA
ATOM      8  C   UNL     1       4.508   3.211  17.031  0.00  0.00    +0.000 A 
ATOM      9  N   UNL     1       4.754   4.127  18.027  0.00  0.00    +0.000 N 
ENDROOT
BRANCH   9  10
ATOM     10  C   UNL     1       4.312   4.008  19.412  0.00  0.00    +0.000 C 
ATOM     11  C   UNL     1       3.846   5.277  20.174  0.00  0.00    +0.000 C 
ATOM     12  N   UNL     1       2.472   5.738  19.890  0.00  0.00    +0.000 NA
ATOM     13  C   UNL     1       1.565   4.596  20.092  0.00  0.00    +0.000 C 
ATOM     14  C   UNL     1       1.976   3.240  19.460  0.00  0.00    +0.000 C 
ATOM     15  O   UNL     1       3.378   2.919  19.561  0.00  0.00    +0.000 OA
BRANCH  12  16
ATOM     16  C   UNL     1       2.394   6.377  18.568  0.00  0.00    +0.000 C 
BRANCH  16  17
ATOM     17  C   UNL     1       2.049   7.824  18.598  0.00  0.00    +0.000 A 
ATOM     18  C   UNL     1       2.118   8.844  17.672  0.00  0.00    +0.000 A 
ATOM     19  C   UNL     1       1.542   9.980  18.291  0.00  0.00    +0.000 A 
ATOM     20  C   UNL     1       1.171   9.585  19.554  0.00  0.00    +0.000 A 
ATOM     21  O   UNL     1       1.478   8.279  19.752  0.00  0.00    +0.000 OA
ENDBRANCH  16  17
ENDBRANCH  12  16
BRANCH  14  22
ATOM     22  C   UNL     1       1.446   3.024  18.040  0.00  0.00    +0.000 C 
BRANCH  22  23
ATOM     23  O   UNL     1       1.128   4.272  17.435  0.00  0.00    +0.000 OA
ATOM     24  H   UNL     1       0.198   4.464  17.651  0.00  0.00    +0.000 HD
ENDBRANCH  22  23
ENDBRANCH  14  22
ENDBRANCH   9  10
BRANCH   1  25
ATOM     25  N   UNL     1       7.501   4.724  14.329  0.00  0.00    +0.000 N 
ATOM     26  H   UNL     1       8.335   5.256  14.075  0.00  0.00    +0.000 HD
BRANCH  25  27
ATOM     27  C   UNL     1       6.479   4.683  13.285  0.00  0.00    +0.000 C 
BRANCH  27  28
ATOM     28  C   UNL     1       6.810   3.542  12.320  0.00  0.00    +0.000 C 
BRANCH  28  29
ATOM     29  C   UNL     1       5.572   2.804  11.833  0.00  0.00    +0.000 C 
BRANCH  29  30
ATOM     30  O   UNL     1       5.868   1.433  11.617  0.00  0.00    +0.000 OA
ATOM     31  H   UNL     1       6.536   1.393  10.910  0.00  0.00    +0.000 HD
ENDBRANCH  29  30
ENDBRANCH  28  29
ENDBRANCH  27  28
ENDBRANCH  25  27
ENDBRANCH   1  25
TORSDOF 10
ENDMDL
MODEL 8
REMARK VINA RESULT:      -6.4      2.962      8.261
REMARK  Name = 
REMARK  10 active torsions:
REMARK  status: ('A' for Active; 'I' for Inactive)
REMARK    1  A    between atoms: O_1  and  C_2
REMARK    2  A    between atoms: C_2  and  C_3
REMARK    3  A    between atoms: C_3  and  C_4
REMARK    4  A    between atoms: C_4  and  N_5
REMARK    5  A    between atoms: N_5  and  C_6
REMARK    6  A    between atoms: N_14  and  C_15
REMARK    7  A    between atoms: N_17  and  C_18
REMARK    8  A    between atoms: C_18  and  C_19
REMARK    9  A    between atoms: C_25  and  C_26
REMARK   10  A    between atoms: C_26  and  O_27
REMARK                            x       y       z     vdW  Elec       q    Type
REMARK                         _______ _______ _______ _____ _____    ______ ____
ROOT
ATOM      1  C   UNL     1       1.547   9.069  19.909  0.00  0.00    +0.000 A 
ATOM      2  N   UNL     1       1.794   9.609  18.687  0.00  0.00    +0.000 NA
ATOM      3  C   UNL     1       2.102   8.787  17.665  0.00  0.00    +0.000 A 
ATOM      4  N   UNL     1       2.160   7.441  17.667  0.00  0.00    +0.000 NA
ATOM      5  C   UNL     1       1.933   6.943  18.891  0.00  0.00    +0.000 A 
ATOM      6  C   UNL     1       1.658   7.667  20.040  0.00  0.00    +0.000 A 
ATOM      7  N   UNL     1       1.493   6.825  21.119  0.00  0.00    +0.000 NA
ATOM      8  C   UNL     1       1.637   5.613  20.626  0.00  0.00    +0.000 A 
ATOM      9  N   UNL     1       1.887   5.623  19.273  0.00  0.00    +0.000 N 
ENDROOT
BRANCH   9  10
ATOM     10  C   UNL     1       1.817   4.462  18.392  0.00  0.00    +0.000 C 
ATOM     11  C   UNL     1       3.108   3.955  17.697  0.00  0.00    +0.000 C 
ATOM     12  N   UNL     1       4.014   3.136  18.527  0.00  0.00    +0.000 NA
ATOM     13  C   UNL     1       3.221   2.039  19.108  0.00  0.00    +0.000 C 
ATOM     14  C   UNL     1       1.856   2.409  19.745  0.00  0.00    +0.000 C 
ATOM     15  O   UNL     1       1.086   3.387  19.018  0.00  0.00    +0.000 OA
BRANCH  12  16
ATOM     16  C   UNL     1       4.740   3.969  19.496  0.00  0.00    +0.000 C 
BRANCH  16  17
ATOM     17  C   UNL     1       5.925   4.677  18.942  0.00  0.00    +0.000 A 
ATOM     18  C   UNL     1       6.792   5.627  19.440  0.00  0.00    +0.000 A 
ATOM     19  C   UNL     1       7.780   5.821  18.444  0.00  0.00    +0.000 A 
ATOM     20  C   UNL     1       7.447   4.989  17.402  0.00  0.00    +0.000 A 
ATOM     21  O   UNL     1       6.321   4.293  17.692  0.00  0.00    +0.000 OA
ENDBRANCH  16  17
ENDBRANCH  12  16
BRANCH  14  22
ATOM     22  C   UNL     1       1.931   2.742  21.238  0.00  0.00    +0.000 C 
BRANCH  22  23
ATOM     23  O   UNL     1       3.153   2.267  21.789  0.00  0.00    +0.000 OA
ATOM     24  H   UNL     1       2.921   1.643  22.500  0.00  0.00    +0.000 HD
ENDBRANCH  22  23
ENDBRANCH  14  22
ENDBRANCH   9  10
BRANCH   1  25
ATOM     25  N   UNL     1       1.180   9.880  20.993  0.00  0.00    +0.000 N 
ATOM     26  H   UNL     1       1.152   9.300  21.832  0.00  0.00    +0.000 HD
BRANCH  25  27
ATOM     27  C   UNL     1      -0.027  10.676  20.776  0.00  0.00    +0.000 C 
BRANCH  27  28
ATOM     28  C   UNL     1      -0.497  11.228  22.124  0.00  0.00    +0.000 C 
BRANCH  28  29
ATOM     29  C   UNL     1      -0.800  10.133  23.136  0.00  0.00    +0.000 C 
BRANCH  29  30
ATOM     30  O   UNL     1       0.395   9.702  23.769  0.00  0.00    +0.000 OA
ATOM     31  H   UNL     1       0.623   8.835  23.390  0.00  0.00    +0.000 HD
ENDBRANCH  29  30
ENDBRANCH  28  29
ENDBRANCH  27  28
ENDBRANCH  25  27
ENDBRANCH   1  25
TORSDOF 10
ENDMDL
MODEL 9
REMARK VINA RESULT:      -6.4      4.762      9.012
REMARK  Name = 
REMARK  10 active torsions:
REMARK  status: ('A' for Active; 'I' for Inactive)
REMARK    1  A    between atoms: O_1  and  C_2
REMARK    2  A    between atoms: C_2  and  C_3
REMARK    3  A    between atoms: C_3  and  C_4
REMARK    4  A    between atoms: C_4  and  N_5
REMARK    5  A    between atoms: N_5  and  C_6
REMARK    6  A    between atoms: N_14  and  C_15
REMARK    7  A    between atoms: N_17  and  C_18
REMARK    8  A    between atoms: C_18  and  C_19
REMARK    9  A    between atoms: C_25  and  C_26
REMARK   10  A    between atoms: C_26  and  O_27
REMARK                            x       y       z     vdW  Elec       q    Type
REMARK                         _______ _______ _______ _____ _____    ______ ____
ROOT
ATOM      1  C   UNL     1       1.778   8.818  18.790  0.00  0.00    +0.000 A 
ATOM      2  N   UNL     1       1.232   8.493  19.991  0.00  0.00    +0.000 NA
ATOM      3  C   UNL     1       1.588   7.330  20.571  0.00  0.00    +0.000 A 
ATOM      4  N   UNL     1       2.482   6.422  20.138  0.00  0.00    +0.000 NA
ATOM      5  C   UNL     1       2.986   6.763  18.942  0.00  0.00    +0.000 A 
ATOM      6  C   UNL     1       2.673   7.895  18.206  0.00  0.00    +0.000 A 
ATOM      7  N   UNL     1       3.372   7.911  17.018  0.00  0.00    +0.000 NA
ATOM      8  C   UNL     1       4.114   6.825  17.048  0.00  0.00    +0.000 A 
ATOM      9  N   UNL     1       3.935   6.098  18.203  0.00  0.00    +0.000 N 
ENDROOT
BRANCH   9  10
ATOM     10  C   UNL     1       4.798   5.015  18.662  0.00  0.00    +0.000 C 
ATOM     11  C   UNL     1       5.100   3.827  17.710  0.00  0.00    +0.000 C 
ATOM     12  N   UNL     1       6.130   4.066  16.680  0.00  0.00    +0.000 NA
ATOM     13  C   UNL     1       7.339   4.562  17.360  0.00  0.00    +0.000 C 
ATOM     14  C   UNL     1       7.151   5.685  18.413  0.00  0.00    +0.000 C 
ATOM     15  O   UNL     1       5.999   5.537  19.267  0.00  0.00    +0.000 OA
BRANCH  12  16
ATOM     16  C   UNL     1       5.613   4.928  15.607  0.00  0.00    +0.000 C 
BRANCH  16  17
ATOM     17  C   UNL     1       6.060   4.553  14.239  0.00  0.00    +0.000 A 
ATOM     18  C   UNL     1       7.206   4.785  13.508  0.00  0.00    +0.000 A 
ATOM     19  C   UNL     1       7.052   4.071  12.295  0.00  0.00    +0.000 A 
ATOM     20  C   UNL     1       5.823   3.461  12.358  0.00  0.00    +0.000 A 
ATOM     21  O   UNL     1       5.210   3.750  13.532  0.00  0.00    +0.000 OA
ENDBRANCH  16  17
ENDBRANCH  12  16
BRANCH  14  22
ATOM     22  C   UNL     1       7.255   7.103  17.844  0.00  0.00    +0.000 C 
BRANCH  22  23
ATOM     23  O   UNL     1       7.796   7.068  16.528  0.00  0.00    +0.000 OA
ATOM     24  H   UNL     1       8.478   6.373  16.519  0.00  0.00    +0.000 HD
ENDBRANCH  22  23
ENDBRANCH  14  22
ENDBRANCH   9  10
BRANCH   1  25
ATOM     25  N   UNL     1       1.471  10.036  18.167  0.00  0.00    +0.000 N 
ATOM     26  H   UNL     1       2.317  10.607  18.147  0.00  0.00    +0.000 HD
BRANCH  25  27
ATOM     27  C   UNL     1       0.301  10.722  18.712  0.00  0.00    +0.000 C 
BRANCH  27  28
ATOM     28  C   UNL     1      -0.934  10.288  17.919  0.00  0.00    +0.000 C 
BRANCH  28  29
ATOM     29  C   UNL     1      -1.983  11.385  17.815  0.00  0.00    +0.000 C 
BRANCH  29  30
ATOM     30  O   UNL     1      -1.477  12.483  17.071  0.00  0.00    +0.000 OA
ATOM     31  H   UNL     1      -2.234  13.055  16.855  0.00  0.00    +0.000 HD
ENDBRANCH  29  30
ENDBRANCH  28  29
ENDBRANCH  27  28
ENDBRANCH  25  27
ENDBRANCH   1  25
TORSDOF 10
ENDMDL
