MODEL 1
REMARK VINA RESULT:      -7.2      0.000      0.000
REMARK  Name = 
REMARK  8 active torsions:
REMARK  status: ('A' for Active; 'I' for Inactive)
REMARK    1  A    between atoms: C_1  and  C_2
REMARK    2  A    between atoms: C_2  and  O_3
REMARK    3  A    between atoms: O_3  and  C_4
REMARK    4  A    between atoms: C_9  and  O_10
REMARK    5  A    between atoms: O_10  and  C_11
REMARK    6  A    between atoms: C_11  and  C_12
REMARK    7  A    between atoms: C_16  and  C_17
REMARK    8  A    between atoms: C_17  and  O_19
REMARK                            x       y       z     vdW  Elec       q    Type
REMARK                         _______ _______ _______ _____ _____    ______ ____
ROOT
ATOM      1  C   UNL     1       3.607   4.170  17.009  0.00  0.00    +0.000 C 
ENDROOT
BRANCH   1   2
ATOM      2  C   UNL     1       2.970   4.416  18.361  0.00  0.00    +0.000 A 
ATOM      3  C   UNL     1       2.594   5.738  18.660  0.00  0.00    +0.000 A 
ATOM      4  C   UNL     1       2.066   6.069  19.908  0.00  0.00    +0.000 A 
ATOM      5  C   UNL     1       1.918   5.080  20.876  0.00  0.00    +0.000 A 
ATOM      6  C   UNL     1       2.286   3.757  20.598  0.00  0.00    +0.000 A 
ATOM      7  C   UNL     1       2.788   3.419  19.328  0.00  0.00    +0.000 A 
BRANCH   6   8
ATOM      8  C   UNL     1       2.111   2.753  21.679  0.00  0.00    +0.000 C 
ATOM      9  O   UNL     1       1.064   2.598  22.277  0.00  0.00    +0.000 OA
BRANCH   8  10
ATOM     10  O   UNL     1       3.238   2.069  21.979  0.00  0.00    +0.000 OA
ATOM     11  H   UNL     1       4.015   2.622  22.182  0.00  0.00    +0.000 HD
ENDBRANCH   8  10
ENDBRANCH   6   8
ENDBRANCH   1   2
BRANCH   1  12
ATOM     12  O   UNL     1       4.971   3.763  17.077  0.00  0.00    +0.000 OA
BRANCH  12  18
ATOM     13  C   UNL     1       6.493   5.689  16.545  0.00  0.00    +0.000 A 
ATOM     14  C   UNL     1       7.390   6.622  17.087  0.00  0.00    +0.000 A 
ATOM     15  C   UNL     1       7.730   6.591  18.440  0.00  0.00    +0.000 A 
ATOM     16  C   UNL     1       7.157   5.643  19.274  0.00  0.00    +0.000 A 
ATOM     17  C   UNL     1       6.236   4.730  18.757  0.00  0.00    +0.000 A 
ATOM     18  C   UNL     1       5.889   4.740  17.396  0.00  0.00    +0.000 A 
BRANCH  13  19
ATOM     19  O   UNL     1       6.147   5.735  15.218  0.00  0.00    +0.000 OA
BRANCH  19  21
ATOM     20  C   UNL     1       5.958   3.882  13.707  0.00  0.00    +0.000 C 
ATOM     21  C   UNL     1       6.899   4.891  14.342  0.00  0.00    +0.000 C 
ENDBRANCH  19  21
ENDBRANCH  13  19
ENDBRANCH  12  18
ENDBRANCH   1  12
TORSDOF 7
ENDMDL
MODEL 2
REMARK VINA RESULT:      -7.0      2.023      6.148
REMARK  Name = 
REMARK  8 active torsions:
REMARK  status: ('A' for Active; 'I' for Inactive)
REMARK    1  A    between atoms: C_1  and  C_2
REMARK    2  A    between atoms: C_2  and  O_3
REMARK    3  A    between atoms: O_3  and  C_4
REMARK    4  A    between atoms: C_9  and  O_10
REMARK    5  A    between atoms: O_10  and  C_11
REMARK    6  A    between atoms: C_11  and  C_12
REMARK    7  A    between atoms: C_16  and  C_17
REMARK    8  A    between atoms: C_17  and  O_19
REMARK                            x       y       z     vdW  Elec       q    Type
REMARK                         _______ _______ _______ _____ _____    ______ ____
ROOT
ATOM      1  C   UNL     1       3.749   3.438  16.968  0.00  0.00    +0.000 C 
ENDROOT
BRANCH   1   2
ATOM      2  C   UNL     1       4.971   4.222  16.534  0.00  0.00    +0.000 A 
ATOM      3  C   UNL     1       5.529   3.897  15.284  0.00  0.00    +0.000 A 
ATOM      4  C   UNL     1       6.695   4.519  14.836  0.00  0.00    +0.000 A 
ATOM      5  C   UNL     1       7.322   5.465  15.641  0.00  0.00    +0.000 A 
ATOM      6  C   UNL     1       6.782   5.803  16.888  0.00  0.00    +0.000 A 
ATOM      7  C   UNL     1       5.588   5.200  17.324  0.00  0.00    +0.000 A 
BRANCH   6   8
ATOM      8  C   UNL     1       7.507   6.814  17.700  0.00  0.00    +0.000 C 
ATOM      9  O   UNL     1       7.995   6.566  18.786  0.00  0.00    +0.000 OA
BRANCH   8  10
ATOM     10  O   UNL     1       7.523   8.049  17.152  0.00  0.00    +0.000 OA
ATOM     11  H   UNL     1       6.837   8.658  17.484  0.00  0.00    +0.000 HD
ENDBRANCH   8  10
ENDBRANCH   6   8
ENDBRANCH   1   2
BRANCH   1  12
ATOM     12  O   UNL     1       2.686   4.249  17.459  0.00  0.00    +0.000 OA
BRANCH  12  18
ATOM     13  C   UNL     1       2.596   4.952  19.869  0.00  0.00    +0.000 A 
ATOM     14  C   UNL     1       2.138   4.599  21.147  0.00  0.00    +0.000 A 
ATOM     15  C   UNL     1       1.488   3.385  21.369  0.00  0.00    +0.000 A 
ATOM     16  C   UNL     1       1.265   2.518  20.309  0.00  0.00    +0.000 A 
ATOM     17  C   UNL     1       1.684   2.869  19.025  0.00  0.00    +0.000 A 
ATOM     18  C   UNL     1       2.349   4.084  18.785  0.00  0.00    +0.000 A 
BRANCH  13  19
ATOM     19  O   UNL     1       3.218   6.156  19.652  0.00  0.00    +0.000 OA
BRANCH  19  21
ATOM     20  C   UNL     1       2.525   7.813  18.062  0.00  0.00    +0.000 C 
ATOM     21  C   UNL     1       2.357   7.285  19.476  0.00  0.00    +0.000 C 
ENDBRANCH  19  21
ENDBRANCH  13  19
ENDBRANCH  12  18
ENDBRANCH   1  12
TORSDOF 7
ENDMDL
MODEL 3
REMARK VINA RESULT:      -7.0      2.005      6.096
REMARK  Name = 
REMARK  8 active torsions:
REMARK  status: ('A' for Active; 'I' for Inactive)
REMARK    1  A    between atoms: C_1  and  C_2
REMARK    2  A    between atoms: C_2  and  O_3
REMARK    3  A    between atoms: O_3  and  C_4
REMARK    4  A    between atoms: C_9  and  O_10
REMARK    5  A    between atoms: O_10  and  C_11
REMARK    6  A    between atoms: C_11  and  C_12
REMARK    7  A    between atoms: C_16  and  C_17
REMARK    8  A    between atoms: C_17  and  O_19
REMARK                            x       y       z     vdW  Elec       q    Type
REMARK                         _______ _______ _______ _____ _____    ______ ____
ROOT
ATOM      1  C   UNL     1       3.388   6.396  17.980  0.00  0.00    +0.000 C 
ENDROOT
BRANCH   1   2
ATOM      2  C   UNL     1       4.693   5.739  17.578  0.00  0.00    +0.000 A 
ATOM      3  C   UNL     1       5.603   5.441  18.609  0.00  0.00    +0.000 A 
ATOM      4  C   UNL     1       6.857   4.901  18.324  0.00  0.00    +0.000 A 
ATOM      5  C   UNL     1       7.219   4.663  17.002  0.00  0.00    +0.000 A 
ATOM      6  C   UNL     1       6.326   4.952  15.961  0.00  0.00    +0.000 A 
ATOM      7  C   UNL     1       5.050   5.466  16.252  0.00  0.00    +0.000 A 
BRANCH   6   8
ATOM      8  C   UNL     1       6.780   4.683  14.572  0.00  0.00    +0.000 C 
ATOM      9  O   UNL     1       6.341   3.771  13.897  0.00  0.00    +0.000 OA
BRANCH   8  10
ATOM     10  O   UNL     1       7.766   5.504  14.148  0.00  0.00    +0.000 OA
ATOM     11  H   UNL     1       8.357   5.125  13.472  0.00  0.00    +0.000 HD
ENDBRANCH   8  10
ENDBRANCH   6   8
ENDBRANCH   1   2
BRANCH   1  12
ATOM     12  O   UNL     1       2.260   5.529  17.916  0.00  0.00    +0.000 OA
BRANCH  12  18
ATOM     13  C   UNL     1       1.672   3.357  19.034  0.00  0.00    +0.000 A 
ATOM     14  C   UNL     1       1.532   2.708  20.270  0.00  0.00    +0.000 A 
ATOM     15  C   UNL     1       1.705   3.399  21.470  0.00  0.00    +0.000 A 
ATOM     16  C   UNL     1       2.047   4.743  21.448  0.00  0.00    +0.000 A 
ATOM     17  C   UNL     1       2.224   5.395  20.227  0.00  0.00    +0.000 A 
ATOM     18  C   UNL     1       2.045   4.717  19.009  0.00  0.00    +0.000 A 
BRANCH  13  19
ATOM     19  O   UNL     1       1.520   2.669  17.857  0.00  0.00    +0.000 OA
BRANCH  19  21
ATOM     20  C   UNL     1       3.747   1.787  17.972  0.00  0.00    +0.000 C 
ATOM     21  C   UNL     1       2.710   2.460  17.091  0.00  0.00    +0.000 C 
ENDBRANCH  19  21
ENDBRANCH  13  19
ENDBRANCH  12  18
ENDBRANCH   1  12
TORSDOF 7
ENDMDL
MODEL 4
REMARK VINA RESULT:      -6.9      2.241      5.758
REMARK  Name = 
REMARK  8 active torsions:
REMARK  status: ('A' for Active; 'I' for Inactive)
REMARK    1  A    between atoms: C_1  and  C_2
REMARK    2  A    between atoms: C_2  and  O_3
REMARK    3  A    between atoms: O_3  and  C_4
REMARK    4  A    between atoms: C_9  and  O_10
REMARK    5  A    between atoms: O_10  and  C_11
REMARK    6  A    between atoms: C_11  and  C_12
REMARK    7  A    between atoms: C_16  and  C_17
REMARK    8  A    between atoms: C_17  and  O_19
REMARK                            x       y       z     vdW  Elec       q    Type
REMARK                         _______ _______ _______ _____ _____    ______ ____
ROOT
ATOM      1  C   UNL     1       4.194   2.882  17.150  0.00  0.00    +0.000 C 
ENDROOT
BRANCH   1   2
ATOM      2  C   UNL     1       5.180   4.025  17.012  0.00  0.00    +0.000 A 
ATOM      3  C   UNL     1       5.405   4.522  15.716  0.00  0.00    +0.000 A 
ATOM      4  C   UNL     1       6.348   5.525  15.486  0.00  0.00    +0.000 A 
ATOM      5  C   UNL     1       7.085   6.032  16.552  0.00  0.00    +0.000 A 
ATOM      6  C   UNL     1       6.875   5.550  17.851  0.00  0.00    +0.000 A 
ATOM      7  C   UNL     1       5.900   4.563  18.085  0.00  0.00    +0.000 A 
BRANCH   6   8
ATOM      8  C   UNL     1       7.702   6.128  18.941  0.00  0.00    +0.000 C 
ATOM      9  O   UNL     1       8.385   7.125  18.798  0.00  0.00    +0.000 OA
BRANCH   8  10
ATOM     10  O   UNL     1       7.675   5.413  20.088  0.00  0.00    +0.000 OA
ATOM     11  H   UNL     1       7.168   4.582  20.045  0.00  0.00    +0.000 HD
ENDBRANCH   8  10
ENDBRANCH   6   8
ENDBRANCH   1   2
BRANCH   1  12
ATOM     12  O   UNL     1       2.830   3.294  17.163  0.00  0.00    +0.000 OA
BRANCH  12  18
ATOM     13  C   UNL     1       2.238   4.904  18.998  0.00  0.00    +0.000 A 
ATOM     14  C   UNL     1       1.626   5.032  20.254  0.00  0.00    +0.000 A 
ATOM     15  C   UNL     1       1.127   3.918  20.929  0.00  0.00    +0.000 A 
ATOM     16  C   UNL     1       1.211   2.662  20.344  0.00  0.00    +0.000 A 
ATOM     17  C   UNL     1       1.786   2.523  19.080  0.00  0.00    +0.000 A 
ATOM     18  C   UNL     1       2.302   3.633  18.390  0.00  0.00    +0.000 A 
BRANCH  13  19
ATOM     19  O   UNL     1       2.710   6.006  18.330  0.00  0.00    +0.000 OA
BRANCH  19  21
ATOM     20  C   UNL     1       2.208   8.306  17.873  0.00  0.00    +0.000 C 
ATOM     21  C   UNL     1       2.467   7.270  18.953  0.00  0.00    +0.000 C 
ENDBRANCH  19  21
ENDBRANCH  13  19
ENDBRANCH  12  18
ENDBRANCH   1  12
TORSDOF 7
ENDMDL
MODEL 5
REMARK VINA RESULT:      -6.9      1.622      6.366
REMARK  Name = 
REMARK  8 active torsions:
REMARK  status: ('A' for Active; 'I' for Inactive)
REMARK    1  A    between atoms: C_1  and  C_2
REMARK    2  A    between atoms: C_2  and  O_3
REMARK    3  A    between atoms: O_3  and  C_4
REMARK    4  A    between atoms: C_9  and  O_10
REMARK    5  A    between atoms: O_10  and  C_11
REMARK    6  A    between atoms: C_11  and  C_12
REMARK    7  A    between atoms: C_16  and  C_17
REMARK    8  A    between atoms: C_17  and  O_19
REMARK                            x       y       z     vdW  Elec       q    Type
REMARK                         _______ _______ _______ _____ _____    ______ ____
ROOT
ATOM      1  C   UNL     1       3.204   3.096  17.636  0.00  0.00    +0.000 C 
ENDROOT
BRANCH   1   2
ATOM      2  C   UNL     1       4.572   3.654  17.302  0.00  0.00    +0.000 A 
ATOM      3  C   UNL     1       5.367   4.086  18.379  0.00  0.00    +0.000 A 
ATOM      4  C   UNL     1       6.611   4.677  18.161  0.00  0.00    +0.000 A 
ATOM      5  C   UNL     1       7.069   4.854  16.858  0.00  0.00    +0.000 A 
ATOM      6  C   UNL     1       6.293   4.430  15.772  0.00  0.00    +0.000 A 
ATOM      7  C   UNL     1       5.053   3.803  15.996  0.00  0.00    +0.000 A 
BRANCH   6   8
ATOM      8  C   UNL     1       6.836   4.657  14.408  0.00  0.00    +0.000 C 
ATOM      9  O   UNL     1       6.438   4.058  13.427  0.00  0.00    +0.000 OA
BRANCH   8  10
ATOM     10  O   UNL     1       7.855   5.545  14.365  0.00  0.00    +0.000 OA
ATOM     11  H   UNL     1       8.746   5.154  14.431  0.00  0.00    +0.000 HD
ENDBRANCH   8  10
ENDBRANCH   6   8
ENDBRANCH   1   2
BRANCH   1  12
ATOM     12  O   UNL     1       2.144   4.036  17.490  0.00  0.00    +0.000 OA
BRANCH  12  18
ATOM     13  C   UNL     1       1.546   4.868  19.784  0.00  0.00    +0.000 A 
ATOM     14  C   UNL     1       1.554   5.983  20.635  0.00  0.00    +0.000 A 
ATOM     15  C   UNL     1       1.994   7.228  20.186  0.00  0.00    +0.000 A 
ATOM     16  C   UNL     1       2.457   7.368  18.885  0.00  0.00    +0.000 A 
ATOM     17  C   UNL     1       2.487   6.260  18.037  0.00  0.00    +0.000 A 
ATOM     18  C   UNL     1       2.039   5.001  18.470  0.00  0.00    +0.000 A 
BRANCH  13  19
ATOM     19  O   UNL     1       1.130   3.641  20.238  0.00  0.00    +0.000 OA
BRANCH  19  21
ATOM     20  C   UNL     1       2.996   2.569  21.298  0.00  0.00    +0.000 C 
ATOM     21  C   UNL     1       1.646   3.232  21.508  0.00  0.00    +0.000 C 
ENDBRANCH  19  21
ENDBRANCH  13  19
ENDBRANCH  12  18
ENDBRANCH   1  12
TORSDOF 7
ENDMDL
MODEL 6
REMARK VINA RESULT:      -6.8      2.309      6.964
REMARK  Name = 
REMARK  8 active torsions:
REMARK  status: ('A' for Active; 'I' for Inactive)
REMARK    1  A    between atoms: C_1  and  C_2
REMARK    2  A    between atoms: C_2  and  O_3
REMARK    3  A    between atoms: O_3  and  C_4
REMARK    4  A    between atoms: C_9  and  O_10
REMARK    5  A    between atoms: O_10  and  C_11
REMARK    6  A    between atoms: C_11  and  C_12
REMARK    7  A    between atoms: C_16  and  C_17
REMARK    8  A    between atoms: C_17  and  O_19
REMARK                            x       y       z     vdW  Elec       q    Type
REMARK                         _______ _______ _______ _____ _____    ______ ____
ROOT
ATOM      1  C   UNL     1       6.153   4.786  16.185  0.00  0.00    +0.000 C 
ENDROOT
BRANCH   1   2
ATOM      2  C   UNL     1       6.474   4.508  14.731  0.00  0.00    +0.000 A 
ATOM      3  C   UNL     1       7.533   5.237  14.159  0.00  0.00    +0.000 A 
ATOM      4  C   UNL     1       7.853   5.097  12.809  0.00  0.00    +0.000 A 
ATOM      5  C   UNL     1       7.107   4.234  12.011  0.00  0.00    +0.000 A 
ATOM      6  C   UNL     1       6.049   3.499  12.562  0.00  0.00    +0.000 A 
ATOM      7  C   UNL     1       5.750   3.616  13.931  0.00  0.00    +0.000 A 
BRANCH   6   8
ATOM      8  C   UNL     1       5.288   2.604  11.653  0.00  0.00    +0.000 C 
ATOM      9  O   UNL     1       4.202   2.896  11.191  0.00  0.00    +0.000 OA
BRANCH   8  10
ATOM     10  O   UNL     1       5.883   1.410  11.435  0.00  0.00    +0.000 OA
ATOM     11  H   UNL     1       5.505   0.662  11.933  0.00  0.00    +0.000 HD
ENDBRANCH   8  10
ENDBRANCH   6   8
ENDBRANCH   1   2
BRANCH   1  12
ATOM     12  O   UNL     1       4.903   4.255  16.613  0.00  0.00    +0.000 OA
BRANCH  12  18
ATOM     13  C   UNL     1       3.250   4.734  18.443  0.00  0.00    +0.000 A 
ATOM     14  C   UNL     1       2.555   5.747  19.121  0.00  0.00    +0.000 A 
ATOM     15  C   UNL     1       2.670   7.082  18.733  0.00  0.00    +0.000 A 
ATOM     16  C   UNL     1       3.501   7.424  17.676  0.00  0.00    +0.000 A 
ATOM     17  C   UNL     1       4.226   6.432  17.014  0.00  0.00    +0.000 A 
ATOM     18  C   UNL     1       4.116   5.082  17.385  0.00  0.00    +0.000 A 
BRANCH  13  19
ATOM     19  O   UNL     1       3.149   3.425  18.842  0.00  0.00    +0.000 OA
BRANCH  19  21
ATOM     20  C   UNL     1       0.990   2.383  18.763  0.00  0.00    +0.000 C 
ATOM     21  C   UNL     1       2.311   2.587  18.042  0.00  0.00    +0.000 C 
ENDBRANCH  19  21
ENDBRANCH  13  19
ENDBRANCH  12  18
ENDBRANCH   1  12
TORSDOF 7
ENDMDL
MODEL 7
REMARK VINA RESULT:      -6.8      2.274      6.953
REMARK  Name = 
REMARK  8 active torsions:
REMARK  status: ('A' for Active; 'I' for Inactive)
REMARK    1  A    between atoms: C_1  and  C_2
REMARK    2  A    between atoms: C_2  and  O_3
REMARK    3  A    between atoms: O_3  and  C_4
REMARK    4  A    between atoms: C_9  and  O_10
REMARK    5  A    between atoms: O_10  and  C_11
REMARK    6  A    between atoms: C_11  and  C_12
REMARK    7  A    between atoms: C_16  and  C_17
REMARK    8  A    between atoms: C_17  and  O_19
REMARK                            x       y       z     vdW  Elec       q    Type
REMARK                         _______ _______ _______ _____ _____    ______ ____
ROOT
ATOM      1  C   UNL     1       5.910   4.703  16.032  0.00  0.00    +0.000 C 
ENDROOT
BRANCH   1   2
ATOM      2  C   UNL     1       6.300   4.424  14.595  0.00  0.00    +0.000 A 
ATOM      3  C   UNL     1       7.354   5.185  14.058  0.00  0.00    +0.000 A 
ATOM      4  C   UNL     1       7.734   5.045  12.723  0.00  0.00    +0.000 A 
ATOM      5  C   UNL     1       7.053   4.148  11.906  0.00  0.00    +0.000 A 
ATOM      6  C   UNL     1       6.001   3.380  12.421  0.00  0.00    +0.000 A 
ATOM      7  C   UNL     1       5.641   3.498  13.776  0.00  0.00    +0.000 A 
BRANCH   6   8
ATOM      8  C   UNL     1       5.310   2.448  11.493  0.00  0.00    +0.000 C 
ATOM      9  O   UNL     1       4.228   2.691  10.993  0.00  0.00    +0.000 OA
BRANCH   8  10
ATOM     10  O   UNL     1       5.964   1.281  11.300  0.00  0.00    +0.000 OA
ATOM     11  H   UNL     1       5.391   0.499  11.190  0.00  0.00    +0.000 HD
ENDBRANCH   8  10
ENDBRANCH   6   8
ENDBRANCH   1   2
BRANCH   1  12
ATOM     12  O   UNL     1       5.247   3.617  16.673  0.00  0.00    +0.000 OA
BRANCH  12  18
ATOM     13  C   UNL     1       4.512   4.303  18.975  0.00  0.00    +0.000 A 
ATOM     14  C   UNL     1       3.406   4.631  19.773  0.00  0.00    +0.000 A 
ATOM     15  C   UNL     1       2.108   4.564  19.266  0.00  0.00    +0.000 A 
ATOM     16  C   UNL     1       1.901   4.191  17.946  0.00  0.00    +0.000 A 
ATOM     17  C   UNL     1       2.994   3.894  17.130  0.00  0.00    +0.000 A 
ATOM     18  C   UNL     1       4.307   3.948  17.626  0.00  0.00    +0.000 A 
BRANCH  13  19
ATOM     19  O   UNL     1       5.788   4.389  19.473  0.00  0.00    +0.000 OA
BRANCH  19  21
ATOM     20  C   UNL     1       7.870   5.501  19.043  0.00  0.00    +0.000 C 
ATOM     21  C   UNL     1       6.405   5.678  19.403  0.00  0.00    +0.000 C 
ENDBRANCH  19  21
ENDBRANCH  13  19
ENDBRANCH  12  18
ENDBRANCH   1  12
TORSDOF 7
ENDMDL
MODEL 8
REMARK VINA RESULT:      -6.7      2.064      6.104
REMARK  Name = 
REMARK  8 active torsions:
REMARK  status: ('A' for Active; 'I' for Inactive)
REMARK    1  A    between atoms: C_1  and  C_2
REMARK    2  A    between atoms: C_2  and  O_3
REMARK    3  A    between atoms: O_3  and  C_4
REMARK    4  A    between atoms: C_9  and  O_10
REMARK    5  A    between atoms: O_10  and  C_11
REMARK    6  A    between atoms: C_11  and  C_12
REMARK    7  A    between atoms: C_16  and  C_17
REMARK    8  A    between atoms: C_17  and  O_19
REMARK                            x       y       z     vdW  Elec       q    Type
REMARK                         _______ _______ _______ _____ _____    ______ ____
ROOT
ATOM      1  C   UNL     1       3.418   3.672  16.886  0.00  0.00    +0.000 C 
ENDROOT
BRANCH   1   2
ATOM      2  C   UNL     1       4.774   4.313  16.678  0.00  0.00    +0.000 A 
ATOM      3  C   UNL     1       5.335   4.220  15.391  0.00  0.00    +0.000 A 
ATOM      4  C   UNL     1       6.610   4.720  15.126  0.00  0.00    +0.000 A 
ATOM      5  C   UNL     1       7.344   5.308  16.151  0.00  0.00    +0.000 A 
ATOM      6  C   UNL     1       6.804   5.411  17.440  0.00  0.00    +0.000 A 
ATOM      7  C   UNL     1       5.505   4.937  17.697  0.00  0.00    +0.000 A 
BRANCH   6   8
ATOM      8  C   UNL     1       7.645   6.041  18.490  0.00  0.00    +0.000 C 
ATOM      9  O   UNL     1       8.035   7.192  18.425  0.00  0.00    +0.000 OA
BRANCH   8  10
ATOM     10  O   UNL     1       7.988   5.204  19.493  0.00  0.00    +0.000 OA
ATOM     11  H   UNL     1       8.366   5.636  20.282  0.00  0.00    +0.000 HD
ENDBRANCH   8  10
ENDBRANCH   6   8
ENDBRANCH   1   2
BRANCH   1  12
ATOM     12  O   UNL     1       2.479   4.509  17.555  0.00  0.00    +0.000 OA
BRANCH  12  18
ATOM     13  C   UNL     1       2.503   4.944  20.029  0.00  0.00    +0.000 A 
ATOM     14  C   UNL     1       2.107   4.451  21.282  0.00  0.00    +0.000 A 
ATOM     15  C   UNL     1       1.472   3.215  21.401  0.00  0.00    +0.000 A 
ATOM     16  C   UNL     1       1.201   2.467  20.264  0.00  0.00    +0.000 A 
ATOM     17  C   UNL     1       1.557   2.959  19.007  0.00  0.00    +0.000 A 
ATOM     18  C   UNL     1       2.206   4.198  18.870  0.00  0.00    +0.000 A 
BRANCH  13  19
ATOM     19  O   UNL     1       3.110   6.170  19.917  0.00  0.00    +0.000 OA
BRANCH  19  21
ATOM     20  C   UNL     1       1.614   7.885  20.672  0.00  0.00    +0.000 C 
ATOM     21  C   UNL     1       2.280   7.244  19.467  0.00  0.00    +0.000 C 
ENDBRANCH  19  21
ENDBRANCH  13  19
ENDBRANCH  12  18
ENDBRANCH   1  12
TORSDOF 7
ENDMDL
MODEL 9
REMARK VINA RESULT:      -6.7      2.246      5.594
REMARK  Name = 
REMARK  8 active torsions:
REMARK  status: ('A' for Active; 'I' for Inactive)
REMARK    1  A    between atoms: C_1  and  C_2
REMARK    2  A    between atoms: C_2  and  O_3
REMARK    3  A    between atoms: O_3  and  C_4
REMARK    4  A    between atoms: C_9  and  O_10
REMARK    5  A    between atoms: O_10  and  C_11
REMARK    6  A    between atoms: C_11  and  C_12
REMARK    7  A    between atoms: C_16  and  C_17
REMARK    8  A    between atoms: C_17  and  O_19
REMARK                            x       y       z     vdW  Elec       q    Type
REMARK                         _______ _______ _______ _____ _____    ______ ____
ROOT
ATOM      1  C   UNL     1       2.938   6.647  19.058  0.00  0.00    +0.000 C 
ENDROOT
BRANCH   1   2
ATOM      2  C   UNL     1       4.181   6.439  18.216  0.00  0.00    +0.000 A 
ATOM      3  C   UNL     1       4.115   6.839  16.869  0.00  0.00    +0.000 A 
ATOM      4  C   UNL     1       5.187   6.621  16.003  0.00  0.00    +0.000 A 
ATOM      5  C   UNL     1       6.333   5.988  16.474  0.00  0.00    +0.000 A 
ATOM      6  C   UNL     1       6.418   5.582  17.812  0.00  0.00    +0.000 A 
ATOM      7  C   UNL     1       5.350   5.833  18.692  0.00  0.00    +0.000 A 
BRANCH   6   8
ATOM      8  C   UNL     1       7.666   4.903  18.247  0.00  0.00    +0.000 C 
ATOM      9  O   UNL     1       8.204   5.126  19.315  0.00  0.00    +0.000 OA
BRANCH   8  10
ATOM     10  O   UNL     1       8.183   4.062  17.324  0.00  0.00    +0.000 OA
ATOM     11  H   UNL     1       9.096   3.769  17.497  0.00  0.00    +0.000 HD
ENDBRANCH   8  10
ENDBRANCH   6   8
ENDBRANCH   1   2
BRANCH   1  12
ATOM     12  O   UNL     1       1.894   5.716  18.789  0.00  0.00    +0.000 OA
BRANCH  12  18
ATOM     13  C   UNL     1       1.739   3.231  19.118  0.00  0.00    +0.000 A 
ATOM     14  C   UNL     1       1.787   2.196  20.065  0.00  0.00    +0.000 A 
ATOM     15  C   UNL     1       1.927   2.472  21.425  0.00  0.00    +0.000 A 
ATOM     16  C   UNL     1       2.046   3.786  21.854  0.00  0.00    +0.000 A 
ATOM     17  C   UNL     1       2.034   4.825  20.921  0.00  0.00    +0.000 A 
ATOM     18  C   UNL     1       1.886   4.566  19.548  0.00  0.00    +0.000 A 
BRANCH  13  19
ATOM     19  O   UNL     1       1.622   2.952  17.779  0.00  0.00    +0.000 OA
BRANCH  19  21
ATOM     20  C   UNL     1       3.817   3.101  16.824  0.00  0.00    +0.000 C 
ATOM     21  C   UNL     1       2.675   2.175  17.203  0.00  0.00    +0.000 C 
ENDBRANCH  19  21
ENDBRANCH  13  19
ENDBRANCH  12  18
ENDBRANCH   1  12
TORSDOF 7
ENDMDL
