MODEL 1
REMARK VINA RESULT:      -6.5      0.000      0.000
REMARK  Name = 
REMARK  12 active torsions:
REMARK  status: ('A' for Active; 'I' for Inactive)
REMARK    1  A    between atoms: C_2  and  C_3
REMARK    2  A    between atoms: C_3  and  N_4
REMARK    3  A    between atoms: C_5  and  C_7
REMARK    4  A    between atoms: C_7  and  C_8
REMARK    5  A    between atoms: C_8  and  C_9
REMARK    6  A    between atoms: C_9  and  C_10
REMARK    7  A    between atoms: C_10  and  C_11
REMARK    8  A    between atoms: C_11  and  N_12
REMARK    9  A    between atoms: N_12  and  S_13
REMARK   10  A    between atoms: S_13  and  C_16
REMARK   11  A    between atoms: C_19  and  O_20
REMARK   12  A    between atoms: O_20  and  C_21
REMARK                            x       y       z     vdW  Elec       q    Type
REMARK                         _______ _______ _______ _____ _____    ______ ____
ROOT
ATOM      1  N   UNL     1       2.538   4.713  18.324  0.00  0.00    +0.000 NA
ATOM      2  H   UNL     1       1.551   4.490  18.196  0.00  0.00    +0.000 HD
ENDROOT
BRANCH   1   3
ATOM      3  S   UNL     1       2.753   5.562  19.776  0.00  0.00    +0.000 S 
ATOM      4  O   UNL     1       1.846   4.966  20.730  0.00  0.00    +0.000 OA
ATOM      5  O   UNL     1       4.174   5.647  20.030  0.00  0.00    +0.000 OA
BRANCH   3   6
ATOM      6  C   UNL     1       2.141   7.185  19.402  0.00  0.00    +0.000 A 
ATOM      7  C   UNL     1       1.597   7.963  20.424  0.00  0.00    +0.000 A 
ATOM      8  C   UNL     1       1.118   9.243  20.132  0.00  0.00    +0.000 A 
ATOM      9  C   UNL     1       1.208   9.760  18.836  0.00  0.00    +0.000 A 
ATOM     10  C   UNL     1       1.768   8.984  17.820  0.00  0.00    +0.000 A 
ATOM     11  C   UNL     1       2.241   7.695  18.102  0.00  0.00    +0.000 A 
BRANCH   9  12
ATOM     12  O   UNL     1       0.673  11.008  18.675  0.00  0.00    +0.000 OA
ATOM     13  C   UNL     1       1.353  12.072  19.331  0.00  0.00    +0.000 C 
ENDBRANCH   9  12
ENDBRANCH   3   6
ENDBRANCH   1   3
BRANCH   1  14
ATOM     14  C   UNL     1       3.511   3.649  18.039  0.00  0.00    +0.000 C 
BRANCH  14  15
ATOM     15  C   UNL     1       4.242   3.910  16.721  0.00  0.00    +0.000 C 
BRANCH  15  16
ATOM     16  C   UNL     1       4.633   5.391  16.621  0.00  0.00    +0.000 C 
BRANCH  16  17
ATOM     17  C   UNL     1       6.142   5.592  16.725  0.00  0.00    +0.000 C 
BRANCH  17  18
ATOM     18  C   UNL     1       6.939   4.441  16.096  0.00  0.00    +0.000 C 
BRANCH  18  20
ATOM     19  N   UNL     1       6.406   3.713  13.831  0.00  0.00    +0.000 N 
ATOM     20  C   UNL     1       7.066   4.644  14.599  0.00  0.00    +0.000 C 
ATOM     21  O   UNL     1       7.713   5.570  14.109  0.00  0.00    +0.000 OA
ATOM     22  H   UNL     1       5.960   2.918  14.268  0.00  0.00    +0.000 HD
BRANCH  19  23
ATOM     23  C   UNL     1       6.497   3.744  12.391  0.00  0.00    +0.000 C 
BRANCH  23  25
ATOM     24  C   UNL     1       5.897   1.543  11.359  0.00  0.00    +0.000 C 
ATOM     25  C   UNL     1       5.537   2.744  11.831  0.00  0.00    +0.000 C 
ENDBRANCH  23  25
ENDBRANCH  19  23
ENDBRANCH  18  20
ENDBRANCH  17  18
ENDBRANCH  16  17
ENDBRANCH  15  16
ENDBRANCH  14  15
ENDBRANCH   1  14
TORSDOF 11
ENDMDL
MODEL 2
REMARK VINA RESULT:      -6.4      2.986      4.075
REMARK  Name = 
REMARK  12 active torsions:
REMARK  status: ('A' for Active; 'I' for Inactive)
REMARK    1  A    between atoms: C_2  and  C_3
REMARK    2  A    between atoms: C_3  and  N_4
REMARK    3  A    between atoms: C_5  and  C_7
REMARK    4  A    between atoms: C_7  and  C_8
REMARK    5  A    between atoms: C_8  and  C_9
REMARK    6  A    between atoms: C_9  and  C_10
REMARK    7  A    between atoms: C_10  and  C_11
REMARK    8  A    between atoms: C_11  and  N_12
REMARK    9  A    between atoms: N_12  and  S_13
REMARK   10  A    between atoms: S_13  and  C_16
REMARK   11  A    between atoms: C_19  and  O_20
REMARK   12  A    between atoms: O_20  and  C_21
REMARK                            x       y       z     vdW  Elec       q    Type
REMARK                         _______ _______ _______ _____ _____    ______ ____
ROOT
ATOM      1  N   UNL     1       2.183   5.520  20.709  0.00  0.00    +0.000 NA
ATOM      2  H   UNL     1       2.980   5.354  21.324  0.00  0.00    +0.000 HD
ENDROOT
BRANCH   1   3
ATOM      3  S   UNL     1       2.719   6.149  19.228  0.00  0.00    +0.000 S 
ATOM      4  O   UNL     1       4.155   6.271  19.338  0.00  0.00    +0.000 OA
ATOM      5  O   UNL     1       2.102   5.379  18.172  0.00  0.00    +0.000 OA
BRANCH   3   6
ATOM      6  C   UNL     1       2.046   7.791  19.207  0.00  0.00    +0.000 A 
ATOM      7  C   UNL     1       1.441   8.297  20.358  0.00  0.00    +0.000 A 
ATOM      8  C   UNL     1       0.915   9.591  20.343  0.00  0.00    +0.000 A 
ATOM      9  C   UNL     1       1.017  10.391  19.202  0.00  0.00    +0.000 A 
ATOM     10  C   UNL     1       1.638   9.886  18.058  0.00  0.00    +0.000 A 
ATOM     11  C   UNL     1       2.159   8.585  18.060  0.00  0.00    +0.000 A 
BRANCH   9  12
ATOM     12  O   UNL     1       0.432  11.623  19.306  0.00  0.00    +0.000 OA
ATOM     13  C   UNL     1      -0.842  11.766  18.688  0.00  0.00    +0.000 C 
ENDBRANCH   9  12
ENDBRANCH   3   6
ENDBRANCH   1   3
BRANCH   1  14
ATOM     14  C   UNL     1       1.156   4.471  20.639  0.00  0.00    +0.000 C 
BRANCH  14  15
ATOM     15  C   UNL     1       1.783   3.079  20.737  0.00  0.00    +0.000 C 
BRANCH  15  16
ATOM     16  C   UNL     1       1.401   2.244  19.507  0.00  0.00    +0.000 C 
BRANCH  16  17
ATOM     17  C   UNL     1       2.628   1.764  18.737  0.00  0.00    +0.000 C 
BRANCH  17  18
ATOM     18  C   UNL     1       3.932   2.394  19.246  0.00  0.00    +0.000 C 
BRANCH  18  20
ATOM     19  N   UNL     1       5.772   3.808  18.501  0.00  0.00    +0.000 N 
ATOM     20  C   UNL     1       4.619   3.157  18.131  0.00  0.00    +0.000 C 
ATOM     21  O   UNL     1       4.177   3.192  16.982  0.00  0.00    +0.000 OA
ATOM     22  H   UNL     1       6.055   3.829  19.472  0.00  0.00    +0.000 HD
BRANCH  19  23
ATOM     23  C   UNL     1       6.493   4.628  17.558  0.00  0.00    +0.000 C 
BRANCH  23  25
ATOM     24  C   UNL     1       7.895   6.248  18.855  0.00  0.00    +0.000 C 
ATOM     25  C   UNL     1       7.764   5.087  18.199  0.00  0.00    +0.000 C 
ENDBRANCH  23  25
ENDBRANCH  19  23
ENDBRANCH  18  20
ENDBRANCH  17  18
ENDBRANCH  16  17
ENDBRANCH  15  16
ENDBRANCH  14  15
ENDBRANCH   1  14
TORSDOF 11
ENDMDL
MODEL 3
REMARK VINA RESULT:      -6.4      2.203      3.504
REMARK  Name = 
REMARK  12 active torsions:
REMARK  status: ('A' for Active; 'I' for Inactive)
REMARK    1  A    between atoms: C_2  and  C_3
REMARK    2  A    between atoms: C_3  and  N_4
REMARK    3  A    between atoms: C_5  and  C_7
REMARK    4  A    between atoms: C_7  and  C_8
REMARK    5  A    between atoms: C_8  and  C_9
REMARK    6  A    between atoms: C_9  and  C_10
REMARK    7  A    between atoms: C_10  and  C_11
REMARK    8  A    between atoms: C_11  and  N_12
REMARK    9  A    between atoms: N_12  and  S_13
REMARK   10  A    between atoms: S_13  and  C_16
REMARK   11  A    between atoms: C_19  and  O_20
REMARK   12  A    between atoms: O_20  and  C_21
REMARK                            x       y       z     vdW  Elec       q    Type
REMARK                         _______ _______ _______ _____ _____    ______ ____
ROOT
ATOM      1  N   UNL     1       2.919   5.631  20.218  0.00  0.00    +0.000 NA
ATOM      2  H   UNL     1       3.843   5.218  20.347  0.00  0.00    +0.000 HD
ENDROOT
BRANCH   1   3
ATOM      3  S   UNL     1       2.806   6.316  18.671  0.00  0.00    +0.000 S 
ATOM      4  O   UNL     1       4.163   6.567  18.240  0.00  0.00    +0.000 OA
ATOM      5  O   UNL     1       1.902   5.499  17.892  0.00  0.00    +0.000 OA
BRANCH   3   6
ATOM      6  C   UNL     1       2.042   7.890  18.969  0.00  0.00    +0.000 A 
ATOM      7  C   UNL     1       1.587   8.197  20.251  0.00  0.00    +0.000 A 
ATOM      8  C   UNL     1       0.990   9.438  20.487  0.00  0.00    +0.000 A 
ATOM      9  C   UNL     1       0.873  10.381  19.462  0.00  0.00    +0.000 A 
ATOM     10  C   UNL     1       1.344  10.075  18.184  0.00  0.00    +0.000 A 
ATOM     11  C   UNL     1       1.936   8.829  17.936  0.00  0.00    +0.000 A 
BRANCH   9  12
ATOM     12  O   UNL     1       0.238  11.541  19.814  0.00  0.00    +0.000 OA
ATOM     13  C   UNL     1      -0.898  11.896  19.035  0.00  0.00    +0.000 C 
ENDBRANCH   9  12
ENDBRANCH   3   6
ENDBRANCH   1   3
BRANCH   1  14
ATOM     14  C   UNL     1       1.762   4.848  20.672  0.00  0.00    +0.000 C 
BRANCH  14  15
ATOM     15  C   UNL     1       2.182   3.440  21.096  0.00  0.00    +0.000 C 
BRANCH  15  16
ATOM     16  C   UNL     1       1.845   2.435  19.985  0.00  0.00    +0.000 C 
BRANCH  16  17
ATOM     17  C   UNL     1       3.101   1.836  19.356  0.00  0.00    +0.000 C 
BRANCH  17  18
ATOM     18  C   UNL     1       3.475   2.506  18.027  0.00  0.00    +0.000 C 
BRANCH  18  20
ATOM     19  N   UNL     1       5.312   3.738  17.003  0.00  0.00    +0.000 N 
ATOM     20  C   UNL     1       4.750   3.312  18.183  0.00  0.00    +0.000 C 
ATOM     21  O   UNL     1       5.245   3.562  19.283  0.00  0.00    +0.000 OA
ATOM     22  H   UNL     1       4.926   3.439  16.118  0.00  0.00    +0.000 HD
BRANCH  19  23
ATOM     23  C   UNL     1       6.564   4.457  16.998  0.00  0.00    +0.000 C 
BRANCH  23  25
ATOM     24  C   UNL     1       6.453   4.220  14.508  0.00  0.00    +0.000 C 
ATOM     25  C   UNL     1       6.862   4.885  15.596  0.00  0.00    +0.000 C 
ENDBRANCH  23  25
ENDBRANCH  19  23
ENDBRANCH  18  20
ENDBRANCH  17  18
ENDBRANCH  16  17
ENDBRANCH  15  16
ENDBRANCH  14  15
ENDBRANCH   1  14
TORSDOF 11
ENDMDL
MODEL 4
REMARK VINA RESULT:      -6.2      5.595      8.287
REMARK  Name = 
REMARK  12 active torsions:
REMARK  status: ('A' for Active; 'I' for Inactive)
REMARK    1  A    between atoms: C_2  and  C_3
REMARK    2  A    between atoms: C_3  and  N_4
REMARK    3  A    between atoms: C_5  and  C_7
REMARK    4  A    between atoms: C_7  and  C_8
REMARK    5  A    between atoms: C_8  and  C_9
REMARK    6  A    between atoms: C_9  and  C_10
REMARK    7  A    between atoms: C_10  and  C_11
REMARK    8  A    between atoms: C_11  and  N_12
REMARK    9  A    between atoms: N_12  and  S_13
REMARK   10  A    between atoms: S_13  and  C_16
REMARK   11  A    between atoms: C_19  and  O_20
REMARK   12  A    between atoms: O_20  and  C_21
REMARK                            x       y       z     vdW  Elec       q    Type
REMARK                         _______ _______ _______ _____ _____    ______ ____
ROOT
ATOM      1  N   UNL     1       7.443   6.584  17.477  0.00  0.00    +0.000 NA
ATOM      2  H   UNL     1       7.689   6.621  16.488  0.00  0.00    +0.000 HD
ENDROOT
BRANCH   1   3
ATOM      3  S   UNL     1       7.405   4.972  18.002  0.00  0.00    +0.000 S 
ATOM      4  O   UNL     1       7.887   4.176  16.896  0.00  0.00    +0.000 OA
ATOM      5  O   UNL     1       8.030   4.918  19.304  0.00  0.00    +0.000 OA
BRANCH   3   6
ATOM      6  C   UNL     1       5.672   4.636  18.185  0.00  0.00    +0.000 A 
ATOM      7  C   UNL     1       5.247   3.762  19.186  0.00  0.00    +0.000 A 
ATOM      8  C   UNL     1       3.883   3.500  19.333  0.00  0.00    +0.000 A 
ATOM      9  C   UNL     1       2.942   4.127  18.511  0.00  0.00    +0.000 A 
ATOM     10  C   UNL     1       3.372   5.012  17.521  0.00  0.00    +0.000 A 
ATOM     11  C   UNL     1       4.739   5.273  17.359  0.00  0.00    +0.000 A 
BRANCH   9  12
ATOM     12  O   UNL     1       1.644   3.758  18.734  0.00  0.00    +0.000 OA
ATOM     13  C   UNL     1       1.337   2.385  18.526  0.00  0.00    +0.000 C 
ENDBRANCH   9  12
ENDBRANCH   3   6
ENDBRANCH   1   3
BRANCH   1  14
ATOM     14  C   UNL     1       8.101   7.547  18.371  0.00  0.00    +0.000 C 
BRANCH  14  15
ATOM     15  C   UNL     1       8.076   8.956  17.777  0.00  0.00    +0.000 C 
BRANCH  15  16
ATOM     16  C   UNL     1       9.069   9.858  18.524  0.00  0.00    +0.000 C 
BRANCH  16  17
ATOM     17  C   UNL     1       8.998  11.306  18.046  0.00  0.00    +0.000 C 
BRANCH  17  18
ATOM     18  C   UNL     1      10.380  11.896  17.735  0.00  0.00    +0.000 C 
BRANCH  18  20
ATOM     19  N   UNL     1       9.073  13.944  17.933  0.00  0.00    +0.000 N 
ATOM     20  C   UNL     1      10.332  13.410  17.790  0.00  0.00    +0.000 C 
ATOM     21  O   UNL     1      11.344  14.109  17.709  0.00  0.00    +0.000 OA
ATOM     22  H   UNL     1       8.260  13.343  17.907  0.00  0.00    +0.000 HD
BRANCH  19  23
ATOM     23  C   UNL     1       8.871  15.373  17.931  0.00  0.00    +0.000 C 
BRANCH  23  25
ATOM     24  C   UNL     1       6.461  14.706  17.791  0.00  0.00    +0.000 C 
ATOM     25  C   UNL     1       7.413  15.648  17.741  0.00  0.00    +0.000 C 
ENDBRANCH  23  25
ENDBRANCH  19  23
ENDBRANCH  18  20
ENDBRANCH  17  18
ENDBRANCH  16  17
ENDBRANCH  15  16
ENDBRANCH  14  15
ENDBRANCH   1  14
TORSDOF 11
ENDMDL
MODEL 5
REMARK VINA RESULT:      -6.2      1.939      2.271
REMARK  Name = 
REMARK  12 active torsions:
REMARK  status: ('A' for Active; 'I' for Inactive)
REMARK    1  A    between atoms: C_2  and  C_3
REMARK    2  A    between atoms: C_3  and  N_4
REMARK    3  A    between atoms: C_5  and  C_7
REMARK    4  A    between atoms: C_7  and  C_8
REMARK    5  A    between atoms: C_8  and  C_9
REMARK    6  A    between atoms: C_9  and  C_10
REMARK    7  A    between atoms: C_10  and  C_11
REMARK    8  A    between atoms: C_11  and  N_12
REMARK    9  A    between atoms: N_12  and  S_13
REMARK   10  A    between atoms: S_13  and  C_16
REMARK   11  A    between atoms: C_19  and  O_20
REMARK   12  A    between atoms: O_20  and  C_21
REMARK                            x       y       z     vdW  Elec       q    Type
REMARK                         _______ _______ _______ _____ _____    ______ ____
ROOT
ATOM      1  N   UNL     1       3.678   2.868  18.475  0.00  0.00    +0.000 NA
ATOM      2  H   UNL     1       3.819   1.941  18.073  0.00  0.00    +0.000 HD
ENDROOT
BRANCH   1   3
ATOM      3  S   UNL     1       2.025   3.130  18.751  0.00  0.00    +0.000 S 
ATOM      4  O   UNL     1       1.372   2.967  17.472  0.00  0.00    +0.000 OA
ATOM      5  O   UNL     1       1.641   2.348  19.904  0.00  0.00    +0.000 OA
BRANCH   3   6
ATOM      6  C   UNL     1       1.943   4.852  19.174  0.00  0.00    +0.000 A 
ATOM      7  C   UNL     1       1.616   5.220  20.479  0.00  0.00    +0.000 A 
ATOM      8  C   UNL     1       1.556   6.575  20.814  0.00  0.00    +0.000 A 
ATOM      9  C   UNL     1       1.849   7.559  19.866  0.00  0.00    +0.000 A 
ATOM     10  C   UNL     1       2.191   7.185  18.565  0.00  0.00    +0.000 A 
ATOM     11  C   UNL     1       2.244   5.828  18.217  0.00  0.00    +0.000 A 
BRANCH   9  12
ATOM     12  O   UNL     1       1.719   8.846  20.310  0.00  0.00    +0.000 OA
ATOM     13  C   UNL     1       1.178   9.007  21.616  0.00  0.00    +0.000 C 
ENDBRANCH   9  12
ENDBRANCH   3   6
ENDBRANCH   1   3
BRANCH   1  14
ATOM     14  C   UNL     1       4.593   3.283  19.547  0.00  0.00    +0.000 C 
BRANCH  14  15
ATOM     15  C   UNL     1       5.855   3.931  18.974  0.00  0.00    +0.000 C 
BRANCH  15  16
ATOM     16  C   UNL     1       5.530   5.333  18.442  0.00  0.00    +0.000 C 
BRANCH  16  17
ATOM     17  C   UNL     1       6.194   5.602  17.094  0.00  0.00    +0.000 C 
BRANCH  17  18
ATOM     18  C   UNL     1       6.597   4.313  16.364  0.00  0.00    +0.000 C 
BRANCH  18  20
ATOM     19  N   UNL     1       6.378   3.651  14.028  0.00  0.00    +0.000 N 
ATOM     20  C   UNL     1       6.863   4.598  14.899  0.00  0.00    +0.000 C 
ATOM     21  O   UNL     1       7.471   5.599  14.519  0.00  0.00    +0.000 OA
ATOM     22  H   UNL     1       5.962   2.799  14.383  0.00  0.00    +0.000 HD
BRANCH  19  23
ATOM     23  C   UNL     1       6.618   3.758  12.609  0.00  0.00    +0.000 C 
BRANCH  23  25
ATOM     24  C   UNL     1       5.580   1.857  11.353  0.00  0.00    +0.000 C 
ATOM     25  C   UNL     1       5.497   3.085  11.884  0.00  0.00    +0.000 C 
ENDBRANCH  23  25
ENDBRANCH  19  23
ENDBRANCH  18  20
ENDBRANCH  17  18
ENDBRANCH  16  17
ENDBRANCH  15  16
ENDBRANCH  14  15
ENDBRANCH   1  14
TORSDOF 11
ENDMDL
MODEL 6
REMARK VINA RESULT:      -6.2      2.542      3.177
REMARK  Name = 
REMARK  12 active torsions:
REMARK  status: ('A' for Active; 'I' for Inactive)
REMARK    1  A    between atoms: C_2  and  C_3
REMARK    2  A    between atoms: C_3  and  N_4
REMARK    3  A    between atoms: C_5  and  C_7
REMARK    4  A    between atoms: C_7  and  C_8
REMARK    5  A    between atoms: C_8  and  C_9
REMARK    6  A    between atoms: C_9  and  C_10
REMARK    7  A    between atoms: C_10  and  C_11
REMARK    8  A    between atoms: C_11  and  N_12
REMARK    9  A    between atoms: N_12  and  S_13
REMARK   10  A    between atoms: S_13  and  C_16
REMARK   11  A    between atoms: C_19  and  O_20
REMARK   12  A    between atoms: O_20  and  C_21
REMARK                            x       y       z     vdW  Elec       q    Type
REMARK                         _______ _______ _______ _____ _____    ______ ____
ROOT
ATOM      1  N   UNL     1       3.198   2.352  19.152  0.00  0.00    +0.000 NA
ATOM      2  H   UNL     1       2.982   2.236  20.143  0.00  0.00    +0.000 HD
ENDROOT
BRANCH   1   3
ATOM      3  S   UNL     1       1.884   3.072  18.357  0.00  0.00    +0.000 S 
ATOM      4  O   UNL     1       2.243   3.133  16.958  0.00  0.00    +0.000 OA
ATOM      5  O   UNL     1       0.681   2.406  18.803  0.00  0.00    +0.000 OA
BRANCH   3   6
ATOM      6  C   UNL     1       1.883   4.734  18.979  0.00  0.00    +0.000 A 
ATOM      7  C   UNL     1       1.573   4.962  20.320  0.00  0.00    +0.000 A 
ATOM      8  C   UNL     1       1.576   6.270  20.812  0.00  0.00    +0.000 A 
ATOM      9  C   UNL     1       1.915   7.343  19.983  0.00  0.00    +0.000 A 
ATOM     10  C   UNL     1       2.239   7.108  18.646  0.00  0.00    +0.000 A 
ATOM     11  C   UNL     1       2.229   5.801  18.142  0.00  0.00    +0.000 A 
BRANCH   9  12
ATOM     12  O   UNL     1       1.846   8.574  20.576  0.00  0.00    +0.000 OA
ATOM     13  C   UNL     1       0.618   8.891  21.221  0.00  0.00    +0.000 C 
ENDBRANCH   9  12
ENDBRANCH   3   6
ENDBRANCH   1   3
BRANCH   1  14
ATOM     14  C   UNL     1       4.531   2.866  18.808  0.00  0.00    +0.000 C 
BRANCH  14  15
ATOM     15  C   UNL     1       4.997   3.912  19.822  0.00  0.00    +0.000 C 
BRANCH  15  16
ATOM     16  C   UNL     1       5.570   5.133  19.091  0.00  0.00    +0.000 C 
BRANCH  16  17
ATOM     17  C   UNL     1       7.090   5.212  19.215  0.00  0.00    +0.000 C 
BRANCH  17  18
ATOM     18  C   UNL     1       7.684   6.410  18.460  0.00  0.00    +0.000 C 
BRANCH  18  20
ATOM     19  N   UNL     1       7.571   5.278  16.305  0.00  0.00    +0.000 N 
ATOM     20  C   UNL     1       7.225   6.402  17.015  0.00  0.00    +0.000 C 
ATOM     21  O   UNL     1       6.594   7.335  16.516  0.00  0.00    +0.000 OA
ATOM     22  H   UNL     1       8.165   4.574  16.723  0.00  0.00    +0.000 HD
BRANCH  19  23
ATOM     23  C   UNL     1       7.259   5.165  14.900  0.00  0.00    +0.000 C 
BRANCH  23  25
ATOM     24  C   UNL     1       5.335   3.749  15.649  0.00  0.00    +0.000 C 
ATOM     25  C   UNL     1       6.244   4.082  14.722  0.00  0.00    +0.000 C 
ENDBRANCH  23  25
ENDBRANCH  19  23
ENDBRANCH  18  20
ENDBRANCH  17  18
ENDBRANCH  16  17
ENDBRANCH  15  16
ENDBRANCH  14  15
ENDBRANCH   1  14
TORSDOF 11
ENDMDL
MODEL 7
REMARK VINA RESULT:      -6.2      3.082      7.500
REMARK  Name = 
REMARK  12 active torsions:
REMARK  status: ('A' for Active; 'I' for Inactive)
REMARK    1  A    between atoms: C_2  and  C_3
REMARK    2  A    between atoms: C_3  and  N_4
REMARK    3  A    between atoms: C_5  and  C_7
REMARK    4  A    between atoms: C_7  and  C_8
REMARK    5  A    between atoms: C_8  and  C_9
REMARK    6  A    between atoms: C_9  and  C_10
REMARK    7  A    between atoms: C_10  and  C_11
REMARK    8  A    between atoms: C_11  and  N_12
REMARK    9  A    between atoms: N_12  and  S_13
REMARK   10  A    between atoms: S_13  and  C_16
REMARK   11  A    between atoms: C_19  and  O_20
REMARK   12  A    between atoms: O_20  and  C_21
REMARK                            x       y       z     vdW  Elec       q    Type
REMARK                         _______ _______ _______ _____ _____    ______ ____
ROOT
ATOM      1  N   UNL     1       2.938   4.121  19.581  0.00  0.00    +0.000 NA
ATOM      2  H   UNL     1       2.051   3.670  19.355  0.00  0.00    +0.000 HD
ENDROOT
BRANCH   1   3
ATOM      3  S   UNL     1       4.219   3.262  18.877  0.00  0.00    +0.000 S 
ATOM      4  O   UNL     1       4.923   2.623  19.966  0.00  0.00    +0.000 OA
ATOM      5  O   UNL     1       3.684   2.502  17.770  0.00  0.00    +0.000 OA
BRANCH   3   6
ATOM      6  C   UNL     1       5.273   4.539  18.238  0.00  0.00    +0.000 A 
ATOM      7  C   UNL     1       6.172   5.175  19.094  0.00  0.00    +0.000 A 
ATOM      8  C   UNL     1       7.006   6.177  18.590  0.00  0.00    +0.000 A 
ATOM      9  C   UNL     1       6.969   6.524  17.237  0.00  0.00    +0.000 A 
ATOM     10  C   UNL     1       6.079   5.872  16.381  0.00  0.00    +0.000 A 
ATOM     11  C   UNL     1       5.232   4.873  16.879  0.00  0.00    +0.000 A 
BRANCH   9  12
ATOM     12  O   UNL     1       7.809   7.542  16.879  0.00  0.00    +0.000 OA
ATOM     13  C   UNL     1       8.125   8.482  17.898  0.00  0.00    +0.000 C 
ENDBRANCH   9  12
ENDBRANCH   3   6
ENDBRANCH   1   3
BRANCH   1  14
ATOM     14  C   UNL     1       2.995   5.586  19.472  0.00  0.00    +0.000 C 
BRANCH  14  15
ATOM     15  C   UNL     1       2.139   6.085  18.307  0.00  0.00    +0.000 C 
BRANCH  15  16
ATOM     16  C   UNL     1       2.672   7.434  17.805  0.00  0.00    +0.000 C 
BRANCH  16  17
ATOM     17  C   UNL     1       1.614   8.532  17.883  0.00  0.00    +0.000 C 
BRANCH  17  18
ATOM     18  C   UNL     1       1.493   9.139  19.288  0.00  0.00    +0.000 C 
BRANCH  18  20
ATOM     19  N   UNL     1      -0.031  10.752  18.279  0.00  0.00    +0.000 N 
ATOM     20  C   UNL     1       0.240   9.988  19.389  0.00  0.00    +0.000 C 
ATOM     21  O   UNL     1      -0.476   9.994  20.391  0.00  0.00    +0.000 OA
ATOM     22  H   UNL     1       0.627  10.788  17.512  0.00  0.00    +0.000 HD
BRANCH  19  23
ATOM     23  C   UNL     1      -1.154  11.660  18.263  0.00  0.00    +0.000 C 
BRANCH  23  25
ATOM     24  C   UNL     1      -2.228   9.911  16.828  0.00  0.00    +0.000 C 
ATOM     25  C   UNL     1      -2.139  11.181  17.244  0.00  0.00    +0.000 C 
ENDBRANCH  23  25
ENDBRANCH  19  23
ENDBRANCH  18  20
ENDBRANCH  17  18
ENDBRANCH  16  17
ENDBRANCH  15  16
ENDBRANCH  14  15
ENDBRANCH   1  14
TORSDOF 11
ENDMDL
MODEL 8
REMARK VINA RESULT:      -6.2      6.127      8.750
REMARK  Name = 
REMARK  12 active torsions:
REMARK  status: ('A' for Active; 'I' for Inactive)
REMARK    1  A    between atoms: C_2  and  C_3
REMARK    2  A    between atoms: C_3  and  N_4
REMARK    3  A    between atoms: C_5  and  C_7
REMARK    4  A    between atoms: C_7  and  C_8
REMARK    5  A    between atoms: C_8  and  C_9
REMARK    6  A    between atoms: C_9  and  C_10
REMARK    7  A    between atoms: C_10  and  C_11
REMARK    8  A    between atoms: C_11  and  N_12
REMARK    9  A    between atoms: N_12  and  S_13
REMARK   10  A    between atoms: S_13  and  C_16
REMARK   11  A    between atoms: C_19  and  O_20
REMARK   12  A    between atoms: O_20  and  C_21
REMARK                            x       y       z     vdW  Elec       q    Type
REMARK                         _______ _______ _______ _____ _____    ______ ____
ROOT
ATOM      1  N   UNL     1       7.507   6.347  17.006  0.00  0.00    +0.000 NA
ATOM      2  H   UNL     1       8.362   6.283  16.453  0.00  0.00    +0.000 HD
ENDROOT
BRANCH   1   3
ATOM      3  S   UNL     1       7.453   5.081  18.132  0.00  0.00    +0.000 S 
ATOM      4  O   UNL     1       8.344   4.058  17.632  0.00  0.00    +0.000 OA
ATOM      5  O   UNL     1       7.620   5.654  19.449  0.00  0.00    +0.000 OA
BRANCH   3   6
ATOM      6  C   UNL     1       5.796   4.463  17.983  0.00  0.00    +0.000 A 
ATOM      7  C   UNL     1       5.209   4.377  16.720  0.00  0.00    +0.000 A 
ATOM      8  C   UNL     1       3.907   3.886  16.601  0.00  0.00    +0.000 A 
ATOM      9  C   UNL     1       3.201   3.454  17.727  0.00  0.00    +0.000 A 
ATOM     10  C   UNL     1       3.798   3.527  18.987  0.00  0.00    +0.000 A 
ATOM     11  C   UNL     1       5.101   4.027  19.117  0.00  0.00    +0.000 A 
BRANCH   9  12
ATOM     12  O   UNL     1       1.924   3.030  17.481  0.00  0.00    +0.000 OA
ATOM     13  C   UNL     1       1.189   2.565  18.606  0.00  0.00    +0.000 C 
ENDBRANCH   9  12
ENDBRANCH   3   6
ENDBRANCH   1   3
BRANCH   1  14
ATOM     14  C   UNL     1       7.122   7.677  17.499  0.00  0.00    +0.000 C 
BRANCH  14  15
ATOM     15  C   UNL     1       8.325   8.416  18.087  0.00  0.00    +0.000 C 
BRANCH  15  16
ATOM     16  C   UNL     1       8.171   9.927  17.866  0.00  0.00    +0.000 C 
BRANCH  16  17
ATOM     17  C   UNL     1       9.424  10.696  18.278  0.00  0.00    +0.000 C 
BRANCH  17  18
ATOM     18  C   UNL     1       9.143  12.177  18.566  0.00  0.00    +0.000 C 
BRANCH  18  20
ATOM     19  N   UNL     1       9.901  14.403  17.925  0.00  0.00    +0.000 N 
ATOM     20  C   UNL     1      10.155  13.054  17.855  0.00  0.00    +0.000 C 
ATOM     21  O   UNL     1      11.128  12.592  17.258  0.00  0.00    +0.000 OA
ATOM     22  H   UNL     1       9.046  14.739  18.348  0.00  0.00    +0.000 HD
BRANCH  19  23
ATOM     23  C   UNL     1      10.744  15.351  17.236  0.00  0.00    +0.000 C 
BRANCH  23  25
ATOM     24  C   UNL     1      10.923  17.845  17.373  0.00  0.00    +0.000 C 
ATOM     25  C   UNL     1      10.193  16.724  17.452  0.00  0.00    +0.000 C 
ENDBRANCH  23  25
ENDBRANCH  19  23
ENDBRANCH  18  20
ENDBRANCH  17  18
ENDBRANCH  16  17
ENDBRANCH  15  16
ENDBRANCH  14  15
ENDBRANCH   1  14
TORSDOF 11
ENDMDL
MODEL 9
REMARK VINA RESULT:      -6.2      3.215      7.501
REMARK  Name = 
REMARK  12 active torsions:
REMARK  status: ('A' for Active; 'I' for Inactive)
REMARK    1  A    between atoms: C_2  and  C_3
REMARK    2  A    between atoms: C_3  and  N_4
REMARK    3  A    between atoms: C_5  and  C_7
REMARK    4  A    between atoms: C_7  and  C_8
REMARK    5  A    between atoms: C_8  and  C_9
REMARK    6  A    between atoms: C_9  and  C_10
REMARK    7  A    between atoms: C_10  and  C_11
REMARK    8  A    between atoms: C_11  and  N_12
REMARK    9  A    between atoms: N_12  and  S_13
REMARK   10  A    between atoms: S_13  and  C_16
REMARK   11  A    between atoms: C_19  and  O_20
REMARK   12  A    between atoms: O_20  and  C_21
REMARK                            x       y       z     vdW  Elec       q    Type
REMARK                         _______ _______ _______ _____ _____    ______ ____
ROOT
ATOM      1  N   UNL     1       2.777   3.165  20.394  0.00  0.00    +0.000 NA
ATOM      2  H   UNL     1       2.359   2.462  21.004  0.00  0.00    +0.000 HD
ENDROOT
BRANCH   1   3
ATOM      3  S   UNL     1       3.956   2.448  19.410  0.00  0.00    +0.000 S 
ATOM      4  O   UNL     1       4.957   1.912  20.305  0.00  0.00    +0.000 OA
ATOM      5  O   UNL     1       3.277   1.612  18.445  0.00  0.00    +0.000 OA
BRANCH   3   6
ATOM      6  C   UNL     1       4.684   3.826  18.562  0.00  0.00    +0.000 A 
ATOM      7  C   UNL     1       5.633   4.609  19.219  0.00  0.00    +0.000 A 
ATOM      8  C   UNL     1       6.210   5.692  18.550  0.00  0.00    +0.000 A 
ATOM      9  C   UNL     1       5.870   5.976  17.225  0.00  0.00    +0.000 A 
ATOM     10  C   UNL     1       4.931   5.180  16.567  0.00  0.00    +0.000 A 
ATOM     11  C   UNL     1       4.340   4.098  17.233  0.00  0.00    +0.000 A 
BRANCH   9  12
ATOM     12  O   UNL     1       6.478   7.082  16.697  0.00  0.00    +0.000 OA
ATOM     13  C   UNL     1       7.555   7.625  17.451  0.00  0.00    +0.000 C 
ENDBRANCH   9  12
ENDBRANCH   3   6
ENDBRANCH   1   3
BRANCH   1  14
ATOM     14  C   UNL     1       1.866   4.113  19.737  0.00  0.00    +0.000 C 
BRANCH  14  15
ATOM     15  C   UNL     1       1.867   5.465  20.453  0.00  0.00    +0.000 C 
BRANCH  15  16
ATOM     16  C   UNL     1       2.651   6.494  19.628  0.00  0.00    +0.000 C 
BRANCH  16  17
ATOM     17  C   UNL     1       1.907   7.822  19.513  0.00  0.00    +0.000 C 
BRANCH  17  18
ATOM     18  C   UNL     1       2.078   8.479  18.136  0.00  0.00    +0.000 C 
BRANCH  18  20
ATOM     19  N   UNL     1       0.852  10.325  19.152  0.00  0.00    +0.000 N 
ATOM     20  C   UNL     1       1.802   9.968  18.225  0.00  0.00    +0.000 C 
ATOM     21  O   UNL     1       2.383  10.792  17.518  0.00  0.00    +0.000 OA
ATOM     22  H   UNL     1       0.334   9.614  19.650  0.00  0.00    +0.000 HD
BRANCH  19  23
ATOM     23  C   UNL     1       0.440  11.701  19.296  0.00  0.00    +0.000 C 
BRANCH  23  25
ATOM     24  C   UNL     1       0.810  13.475  21.024  0.00  0.00    +0.000 C 
ATOM     25  C   UNL     1       1.102  12.273  20.509  0.00  0.00    +0.000 C 
ENDBRANCH  23  25
ENDBRANCH  19  23
ENDBRANCH  18  20
ENDBRANCH  17  18
ENDBRANCH  16  17
ENDBRANCH  15  16
ENDBRANCH  14  15
ENDBRANCH   1  14
TORSDOF 11
ENDMDL
