MODEL 1
REMARK VINA RESULT:      -8.0      0.000      0.000
REMARK  Name = 
REMARK  7 active torsions:
REMARK  status: ('A' for Active; 'I' for Inactive)
REMARK    1  A    between atoms: C_1  and  O_2
REMARK    2  A    between atoms: O_2  and  C_3
REMARK    3  A    between atoms: C_3  and  C_5
REMARK    4  A    between atoms: C_10  and  N_11
REMARK    5  A    between atoms: C_12  and  C_14
REMARK    6  A    between atoms: C_16  and  C_17
REMARK    7  A    between atoms: C_20  and  C_21
REMARK                            x       y       z     vdW  Elec       q    Type
REMARK                         _______ _______ _______ _____ _____    ______ ____
ROOT
ATOM      1  N   UNL     1       4.393   7.083  17.494  0.00  0.00    +0.000 N 
ATOM      2  C   UNL     1       3.077   6.837  17.858  0.00  0.00    +0.000 C 
ATOM      3  O   UNL     1       2.511   5.749  17.801  0.00  0.00    +0.000 OA
ATOM      4  H   UNL     1       4.774   7.987  17.777  0.00  0.00    +0.000 HD
ENDROOT
BRANCH   1  10
ATOM      5  C   UNL     1       6.179   5.370  17.607  0.00  0.00    +0.000 A 
ATOM      6  C   UNL     1       7.007   4.453  16.921  0.00  0.00    +0.000 A 
ATOM      7  C   UNL     1       6.970   4.334  15.533  0.00  0.00    +0.000 A 
ATOM      8  C   UNL     1       6.119   5.147  14.804  0.00  0.00    +0.000 A 
ATOM      9  C   UNL     1       5.293   6.056  15.464  0.00  0.00    +0.000 A 
ATOM     10  C   UNL     1       5.279   6.170  16.867  0.00  0.00    +0.000 A 
BRANCH   5  11
ATOM     11  C   UNL     1       6.336   5.354  19.093  0.00  0.00    +0.000 C 
ATOM     12  O   UNL     1       7.409   5.548  19.646  0.00  0.00    +0.000 OA
BRANCH  11  14
ATOM     13  C   UNL     1       4.694   3.767  19.557  0.00  0.00    +0.000 C 
ATOM     14  O   UNL     1       5.169   5.107  19.742  0.00  0.00    +0.000 OA
ENDBRANCH  11  14
ENDBRANCH   5  11
ENDBRANCH   1  10
BRANCH   2  15
ATOM     15  C   UNL     1       2.352   8.002  18.358  0.00  0.00    +0.000 A 
ATOM     16  C   UNL     1       1.780   8.129  19.652  0.00  0.00    +0.000 A 
ATOM     17  C   UNL     1       1.119   9.332  19.635  0.00  0.00    +0.000 A 
ATOM     18  O   UNL     1       1.332   9.920  18.421  0.00  0.00    +0.000 OA
ATOM     19  N   UNL     1       2.107   9.095  17.618  0.00  0.00    +0.000 NA
BRANCH  17  20
ATOM     20  C   UNL     1       0.273  10.047  20.583  0.00  0.00    +0.000 A 
ATOM     21  C   UNL     1       0.184   9.626  21.920  0.00  0.00    +0.000 A 
ATOM     22  C   UNL     1      -0.631  10.302  22.834  0.00  0.00    +0.000 A 
ATOM     23  C   UNL     1      -1.373  11.415  22.432  0.00  0.00    +0.000 A 
ATOM     24  C   UNL     1      -2.234  12.167  23.402  0.00  0.00    +0.000 C 
ATOM     25  C   UNL     1      -1.297  11.834  21.100  0.00  0.00    +0.000 A 
ATOM     26  C   UNL     1      -0.483  11.156  20.188  0.00  0.00    +0.000 A 
ENDBRANCH  17  20
ENDBRANCH   2  15
TORSDOF 5
ENDMDL
MODEL 2
REMARK VINA RESULT:      -7.9      0.780      1.323
REMARK  Name = 
REMARK  7 active torsions:
REMARK  status: ('A' for Active; 'I' for Inactive)
REMARK    1  A    between atoms: C_1  and  O_2
REMARK    2  A    between atoms: O_2  and  C_3
REMARK    3  A    between atoms: C_3  and  C_5
REMARK    4  A    between atoms: C_10  and  N_11
REMARK    5  A    between atoms: C_12  and  C_14
REMARK    6  A    between atoms: C_16  and  C_17
REMARK    7  A    between atoms: C_20  and  C_21
REMARK                            x       y       z     vdW  Elec       q    Type
REMARK                         _______ _______ _______ _____ _____    ______ ____
ROOT
ATOM      1  N   UNL     1       4.471   6.914  17.326  0.00  0.00    +0.000 N 
ATOM      2  C   UNL     1       3.249   6.612  17.911  0.00  0.00    +0.000 C 
ATOM      3  O   UNL     1       2.785   5.486  18.057  0.00  0.00    +0.000 OA
ATOM      4  H   UNL     1       4.802   7.871  17.449  0.00  0.00    +0.000 HD
ENDROOT
BRANCH   1  10
ATOM      5  C   UNL     1       6.471   5.452  17.314  0.00  0.00    +0.000 A 
ATOM      6  C   UNL     1       7.273   4.522  16.616  0.00  0.00    +0.000 A 
ATOM      7  C   UNL     1       6.983   4.149  15.304  0.00  0.00    +0.000 A 
ATOM      8  C   UNL     1       5.899   4.719  14.660  0.00  0.00    +0.000 A 
ATOM      9  C   UNL     1       5.095   5.638  15.334  0.00  0.00    +0.000 A 
ATOM     10  C   UNL     1       5.339   6.003  16.671  0.00  0.00    +0.000 A 
BRANCH   5  11
ATOM     11  C   UNL     1       6.916   5.724  18.714  0.00  0.00    +0.000 C 
ATOM     12  O   UNL     1       6.273   5.370  19.692  0.00  0.00    +0.000 OA
BRANCH  11  14
ATOM     13  C   UNL     1       8.031   7.698  18.176  0.00  0.00    +0.000 C 
ATOM     14  O   UNL     1       8.095   6.395  18.770  0.00  0.00    +0.000 OA
ENDBRANCH  11  14
ENDBRANCH   5  11
ENDBRANCH   1  10
BRANCH   2  15
ATOM     15  C   UNL     1       2.498   7.770  18.389  0.00  0.00    +0.000 A 
ATOM     16  C   UNL     1       1.940   7.917  19.687  0.00  0.00    +0.000 A 
ATOM     17  C   UNL     1       1.244   9.099  19.647  0.00  0.00    +0.000 A 
ATOM     18  O   UNL     1       1.423   9.659  18.414  0.00  0.00    +0.000 OA
ATOM     19  N   UNL     1       2.211   8.834  17.623  0.00  0.00    +0.000 NA
BRANCH  17  20
ATOM     20  C   UNL     1       0.391   9.816  20.587  0.00  0.00    +0.000 A 
ATOM     21  C   UNL     1       0.241   9.359  21.907  0.00  0.00    +0.000 A 
ATOM     22  C   UNL     1      -0.581  10.038  22.814  0.00  0.00    +0.000 A 
ATOM     23  C   UNL     1      -1.270  11.187  22.420  0.00  0.00    +0.000 A 
ATOM     24  C   UNL     1      -2.138  11.941  23.383  0.00  0.00    +0.000 C 
ATOM     25  C   UNL     1      -1.134  11.642  21.105  0.00  0.00    +0.000 A 
ATOM     26  C   UNL     1      -0.313  10.962  20.200  0.00  0.00    +0.000 A 
ENDBRANCH  17  20
ENDBRANCH   2  15
TORSDOF 5
ENDMDL
MODEL 3
REMARK VINA RESULT:      -7.9      1.743      2.424
REMARK  Name = 
REMARK  7 active torsions:
REMARK  status: ('A' for Active; 'I' for Inactive)
REMARK    1  A    between atoms: C_1  and  O_2
REMARK    2  A    between atoms: O_2  and  C_3
REMARK    3  A    between atoms: C_3  and  C_5
REMARK    4  A    between atoms: C_10  and  N_11
REMARK    5  A    between atoms: C_12  and  C_14
REMARK    6  A    between atoms: C_16  and  C_17
REMARK    7  A    between atoms: C_20  and  C_21
REMARK                            x       y       z     vdW  Elec       q    Type
REMARK                         _______ _______ _______ _____ _____    ______ ____
ROOT
ATOM      1  N   UNL     1       4.231   5.933  18.157  0.00  0.00    +0.000 N 
ATOM      2  C   UNL     1       3.528   5.211  19.112  0.00  0.00    +0.000 C 
ATOM      3  O   UNL     1       3.692   4.023  19.374  0.00  0.00    +0.000 OA
ATOM      4  H   UNL     1       4.116   6.946  18.189  0.00  0.00    +0.000 HD
ENDROOT
BRANCH   1  10
ATOM      5  C   UNL     1       6.549   5.376  17.483  0.00  0.00    +0.000 A 
ATOM      6  C   UNL     1       7.415   4.808  16.523  0.00  0.00    +0.000 A 
ATOM      7  C   UNL     1       6.934   4.297  15.318  0.00  0.00    +0.000 A 
ATOM      8  C   UNL     1       5.580   4.368  15.043  0.00  0.00    +0.000 A 
ATOM      9  C   UNL     1       4.709   4.924  15.980  0.00  0.00    +0.000 A 
ATOM     10  C   UNL     1       5.160   5.410  17.221  0.00  0.00    +0.000 A 
BRANCH   5  11
ATOM     11  C   UNL     1       7.230   5.859  18.723  0.00  0.00    +0.000 C 
ATOM     12  O   UNL     1       6.924   5.467  19.840  0.00  0.00    +0.000 OA
BRANCH  11  14
ATOM     13  C   UNL     1       7.723   7.964  17.853  0.00  0.00    +0.000 C 
ATOM     14  O   UNL     1       8.210   6.763  18.465  0.00  0.00    +0.000 OA
ENDBRANCH  11  14
ENDBRANCH   5  11
ENDBRANCH   1  10
BRANCH   2  15
ATOM     15  C   UNL     1       2.531   5.982  19.849  0.00  0.00    +0.000 A 
ATOM     16  C   UNL     1       2.331   7.385  19.753  0.00  0.00    +0.000 A 
ATOM     17  C   UNL     1       1.374   7.675  20.693  0.00  0.00    +0.000 A 
ATOM     18  O   UNL     1       0.978   6.506  21.278  0.00  0.00    +0.000 OA
ATOM     19  N   UNL     1       1.696   5.441  20.751  0.00  0.00    +0.000 NA
BRANCH  17  20
ATOM     20  C   UNL     1       0.753   8.904  21.174  0.00  0.00    +0.000 A 
ATOM     21  C   UNL     1       0.769  10.068  20.389  0.00  0.00    +0.000 A 
ATOM     22  C   UNL     1       0.182  11.253  20.846  0.00  0.00    +0.000 A 
ATOM     23  C   UNL     1      -0.434  11.299  22.099  0.00  0.00    +0.000 A 
ATOM     24  C   UNL     1      -1.089  12.552  22.597  0.00  0.00    +0.000 C 
ATOM     25  C   UNL     1      -0.445  10.147  22.891  0.00  0.00    +0.000 A 
ATOM     26  C   UNL     1       0.143   8.964  22.433  0.00  0.00    +0.000 A 
ENDBRANCH  17  20
ENDBRANCH   2  15
TORSDOF 5
ENDMDL
MODEL 4
REMARK VINA RESULT:      -7.8      1.917      2.496
REMARK  Name = 
REMARK  7 active torsions:
REMARK  status: ('A' for Active; 'I' for Inactive)
REMARK    1  A    between atoms: C_1  and  O_2
REMARK    2  A    between atoms: O_2  and  C_3
REMARK    3  A    between atoms: C_3  and  C_5
REMARK    4  A    between atoms: C_10  and  N_11
REMARK    5  A    between atoms: C_12  and  C_14
REMARK    6  A    between atoms: C_16  and  C_17
REMARK    7  A    between atoms: C_20  and  C_21
REMARK                            x       y       z     vdW  Elec       q    Type
REMARK                         _______ _______ _______ _____ _____    ______ ____
ROOT
ATOM      1  N   UNL     1       4.332   5.952  17.684  0.00  0.00    +0.000 N 
ATOM      2  C   UNL     1       3.742   5.189  18.682  0.00  0.00    +0.000 C 
ATOM      3  O   UNL     1       3.979   4.007  18.912  0.00  0.00    +0.000 OA
ATOM      4  H   UNL     1       4.176   6.960  17.741  0.00  0.00    +0.000 HD
ENDROOT
BRANCH   1  10
ATOM      5  C   UNL     1       6.569   5.849  16.624  0.00  0.00    +0.000 A 
ATOM      6  C   UNL     1       7.390   5.316  15.606  0.00  0.00    +0.000 A 
ATOM      7  C   UNL     1       6.882   4.453  14.636  0.00  0.00    +0.000 A 
ATOM      8  C   UNL     1       5.537   4.127  14.654  0.00  0.00    +0.000 A 
ATOM      9  C   UNL     1       4.711   4.643  15.653  0.00  0.00    +0.000 A 
ATOM     10  C   UNL     1       5.204   5.483  16.669  0.00  0.00    +0.000 A 
BRANCH   5  11
ATOM     11  C   UNL     1       7.280   6.742  17.589  0.00  0.00    +0.000 C 
ATOM     12  O   UNL     1       7.530   6.407  18.738  0.00  0.00    +0.000 OA
BRANCH  11  14
ATOM     13  C   UNL     1       8.180   8.852  17.997  0.00  0.00    +0.000 C 
ATOM     14  O   UNL     1       7.609   7.943  17.048  0.00  0.00    +0.000 OA
ENDBRANCH  11  14
ENDBRANCH   5  11
ENDBRANCH   1  10
BRANCH   2  15
ATOM     15  C   UNL     1       2.775   5.905  19.509  0.00  0.00    +0.000 A 
ATOM     16  C   UNL     1       2.447   7.282  19.396  0.00  0.00    +0.000 A 
ATOM     17  C   UNL     1       1.585   7.532  20.434  0.00  0.00    +0.000 A 
ATOM     18  O   UNL     1       1.361   6.358  21.096  0.00  0.00    +0.000 OA
ATOM     19  N   UNL     1       2.100   5.335  20.520  0.00  0.00    +0.000 NA
BRANCH  17  20
ATOM     20  C   UNL     1       0.922   8.725  20.949  0.00  0.00    +0.000 A 
ATOM     21  C   UNL     1       0.511   8.791  22.290  0.00  0.00    +0.000 A 
ATOM     22  C   UNL     1      -0.132   9.930  22.789  0.00  0.00    +0.000 A 
ATOM     23  C   UNL     1      -0.376  11.025  21.959  0.00  0.00    +0.000 A 
ATOM     24  C   UNL     1      -1.042  12.263  22.481  0.00  0.00    +0.000 C 
ATOM     25  C   UNL     1       0.022  10.963  20.620  0.00  0.00    +0.000 A 
ATOM     26  C   UNL     1       0.663   9.824  20.122  0.00  0.00    +0.000 A 
ENDBRANCH  17  20
ENDBRANCH   2  15
TORSDOF 5
ENDMDL
MODEL 5
REMARK VINA RESULT:      -7.6      1.352      2.026
REMARK  Name = 
REMARK  7 active torsions:
REMARK  status: ('A' for Active; 'I' for Inactive)
REMARK    1  A    between atoms: C_1  and  O_2
REMARK    2  A    between atoms: O_2  and  C_3
REMARK    3  A    between atoms: C_3  and  C_5
REMARK    4  A    between atoms: C_10  and  N_11
REMARK    5  A    between atoms: C_12  and  C_14
REMARK    6  A    between atoms: C_16  and  C_17
REMARK    7  A    between atoms: C_20  and  C_21
REMARK                            x       y       z     vdW  Elec       q    Type
REMARK                         _______ _______ _______ _____ _____    ______ ____
ROOT
ATOM      1  N   UNL     1       4.345   6.820  17.461  0.00  0.00    +0.000 N 
ATOM      2  C   UNL     1       3.299   6.529  18.327  0.00  0.00    +0.000 C 
ATOM      3  O   UNL     1       3.027   5.418  18.771  0.00  0.00    +0.000 OA
ATOM      4  H   UNL     1       4.558   7.810  17.334  0.00  0.00    +0.000 HD
ENDROOT
BRANCH   1  10
ATOM      5  C   UNL     1       6.603   5.920  16.985  0.00  0.00    +0.000 A 
ATOM      6  C   UNL     1       7.393   4.933  16.355  0.00  0.00    +0.000 A 
ATOM      7  C   UNL     1       6.820   3.935  15.568  0.00  0.00    +0.000 A 
ATOM      8  C   UNL     1       5.450   3.921  15.379  0.00  0.00    +0.000 A 
ATOM      9  C   UNL     1       4.654   4.887  15.994  0.00  0.00    +0.000 A 
ATOM     10  C   UNL     1       5.199   5.882  16.827  0.00  0.00    +0.000 A 
BRANCH   5  11
ATOM     11  C   UNL     1       7.377   6.903  17.803  0.00  0.00    +0.000 C 
ATOM     12  O   UNL     1       8.042   6.574  18.775  0.00  0.00    +0.000 OA
BRANCH  11  14
ATOM     13  C   UNL     1       8.210   9.075  17.929  0.00  0.00    +0.000 C 
ATOM     14  O   UNL     1       7.258   8.176  17.347  0.00  0.00    +0.000 OA
ENDBRANCH  11  14
ENDBRANCH   5  11
ENDBRANCH   1  10
BRANCH   2  15
ATOM     15  C   UNL     1       2.494   7.681  18.722  0.00  0.00    +0.000 A 
ATOM     16  C   UNL     1       1.947   7.906  20.013  0.00  0.00    +0.000 A 
ATOM     17  C   UNL     1       1.188   9.043  19.889  0.00  0.00    +0.000 A 
ATOM     18  O   UNL     1       1.320   9.507  18.611  0.00  0.00    +0.000 OA
ATOM     19  N   UNL     1       2.139   8.662  17.876  0.00  0.00    +0.000 NA
BRANCH  17  20
ATOM     20  C   UNL     1       0.311   9.790  20.782  0.00  0.00    +0.000 A 
ATOM     21  C   UNL     1      -0.314  10.970  20.348  0.00  0.00    +0.000 A 
ATOM     22  C   UNL     1      -1.152  11.696  21.203  0.00  0.00    +0.000 A 
ATOM     23  C   UNL     1      -1.382  11.257  22.508  0.00  0.00    +0.000 A 
ATOM     24  C   UNL     1      -2.294  12.009  23.431  0.00  0.00    +0.000 C 
ATOM     25  C   UNL     1      -0.755  10.089  22.951  0.00  0.00    +0.000 A 
ATOM     26  C   UNL     1       0.082   9.365  22.096  0.00  0.00    +0.000 A 
ENDBRANCH  17  20
ENDBRANCH   2  15
TORSDOF 5
ENDMDL
MODEL 6
REMARK VINA RESULT:      -7.6      2.029      2.660
REMARK  Name = 
REMARK  7 active torsions:
REMARK  status: ('A' for Active; 'I' for Inactive)
REMARK    1  A    between atoms: C_1  and  O_2
REMARK    2  A    between atoms: O_2  and  C_3
REMARK    3  A    between atoms: C_3  and  C_5
REMARK    4  A    between atoms: C_10  and  N_11
REMARK    5  A    between atoms: C_12  and  C_14
REMARK    6  A    between atoms: C_16  and  C_17
REMARK    7  A    between atoms: C_20  and  C_21
REMARK                            x       y       z     vdW  Elec       q    Type
REMARK                         _______ _______ _______ _____ _____    ______ ____
ROOT
ATOM      1  N   UNL     1       3.467   5.984  17.795  0.00  0.00    +0.000 N 
ATOM      2  C   UNL     1       3.578   5.921  19.177  0.00  0.00    +0.000 C 
ATOM      3  O   UNL     1       4.506   5.411  19.798  0.00  0.00    +0.000 OA
ATOM      4  H   UNL     1       2.741   6.603  17.432  0.00  0.00    +0.000 HD
ENDROOT
BRANCH   1  10
ATOM      5  C   UNL     1       4.327   3.960  16.655  0.00  0.00    +0.000 A 
ATOM      6  C   UNL     1       5.177   3.406  15.672  0.00  0.00    +0.000 A 
ATOM      7  C   UNL     1       6.024   4.207  14.907  0.00  0.00    +0.000 A 
ATOM      8  C   UNL     1       6.051   5.573  15.127  0.00  0.00    +0.000 A 
ATOM      9  C   UNL     1       5.216   6.136  16.092  0.00  0.00    +0.000 A 
ATOM     10  C   UNL     1       4.322   5.359  16.852  0.00  0.00    +0.000 A 
BRANCH   5  11
ATOM     11  C   UNL     1       3.475   2.961  17.370  0.00  0.00    +0.000 C 
ATOM     12  O   UNL     1       3.944   2.068  18.061  0.00  0.00    +0.000 OA
BRANCH  11  14
ATOM     13  C   UNL     1       1.368   3.035  18.362  0.00  0.00    +0.000 C 
ATOM     14  O   UNL     1       2.148   3.160  17.166  0.00  0.00    +0.000 OA
ENDBRANCH  11  14
ENDBRANCH   5  11
ENDBRANCH   1  10
BRANCH   2  15
ATOM     15  C   UNL     1       2.476   6.542  19.908  0.00  0.00    +0.000 A 
ATOM     16  C   UNL     1       2.136   7.920  19.879  0.00  0.00    +0.000 A 
ATOM     17  C   UNL     1       1.117   8.057  20.788  0.00  0.00    +0.000 A 
ATOM     18  O   UNL     1       0.821   6.821  21.289  0.00  0.00    +0.000 OA
ATOM     19  N   UNL     1       1.666   5.867  20.740  0.00  0.00    +0.000 NA
BRANCH  17  20
ATOM     20  C   UNL     1       0.353   9.186  21.306  0.00  0.00    +0.000 A 
ATOM     21  C   UNL     1       0.060  10.287  20.485  0.00  0.00    +0.000 A 
ATOM     22  C   UNL     1      -0.666  11.378  20.977  0.00  0.00    +0.000 A 
ATOM     23  C   UNL     1      -1.115  11.390  22.299  0.00  0.00    +0.000 A 
ATOM     24  C   UNL     1      -1.914  12.539  22.838  0.00  0.00    +0.000 C 
ATOM     25  C   UNL     1      -0.818  10.302  23.126  0.00  0.00    +0.000 A 
ATOM     26  C   UNL     1      -0.092   9.214  22.633  0.00  0.00    +0.000 A 
ENDBRANCH  17  20
ENDBRANCH   2  15
TORSDOF 5
ENDMDL
MODEL 7
REMARK VINA RESULT:      -7.6      1.996      2.413
REMARK  Name = 
REMARK  7 active torsions:
REMARK  status: ('A' for Active; 'I' for Inactive)
REMARK    1  A    between atoms: C_1  and  O_2
REMARK    2  A    between atoms: O_2  and  C_3
REMARK    3  A    between atoms: C_3  and  C_5
REMARK    4  A    between atoms: C_10  and  N_11
REMARK    5  A    between atoms: C_12  and  C_14
REMARK    6  A    between atoms: C_16  and  C_17
REMARK    7  A    between atoms: C_20  and  C_21
REMARK                            x       y       z     vdW  Elec       q    Type
REMARK                         _______ _______ _______ _____ _____    ______ ____
ROOT
ATOM      1  N   UNL     1       4.275   7.074  17.672  0.00  0.00    +0.000 N 
ATOM      2  C   UNL     1       2.946   6.846  18.002  0.00  0.00    +0.000 C 
ATOM      3  O   UNL     1       2.352   5.779  17.878  0.00  0.00    +0.000 OA
ATOM      4  H   UNL     1       4.675   7.951  18.009  0.00  0.00    +0.000 HD
ENDROOT
BRANCH   1  10
ATOM      5  C   UNL     1       5.987   5.285  17.720  0.00  0.00    +0.000 A 
ATOM      6  C   UNL     1       6.803   4.385  16.998  0.00  0.00    +0.000 A 
ATOM      7  C   UNL     1       6.810   4.365  15.605  0.00  0.00    +0.000 A 
ATOM      8  C   UNL     1       6.018   5.261  14.908  0.00  0.00    +0.000 A 
ATOM      9  C   UNL     1       5.205   6.155  15.604  0.00  0.00    +0.000 A 
ATOM     10  C   UNL     1       5.146   6.171  17.010  0.00  0.00    +0.000 A 
BRANCH   5  11
ATOM     11  C   UNL     1       6.091   5.159  19.206  0.00  0.00    +0.000 C 
ATOM     12  O   UNL     1       7.127   5.381  19.816  0.00  0.00    +0.000 OA
BRANCH  11  14
ATOM     13  C   UNL     1       4.569   3.419  19.501  0.00  0.00    +0.000 C 
ATOM     14  O   UNL     1       4.923   4.779  19.784  0.00  0.00    +0.000 OA
ENDBRANCH  11  14
ENDBRANCH   5  11
ENDBRANCH   1  10
BRANCH   2  15
ATOM     15  C   UNL     1       2.245   8.002  18.553  0.00  0.00    +0.000 A 
ATOM     16  C   UNL     1       1.999   9.224  17.871  0.00  0.00    +0.000 A 
ATOM     17  C   UNL     1       1.414  10.043  18.803  0.00  0.00    +0.000 A 
ATOM     18  O   UNL     1       1.263   9.335  19.962  0.00  0.00    +0.000 OA
ATOM     19  N   UNL     1       1.778   8.055  19.810  0.00  0.00    +0.000 NA
BRANCH  17  20
ATOM     20  C   UNL     1       0.972  11.433  18.810  0.00  0.00    +0.000 A 
ATOM     21  C   UNL     1      -0.381  11.753  18.613  0.00  0.00    +0.000 A 
ATOM     22  C   UNL     1      -0.813  13.085  18.610  0.00  0.00    +0.000 A 
ATOM     23  C   UNL     1       0.100  14.123  18.805  0.00  0.00    +0.000 A 
ATOM     24  C   UNL     1      -0.345  15.555  18.829  0.00  0.00    +0.000 C 
ATOM     25  C   UNL     1       1.451  13.813  18.991  0.00  0.00    +0.000 A 
ATOM     26  C   UNL     1       1.880  12.483  18.993  0.00  0.00    +0.000 A 
ENDBRANCH  17  20
ENDBRANCH   2  15
TORSDOF 5
ENDMDL
MODEL 8
REMARK VINA RESULT:      -7.5      1.908      2.576
REMARK  Name = 
REMARK  7 active torsions:
REMARK  status: ('A' for Active; 'I' for Inactive)
REMARK    1  A    between atoms: C_1  and  O_2
REMARK    2  A    between atoms: O_2  and  C_3
REMARK    3  A    between atoms: C_3  and  C_5
REMARK    4  A    between atoms: C_10  and  N_11
REMARK    5  A    between atoms: C_12  and  C_14
REMARK    6  A    between atoms: C_16  and  C_17
REMARK    7  A    between atoms: C_20  and  C_21
REMARK                            x       y       z     vdW  Elec       q    Type
REMARK                         _______ _______ _______ _____ _____    ______ ____
ROOT
ATOM      1  N   UNL     1       3.206   6.479  18.410  0.00  0.00    +0.000 N 
ATOM      2  C   UNL     1       2.640   7.731  18.216  0.00  0.00    +0.000 C 
ATOM      3  O   UNL     1       2.782   8.434  17.220  0.00  0.00    +0.000 OA
ATOM      4  H   UNL     1       2.843   5.941  19.198  0.00  0.00    +0.000 HD
ENDROOT
BRANCH   1  10
ATOM      5  C   UNL     1       3.979   4.515  17.112  0.00  0.00    +0.000 A 
ATOM      6  C   UNL     1       4.942   3.955  16.243  0.00  0.00    +0.000 A 
ATOM      7  C   UNL     1       6.065   4.675  15.839  0.00  0.00    +0.000 A 
ATOM      8  C   UNL     1       6.257   5.960  16.316  0.00  0.00    +0.000 A 
ATOM      9  C   UNL     1       5.316   6.529  17.173  0.00  0.00    +0.000 A 
ATOM     10  C   UNL     1       4.152   5.842  17.566  0.00  0.00    +0.000 A 
BRANCH   5  11
ATOM     11  C   UNL     1       2.832   3.612  17.429  0.00  0.00    +0.000 C 
ATOM     12  O   UNL     1       1.666   3.970  17.343  0.00  0.00    +0.000 OA
BRANCH  11  14
ATOM     13  C   UNL     1       3.564   2.294  19.206  0.00  0.00    +0.000 C 
ATOM     14  O   UNL     1       3.230   2.372  17.814  0.00  0.00    +0.000 OA
ENDBRANCH  11  14
ENDBRANCH   5  11
ENDBRANCH   1  10
BRANCH   2  15
ATOM     15  C   UNL     1       1.802   8.200  19.316  0.00  0.00    +0.000 A 
ATOM     16  C   UNL     1       0.948   9.335  19.282  0.00  0.00    +0.000 A 
ATOM     17  C   UNL     1       0.450   9.447  20.556  0.00  0.00    +0.000 A 
ATOM     18  O   UNL     1       0.930   8.405  21.297  0.00  0.00    +0.000 OA
ATOM     19  N   UNL     1       1.773   7.618  20.526  0.00  0.00    +0.000 NA
BRANCH  17  20
ATOM     20  C   UNL     1      -0.414  10.406  21.235  0.00  0.00    +0.000 A 
ATOM     21  C   UNL     1      -0.986  11.477  20.530  0.00  0.00    +0.000 A 
ATOM     22  C   UNL     1      -1.810  12.406  21.176  0.00  0.00    +0.000 A 
ATOM     23  C   UNL     1      -2.080  12.282  22.540  0.00  0.00    +0.000 A 
ATOM     24  C   UNL     1      -2.978  13.253  23.246  0.00  0.00    +0.000 C 
ATOM     25  C   UNL     1      -1.505  11.224  23.252  0.00  0.00    +0.000 A 
ATOM     26  C   UNL     1      -0.682  10.298  22.605  0.00  0.00    +0.000 A 
ENDBRANCH  17  20
ENDBRANCH   2  15
TORSDOF 5
ENDMDL
MODEL 9
REMARK VINA RESULT:      -7.5      2.009      2.573
REMARK  Name = 
REMARK  7 active torsions:
REMARK  status: ('A' for Active; 'I' for Inactive)
REMARK    1  A    between atoms: C_1  and  O_2
REMARK    2  A    between atoms: O_2  and  C_3
REMARK    3  A    between atoms: C_3  and  C_5
REMARK    4  A    between atoms: C_10  and  N_11
REMARK    5  A    between atoms: C_12  and  C_14
REMARK    6  A    between atoms: C_16  and  C_17
REMARK    7  A    between atoms: C_20  and  C_21
REMARK                            x       y       z     vdW  Elec       q    Type
REMARK                         _______ _______ _______ _____ _____    ______ ____
ROOT
ATOM      1  N   UNL     1       4.222   6.893  17.470  0.00  0.00    +0.000 N 
ATOM      2  C   UNL     1       2.945   6.655  17.959  0.00  0.00    +0.000 C 
ATOM      3  O   UNL     1       2.371   5.570  17.962  0.00  0.00    +0.000 OA
ATOM      4  H   UNL     1       4.632   7.797  17.710  0.00  0.00    +0.000 HD
ENDROOT
BRANCH   1  10
ATOM      5  C   UNL     1       5.746   4.941  17.425  0.00  0.00    +0.000 A 
ATOM      6  C   UNL     1       6.512   4.035  16.659  0.00  0.00    +0.000 A 
ATOM      7  C   UNL     1       6.603   4.147  15.273  0.00  0.00    +0.000 A 
ATOM      8  C   UNL     1       5.946   5.182  14.630  0.00  0.00    +0.000 A 
ATOM      9  C   UNL     1       5.182   6.084  15.370  0.00  0.00    +0.000 A 
ATOM     10  C   UNL     1       5.040   5.973  16.766  0.00  0.00    +0.000 A 
BRANCH   5  11
ATOM     11  C   UNL     1       5.746   4.664  18.894  0.00  0.00    +0.000 C 
ATOM     12  O   UNL     1       5.283   3.639  19.373  0.00  0.00    +0.000 OA
BRANCH  11  14
ATOM     13  C   UNL     1       7.720   5.799  19.388  0.00  0.00    +0.000 C 
ATOM     14  O   UNL     1       6.311   5.665  19.616  0.00  0.00    +0.000 OA
ENDBRANCH  11  14
ENDBRANCH   5  11
ENDBRANCH   1  10
BRANCH   2  15
ATOM     15  C   UNL     1       2.276   7.826  18.519  0.00  0.00    +0.000 A 
ATOM     16  C   UNL     1       1.988   9.029  17.821  0.00  0.00    +0.000 A 
ATOM     17  C   UNL     1       1.458   9.873  18.764  0.00  0.00    +0.000 A 
ATOM     18  O   UNL     1       1.378   9.197  19.948  0.00  0.00    +0.000 OA
ATOM     19  N   UNL     1       1.885   7.913  19.801  0.00  0.00    +0.000 NA
BRANCH  17  20
ATOM     20  C   UNL     1       1.015  11.262  18.760  0.00  0.00    +0.000 A 
ATOM     21  C   UNL     1       1.950  12.311  18.745  0.00  0.00    +0.000 A 
ATOM     22  C   UNL     1       1.533  13.647  18.748  0.00  0.00    +0.000 A 
ATOM     23  C   UNL     1       0.172  13.962  18.764  0.00  0.00    +0.000 A 
ATOM     24  C   UNL     1      -0.295  15.387  18.744  0.00  0.00    +0.000 C 
ATOM     25  C   UNL     1      -0.764  12.924  18.788  0.00  0.00    +0.000 A 
ATOM     26  C   UNL     1      -0.345  11.590  18.787  0.00  0.00    +0.000 A 
ENDBRANCH  17  20
ENDBRANCH   2  15
TORSDOF 5
ENDMDL
