MODEL 1
REMARK VINA RESULT:      -7.4      0.000      0.000
REMARK  Name = 
REMARK  12 active torsions:
REMARK  status: ('A' for Active; 'I' for Inactive)
REMARK    1  A    between atoms: C_1  and  O_2
REMARK    2  A    between atoms: O_2  and  C_3
REMARK    3  A    between atoms: C_6  and  C_7
REMARK    4  A    between atoms: C_7  and  N_8
REMARK    5  A    between atoms: C_15  and  N_16
REMARK    6  A    between atoms: C_17  and  C_19
REMARK    7  A    between atoms: C_21  and  O_22
REMARK    8  A    between atoms: O_22  and  C_23
REMARK    9  A    between atoms: C_24  and  O_25
REMARK   10  A    between atoms: O_25  and  C_26
REMARK   11  A    between atoms: C_27  and  O_28
REMARK   12  A    between atoms: O_28  and  C_29
REMARK                            x       y       z     vdW  Elec       q    Type
REMARK                         _______ _______ _______ _____ _____    ______ ____
ROOT
ATOM      1  N   UNL     1      -0.166  12.357  20.981  0.00  0.00    +0.000 NA
ATOM      2  C   UNL     1       0.891  12.694  20.019  0.00  0.00    +0.000 C 
ATOM      3  C   UNL     1       0.360  13.553  18.861  0.00  0.00    +0.000 C 
ATOM      4  C   UNL     1      -0.831  12.953  18.129  0.00  0.00    +0.000 C 
ATOM      5  C   UNL     1      -1.801  12.171  19.015  0.00  0.00    +0.000 C 
ATOM      6  C   UNL     1      -1.218  11.572  20.312  0.00  0.00    +0.000 C 
ATOM      7  C   UNL     1      -0.617  10.187  20.040  0.00  0.00    +0.000 C 
ATOM      8  C   UNL     1       0.623  10.260  19.153  0.00  0.00    +0.000 C 
ATOM      9  C   UNL     1       1.574  11.398  19.534  0.00  0.00    +0.000 C 
ENDROOT
BRANCH   8  10
ATOM     10  N   UNL     1       1.317   8.976  19.238  0.00  0.00    +0.000 N 
ATOM     11  C   UNL     1       2.107   8.480  18.233  0.00  0.00    +0.000 C 
ATOM     12  O   UNL     1       2.278   9.008  17.141  0.00  0.00    +0.000 OA
ATOM     13  H   UNL     1       1.479   8.634  20.176  0.00  0.00    +0.000 HD
BRANCH  11  14
ATOM     14  C   UNL     1       2.803   7.217  18.587  0.00  0.00    +0.000 A 
ATOM     15  C   UNL     1       3.854   6.761  17.796  0.00  0.00    +0.000 A 
ATOM     16  C   UNL     1       4.452   5.534  18.062  0.00  0.00    +0.000 A 
ATOM     17  C   UNL     1       3.980   4.742  19.134  0.00  0.00    +0.000 A 
ATOM     18  C   UNL     1       2.929   5.223  19.948  0.00  0.00    +0.000 A 
ATOM     19  C   UNL     1       2.368   6.477  19.687  0.00  0.00    +0.000 A 
BRANCH  16  20
ATOM     20  O   UNL     1       5.484   5.038  17.298  0.00  0.00    +0.000 OA
ATOM     21  C   UNL     1       5.165   4.721  15.944  0.00  0.00    +0.000 C 
ENDBRANCH  16  20
BRANCH  17  22
ATOM     22  O   UNL     1       4.548   3.492  19.224  0.00  0.00    +0.000 OA
ATOM     23  C   UNL     1       3.836   2.413  18.634  0.00  0.00    +0.000 C 
ENDBRANCH  17  22
BRANCH  18  24
ATOM     24  O   UNL     1       2.485   4.443  20.985  0.00  0.00    +0.000 OA
ATOM     25  C   UNL     1       1.233   3.786  20.805  0.00  0.00    +0.000 C 
ENDBRANCH  18  24
ENDBRANCH  11  14
ENDBRANCH   8  10
BRANCH   1  26
ATOM     26  C   UNL     1      -0.649  13.497  21.781  0.00  0.00    +0.000 C 
BRANCH  26  30
ATOM     27  C   UNL     1      -4.681  13.187  23.459  0.00  0.00    +0.000 A 
ATOM     28  C   UNL     1      -3.684  12.313  23.887  0.00  0.00    +0.000 A 
ATOM     29  C   UNL     1      -2.387  12.375  23.325  0.00  0.00    +0.000 A 
ATOM     30  C   UNL     1      -2.071  13.315  22.325  0.00  0.00    +0.000 A 
ATOM     31  C   UNL     1      -3.088  14.174  21.891  0.00  0.00    +0.000 A 
ATOM     32  C   UNL     1      -4.375  14.105  22.451  0.00  0.00    +0.000 A 
BRANCH  27  34
ATOM     33  C   UNL     1      -6.976  13.686  22.997  0.00  0.00    +0.000 C 
ATOM     34  O   UNL     1      -5.971  13.253  23.903  0.00  0.00    +0.000 OA
ENDBRANCH  27  34
ENDBRANCH  26  30
ENDBRANCH   1  26
TORSDOF 8
ENDMDL
MODEL 2
REMARK VINA RESULT:      -7.4      0.509      2.360
REMARK  Name = 
REMARK  12 active torsions:
REMARK  status: ('A' for Active; 'I' for Inactive)
REMARK    1  A    between atoms: C_1  and  O_2
REMARK    2  A    between atoms: O_2  and  C_3
REMARK    3  A    between atoms: C_6  and  C_7
REMARK    4  A    between atoms: C_7  and  N_8
REMARK    5  A    between atoms: C_15  and  N_16
REMARK    6  A    between atoms: C_17  and  C_19
REMARK    7  A    between atoms: C_21  and  O_22
REMARK    8  A    between atoms: O_22  and  C_23
REMARK    9  A    between atoms: C_24  and  O_25
REMARK   10  A    between atoms: O_25  and  C_26
REMARK   11  A    between atoms: C_27  and  O_28
REMARK   12  A    between atoms: O_28  and  C_29
REMARK                            x       y       z     vdW  Elec       q    Type
REMARK                         _______ _______ _______ _____ _____    ______ ____
ROOT
ATOM      1  N   UNL     1      -0.078  12.443  21.018  0.00  0.00    +0.000 NA
ATOM      2  C   UNL     1       1.031  12.770  20.112  0.00  0.00    +0.000 C 
ATOM      3  C   UNL     1       0.590  13.715  18.984  0.00  0.00    +0.000 C 
ATOM      4  C   UNL     1      -0.604  13.220  18.180  0.00  0.00    +0.000 C 
ATOM      5  C   UNL     1      -1.646  12.449  18.990  0.00  0.00    +0.000 C 
ATOM      6  C   UNL     1      -1.145  11.753  20.273  0.00  0.00    +0.000 C 
ATOM      7  C   UNL     1      -0.610  10.353  19.949  0.00  0.00    +0.000 C 
ATOM      8  C   UNL     1       0.665  10.402  19.109  0.00  0.00    +0.000 C 
ATOM      9  C   UNL     1       1.661  11.465  19.582  0.00  0.00    +0.000 C 
ENDROOT
BRANCH   8  10
ATOM     10  N   UNL     1       1.286   9.078  19.151  0.00  0.00    +0.000 N 
ATOM     11  C   UNL     1       2.095   8.597  18.154  0.00  0.00    +0.000 C 
ATOM     12  O   UNL     1       2.346   9.175  17.104  0.00  0.00    +0.000 OA
ATOM     13  H   UNL     1       1.385   8.677  20.073  0.00  0.00    +0.000 HD
BRANCH  11  14
ATOM     14  C   UNL     1       2.706   7.279  18.465  0.00  0.00    +0.000 A 
ATOM     15  C   UNL     1       2.251   6.544  19.555  0.00  0.00    +0.000 A 
ATOM     16  C   UNL     1       2.877   5.354  19.912  0.00  0.00    +0.000 A 
ATOM     17  C   UNL     1       3.989   4.898  19.167  0.00  0.00    +0.000 A 
ATOM     18  C   UNL     1       4.431   5.637  18.045  0.00  0.00    +0.000 A 
ATOM     19  C   UNL     1       3.762   6.810  17.682  0.00  0.00    +0.000 A 
BRANCH  16  20
ATOM     20  O   UNL     1       2.469   4.603  20.991  0.00  0.00    +0.000 OA
ATOM     21  C   UNL     1       1.246   3.886  20.828  0.00  0.00    +0.000 C 
ENDBRANCH  16  20
BRANCH  17  22
ATOM     22  O   UNL     1       4.616   3.788  19.685  0.00  0.00    +0.000 OA
ATOM     23  C   UNL     1       4.230   2.524  19.163  0.00  0.00    +0.000 C 
ENDBRANCH  17  22
BRANCH  18  24
ATOM     24  O   UNL     1       5.509   5.179  17.334  0.00  0.00    +0.000 OA
ATOM     25  C   UNL     1       6.528   6.128  17.029  0.00  0.00    +0.000 C 
ENDBRANCH  18  24
ENDBRANCH  11  14
ENDBRANCH   8  10
BRANCH   1  26
ATOM     26  C   UNL     1      -0.529  13.567  21.860  0.00  0.00    +0.000 C 
BRANCH  26  30
ATOM     27  C   UNL     1      -4.568  12.832  23.379  0.00  0.00    +0.000 A 
ATOM     28  C   UNL     1      -4.352  13.846  22.449  0.00  0.00    +0.000 A 
ATOM     29  C   UNL     1      -3.047  14.122  21.979  0.00  0.00    +0.000 A 
ATOM     30  C   UNL     1      -1.938  13.383  22.436  0.00  0.00    +0.000 A 
ATOM     31  C   UNL     1      -2.168  12.379  23.384  0.00  0.00    +0.000 A 
ATOM     32  C   UNL     1      -3.466  12.113  23.849  0.00  0.00    +0.000 A 
BRANCH  27  34
ATOM     33  C   UNL     1      -6.850  13.357  23.880  0.00  0.00    +0.000 C 
ATOM     34  O   UNL     1      -5.761  12.445  23.921  0.00  0.00    +0.000 OA
ENDBRANCH  27  34
ENDBRANCH  26  30
ENDBRANCH   1  26
TORSDOF 8
ENDMDL
MODEL 3
REMARK VINA RESULT:      -7.3      2.640     10.530
REMARK  Name = 
REMARK  12 active torsions:
REMARK  status: ('A' for Active; 'I' for Inactive)
REMARK    1  A    between atoms: C_1  and  O_2
REMARK    2  A    between atoms: O_2  and  C_3
REMARK    3  A    between atoms: C_6  and  C_7
REMARK    4  A    between atoms: C_7  and  N_8
REMARK    5  A    between atoms: C_15  and  N_16
REMARK    6  A    between atoms: C_17  and  C_19
REMARK    7  A    between atoms: C_21  and  O_22
REMARK    8  A    between atoms: O_22  and  C_23
REMARK    9  A    between atoms: C_24  and  O_25
REMARK   10  A    between atoms: O_25  and  C_26
REMARK   11  A    between atoms: C_27  and  O_28
REMARK   12  A    between atoms: O_28  and  C_29
REMARK                            x       y       z     vdW  Elec       q    Type
REMARK                         _______ _______ _______ _____ _____    ______ ____
ROOT
ATOM      1  N   UNL     1       3.820   5.272  19.413  0.00  0.00    +0.000 NA
ATOM      2  C   UNL     1       2.805   4.904  20.409  0.00  0.00    +0.000 C 
ATOM      3  C   UNL     1       1.878   3.791  19.899  0.00  0.00    +0.000 C 
ATOM      4  C   UNL     1       1.207   4.095  18.567  0.00  0.00    +0.000 C 
ATOM      5  C   UNL     1       2.065   4.894  17.585  0.00  0.00    +0.000 C 
ATOM      6  C   UNL     1       3.165   5.785  18.199  0.00  0.00    +0.000 C 
ATOM      7  C   UNL     1       2.598   7.163  18.561  0.00  0.00    +0.000 C 
ATOM      8  C   UNL     1       1.590   7.090  19.706  0.00  0.00    +0.000 C 
ATOM      9  C   UNL     1       2.035   6.168  20.845  0.00  0.00    +0.000 C 
ENDROOT
BRANCH   8  10
ATOM     10  N   UNL     1       1.379   8.446  20.211  0.00  0.00    +0.000 N 
ATOM     11  C   UNL     1       0.922   9.475  19.429  0.00  0.00    +0.000 C 
ATOM     12  O   UNL     1       0.696   9.406  18.227  0.00  0.00    +0.000 OA
ATOM     13  H   UNL     1       1.246   8.519  21.210  0.00  0.00    +0.000 HD
BRANCH  11  14
ATOM     14  C   UNL     1       0.672  10.732  20.180  0.00  0.00    +0.000 A 
ATOM     15  C   UNL     1       1.290  11.913  19.779  0.00  0.00    +0.000 A 
ATOM     16  C   UNL     1       1.139  13.075  20.529  0.00  0.00    +0.000 A 
ATOM     17  C   UNL     1       0.363  13.050  21.710  0.00  0.00    +0.000 A 
ATOM     18  C   UNL     1      -0.282  11.853  22.099  0.00  0.00    +0.000 A 
ATOM     19  C   UNL     1      -0.148  10.706  21.309  0.00  0.00    +0.000 A 
BRANCH  16  20
ATOM     20  O   UNL     1       1.743  14.261  20.176  0.00  0.00    +0.000 OA
ATOM     21  C   UNL     1       1.194  14.930  19.041  0.00  0.00    +0.000 C 
ENDBRANCH  16  20
BRANCH  17  22
ATOM     22  O   UNL     1       0.392  14.213  22.446  0.00  0.00    +0.000 OA
ATOM     23  C   UNL     1      -0.691  15.116  22.271  0.00  0.00    +0.000 C 
ENDBRANCH  17  22
BRANCH  18  24
ATOM     24  O   UNL     1      -1.031  11.847  23.246  0.00  0.00    +0.000 OA
ATOM     25  C   UNL     1      -2.438  12.022  23.096  0.00  0.00    +0.000 C 
ENDBRANCH  18  24
ENDBRANCH  11  14
ENDBRANCH   8  10
BRANCH   1  26
ATOM     26  C   UNL     1       4.850   4.242  19.182  0.00  0.00    +0.000 C 
BRANCH  26  30
ATOM     27  C   UNL     1       7.003   5.023  15.452  0.00  0.00    +0.000 A 
ATOM     28  C   UNL     1       6.074   3.988  15.511  0.00  0.00    +0.000 A 
ATOM     29  C   UNL     1       5.399   3.697  16.720  0.00  0.00    +0.000 A 
ATOM     30  C   UNL     1       5.648   4.443  17.889  0.00  0.00    +0.000 A 
ATOM     31  C   UNL     1       6.598   5.469  17.819  0.00  0.00    +0.000 A 
ATOM     32  C   UNL     1       7.267   5.749  16.616  0.00  0.00    +0.000 A 
BRANCH  27  34
ATOM     33  C   UNL     1       7.365   4.923  13.087  0.00  0.00    +0.000 C 
ATOM     34  O   UNL     1       7.728   5.426  14.366  0.00  0.00    +0.000 OA
ENDBRANCH  27  34
ENDBRANCH  26  30
ENDBRANCH   1  26
TORSDOF 8
ENDMDL
MODEL 4
REMARK VINA RESULT:      -7.2      2.633     10.745
REMARK  Name = 
REMARK  12 active torsions:
REMARK  status: ('A' for Active; 'I' for Inactive)
REMARK    1  A    between atoms: C_1  and  O_2
REMARK    2  A    between atoms: O_2  and  C_3
REMARK    3  A    between atoms: C_6  and  C_7
REMARK    4  A    between atoms: C_7  and  N_8
REMARK    5  A    between atoms: C_15  and  N_16
REMARK    6  A    between atoms: C_17  and  C_19
REMARK    7  A    between atoms: C_21  and  O_22
REMARK    8  A    between atoms: O_22  and  C_23
REMARK    9  A    between atoms: C_24  and  O_25
REMARK   10  A    between atoms: O_25  and  C_26
REMARK   11  A    between atoms: C_27  and  O_28
REMARK   12  A    between atoms: O_28  and  C_29
REMARK                            x       y       z     vdW  Elec       q    Type
REMARK                         _______ _______ _______ _____ _____    ______ ____
ROOT
ATOM      1  N   UNL     1       3.815   5.541  19.480  0.00  0.00    +0.000 NA
ATOM      2  C   UNL     1       2.843   5.219  20.533  0.00  0.00    +0.000 C 
ATOM      3  C   UNL     1       1.963   4.019  20.153  0.00  0.00    +0.000 C 
ATOM      4  C   UNL     1       1.247   4.164  18.817  0.00  0.00    +0.000 C 
ATOM      5  C   UNL     1       2.040   4.909  17.744  0.00  0.00    +0.000 C 
ATOM      6  C   UNL     1       3.108   5.906  18.242  0.00  0.00    +0.000 C 
ATOM      7  C   UNL     1       2.479   7.283  18.492  0.00  0.00    +0.000 C 
ATOM      8  C   UNL     1       1.503   7.267  19.666  0.00  0.00    +0.000 C 
ATOM      9  C   UNL     1       2.019   6.479  20.872  0.00  0.00    +0.000 C 
ENDROOT
BRANCH   8  10
ATOM     10  N   UNL     1       1.234   8.653  20.049  0.00  0.00    +0.000 N 
ATOM     11  C   UNL     1       0.264   9.008  20.951  0.00  0.00    +0.000 C 
ATOM     12  O   UNL     1      -0.519   8.235  21.490  0.00  0.00    +0.000 OA
ATOM     13  H   UNL     1       1.998   9.297  19.901  0.00  0.00    +0.000 HD
BRANCH  11  14
ATOM     14  C   UNL     1       0.249  10.458  21.273  0.00  0.00    +0.000 A 
ATOM     15  C   UNL     1      -0.652  10.948  22.213  0.00  0.00    +0.000 A 
ATOM     16  C   UNL     1      -0.740  12.315  22.456  0.00  0.00    +0.000 A 
ATOM     17  C   UNL     1       0.083  13.209  21.733  0.00  0.00    +0.000 A 
ATOM     18  C   UNL     1       1.014  12.702  20.798  0.00  0.00    +0.000 A 
ATOM     19  C   UNL     1       1.113  11.320  20.598  0.00  0.00    +0.000 A 
BRANCH  16  20
ATOM     20  O   UNL     1      -1.627  12.845  23.366  0.00  0.00    +0.000 OA
ATOM     21  C   UNL     1      -2.990  12.448  23.216  0.00  0.00    +0.000 C 
ENDBRANCH  16  20
BRANCH  17  22
ATOM     22  O   UNL     1      -0.180  14.542  21.950  0.00  0.00    +0.000 OA
ATOM     23  C   UNL     1      -1.024  15.197  21.014  0.00  0.00    +0.000 C 
ENDBRANCH  17  22
BRANCH  18  24
ATOM     24  O   UNL     1       1.806  13.582  20.108  0.00  0.00    +0.000 OA
ATOM     25  C   UNL     1       3.082  13.877  20.671  0.00  0.00    +0.000 C 
ENDBRANCH  18  24
ENDBRANCH  11  14
ENDBRANCH   8  10
BRANCH   1  26
ATOM     26  C   UNL     1       4.891   4.545  19.317  0.00  0.00    +0.000 C 
BRANCH  26  30
ATOM     27  C   UNL     1       6.983   5.143  15.519  0.00  0.00    +0.000 A 
ATOM     28  C   UNL     1       6.077   4.093  15.652  0.00  0.00    +0.000 A 
ATOM     29  C   UNL     1       5.423   3.863  16.886  0.00  0.00    +0.000 A 
ATOM     30  C   UNL     1       5.669   4.684  18.004  0.00  0.00    +0.000 A 
ATOM     31  C   UNL     1       6.596   5.723  17.860  0.00  0.00    +0.000 A 
ATOM     32  C   UNL     1       7.244   5.944  16.634  0.00  0.00    +0.000 A 
BRANCH  27  34
ATOM     33  C   UNL     1       7.355   4.867  13.170  0.00  0.00    +0.000 C 
ATOM     34  O   UNL     1       7.686   5.494  14.401  0.00  0.00    +0.000 OA
ENDBRANCH  27  34
ENDBRANCH  26  30
ENDBRANCH   1  26
TORSDOF 8
ENDMDL
MODEL 5
REMARK VINA RESULT:      -7.2      2.870     10.764
REMARK  Name = 
REMARK  12 active torsions:
REMARK  status: ('A' for Active; 'I' for Inactive)
REMARK    1  A    between atoms: C_1  and  O_2
REMARK    2  A    between atoms: O_2  and  C_3
REMARK    3  A    between atoms: C_6  and  C_7
REMARK    4  A    between atoms: C_7  and  N_8
REMARK    5  A    between atoms: C_15  and  N_16
REMARK    6  A    between atoms: C_17  and  C_19
REMARK    7  A    between atoms: C_21  and  O_22
REMARK    8  A    between atoms: O_22  and  C_23
REMARK    9  A    between atoms: C_24  and  O_25
REMARK   10  A    between atoms: O_25  and  C_26
REMARK   11  A    between atoms: C_27  and  O_28
REMARK   12  A    between atoms: O_28  and  C_29
REMARK                            x       y       z     vdW  Elec       q    Type
REMARK                         _______ _______ _______ _____ _____    ______ ____
ROOT
ATOM      1  N   UNL     1       3.878   5.191  19.081  0.00  0.00    +0.000 NA
ATOM      2  C   UNL     1       3.030   4.945  20.255  0.00  0.00    +0.000 C 
ATOM      3  C   UNL     1       2.033   3.803  20.013  0.00  0.00    +0.000 C 
ATOM      4  C   UNL     1       1.163   3.980  18.777  0.00  0.00    +0.000 C 
ATOM      5  C   UNL     1       1.859   4.659  17.597  0.00  0.00    +0.000 C 
ATOM      6  C   UNL     1       3.043   5.588  17.937  0.00  0.00    +0.000 C 
ATOM      7  C   UNL     1       2.542   7.007  18.237  0.00  0.00    +0.000 C 
ATOM      8  C   UNL     1       1.725   7.069  19.526  0.00  0.00    +0.000 C 
ATOM      9  C   UNL     1       2.339   6.260  20.672  0.00  0.00    +0.000 C 
ENDROOT
BRANCH   8  10
ATOM     10  N   UNL     1       1.597   8.473  19.914  0.00  0.00    +0.000 N 
ATOM     11  C   UNL     1       1.040   9.428  19.104  0.00  0.00    +0.000 C 
ATOM     12  O   UNL     1       0.643   9.243  17.960  0.00  0.00    +0.000 OA
ATOM     13  H   UNL     1       1.609   8.649  20.909  0.00  0.00    +0.000 HD
BRANCH  11  14
ATOM     14  C   UNL     1       0.909  10.759  19.750  0.00  0.00    +0.000 A 
ATOM     15  C   UNL     1       0.316  10.864  21.005  0.00  0.00    +0.000 A 
ATOM     16  C   UNL     1       0.103  12.113  21.579  0.00  0.00    +0.000 A 
ATOM     17  C   UNL     1       0.481  13.280  20.877  0.00  0.00    +0.000 A 
ATOM     18  C   UNL     1       1.105  13.165  19.614  0.00  0.00    +0.000 A 
ATOM     19  C   UNL     1       1.345  11.898  19.072  0.00  0.00    +0.000 A 
BRANCH  16  20
ATOM     20  O   UNL     1      -0.493  12.263  22.811  0.00  0.00    +0.000 OA
ATOM     21  C   UNL     1      -1.661  11.478  23.042  0.00  0.00    +0.000 C 
ENDBRANCH  16  20
BRANCH  17  22
ATOM     22  O   UNL     1       0.102  14.461  21.472  0.00  0.00    +0.000 OA
ATOM     23  C   UNL     1       1.113  15.204  22.140  0.00  0.00    +0.000 C 
ENDBRANCH  17  22
BRANCH  18  24
ATOM     24  O   UNL     1       1.467  14.307  18.948  0.00  0.00    +0.000 OA
ATOM     25  C   UNL     1       2.863  14.565  18.825  0.00  0.00    +0.000 C 
ENDBRANCH  18  24
ENDBRANCH  11  14
ENDBRANCH   8  10
BRANCH   1  26
ATOM     26  C   UNL     1       4.858   4.124  18.802  0.00  0.00    +0.000 C 
BRANCH  26  30
ATOM     27  C   UNL     1       7.039   4.965  15.101  0.00  0.00    +0.000 A 
ATOM     28  C   UNL     1       6.074   3.961  15.123  0.00  0.00    +0.000 A 
ATOM     29  C   UNL     1       5.389   3.651  16.321  0.00  0.00    +0.000 A 
ATOM     30  C   UNL     1       5.663   4.344  17.516  0.00  0.00    +0.000 A 
ATOM     31  C   UNL     1       6.648   5.338  17.484  0.00  0.00    +0.000 A 
ATOM     32  C   UNL     1       7.327   5.639  16.291  0.00  0.00    +0.000 A 
BRANCH  27  34
ATOM     33  C   UNL     1       7.431   4.898  12.740  0.00  0.00    +0.000 C 
ATOM     34  O   UNL     1       7.778   5.382  14.030  0.00  0.00    +0.000 OA
ENDBRANCH  27  34
ENDBRANCH  26  30
ENDBRANCH   1  26
TORSDOF 8
ENDMDL
MODEL 6
REMARK VINA RESULT:      -7.1      2.562      4.983
REMARK  Name = 
REMARK  12 active torsions:
REMARK  status: ('A' for Active; 'I' for Inactive)
REMARK    1  A    between atoms: C_1  and  O_2
REMARK    2  A    between atoms: O_2  and  C_3
REMARK    3  A    between atoms: C_6  and  C_7
REMARK    4  A    between atoms: C_7  and  N_8
REMARK    5  A    between atoms: C_15  and  N_16
REMARK    6  A    between atoms: C_17  and  C_19
REMARK    7  A    between atoms: C_21  and  O_22
REMARK    8  A    between atoms: O_22  and  C_23
REMARK    9  A    between atoms: C_24  and  O_25
REMARK   10  A    between atoms: O_25  and  C_26
REMARK   11  A    between atoms: C_27  and  O_28
REMARK   12  A    between atoms: O_28  and  C_29
REMARK                            x       y       z     vdW  Elec       q    Type
REMARK                         _______ _______ _______ _____ _____    ______ ____
ROOT
ATOM      1  N   UNL     1       0.309  12.702  19.072  0.00  0.00    +0.000 NA
ATOM      2  C   UNL     1      -0.874  11.898  18.735  0.00  0.00    +0.000 C 
ATOM      3  C   UNL     1      -2.096  12.294  19.577  0.00  0.00    +0.000 C 
ATOM      4  C   UNL     1      -1.860  12.260  21.081  0.00  0.00    +0.000 C 
ATOM      5  C   UNL     1      -0.455  12.675  21.518  0.00  0.00    +0.000 C 
ATOM      6  C   UNL     1       0.673  12.488  20.482  0.00  0.00    +0.000 C 
ATOM      7  C   UNL     1       1.250  11.069  20.570  0.00  0.00    +0.000 C 
ATOM      8  C   UNL     1       0.245  10.009  20.123  0.00  0.00    +0.000 C 
ATOM      9  C   UNL     1      -0.526  10.400  18.859  0.00  0.00    +0.000 C 
ENDROOT
BRANCH   8  10
ATOM     10  N   UNL     1       0.973   8.761  19.901  0.00  0.00    +0.000 N 
ATOM     11  C   UNL     1       1.817   8.562  18.839  0.00  0.00    +0.000 C 
ATOM     12  O   UNL     1       2.017   9.362  17.933  0.00  0.00    +0.000 OA
ATOM     13  H   UNL     1       1.108   8.187  20.723  0.00  0.00    +0.000 HD
BRANCH  11  14
ATOM     14  C   UNL     1       2.536   7.263  18.881  0.00  0.00    +0.000 A 
ATOM     15  C   UNL     1       3.433   6.935  17.869  0.00  0.00    +0.000 A 
ATOM     16  C   UNL     1       4.041   5.684  17.847  0.00  0.00    +0.000 A 
ATOM     17  C   UNL     1       3.736   4.739  18.853  0.00  0.00    +0.000 A 
ATOM     18  C   UNL     1       2.844   5.088  19.893  0.00  0.00    +0.000 A 
ATOM     19  C   UNL     1       2.273   6.365  19.916  0.00  0.00    +0.000 A 
BRANCH  16  20
ATOM     20  O   UNL     1       4.923   5.313  16.857  0.00  0.00    +0.000 OA
ATOM     21  C   UNL     1       5.202   6.299  15.864  0.00  0.00    +0.000 C 
ENDBRANCH  16  20
BRANCH  17  22
ATOM     22  O   UNL     1       4.285   3.492  18.662  0.00  0.00    +0.000 OA
ATOM     23  C   UNL     1       3.482   2.525  18.000  0.00  0.00    +0.000 C 
ENDBRANCH  17  22
BRANCH  18  24
ATOM     24  O   UNL     1       2.561   4.161  20.861  0.00  0.00    +0.000 OA
ATOM     25  C   UNL     1       1.268   3.562  20.821  0.00  0.00    +0.000 C 
ENDBRANCH  18  24
ENDBRANCH  11  14
ENDBRANCH   8  10
BRANCH   1  26
ATOM     26  C   UNL     1       0.225  14.114  18.655  0.00  0.00    +0.000 C 
BRANCH  26  30
ATOM     27  C   UNL     1       3.962  16.394  18.625  0.00  0.00    +0.000 A 
ATOM     28  C   UNL     1       3.892  15.171  17.963  0.00  0.00    +0.000 A 
ATOM     29  C   UNL     1       2.704  14.403  17.997  0.00  0.00    +0.000 A 
ATOM     30  C   UNL     1       1.567  14.853  18.697  0.00  0.00    +0.000 A 
ATOM     31  C   UNL     1       1.658  16.076  19.373  0.00  0.00    +0.000 A 
ATOM     32  C   UNL     1       2.842  16.831  19.337  0.00  0.00    +0.000 A 
BRANCH  27  34
ATOM     33  C   UNL     1       5.876  17.193  19.820  0.00  0.00    +0.000 C 
ATOM     34  O   UNL     1       5.028  17.247  18.681  0.00  0.00    +0.000 OA
ENDBRANCH  27  34
ENDBRANCH  26  30
ENDBRANCH   1  26
TORSDOF 8
ENDMDL
MODEL 7
REMARK VINA RESULT:      -7.1      2.710      5.453
REMARK  Name = 
REMARK  12 active torsions:
REMARK  status: ('A' for Active; 'I' for Inactive)
REMARK    1  A    between atoms: C_1  and  O_2
REMARK    2  A    between atoms: O_2  and  C_3
REMARK    3  A    between atoms: C_6  and  C_7
REMARK    4  A    between atoms: C_7  and  N_8
REMARK    5  A    between atoms: C_15  and  N_16
REMARK    6  A    between atoms: C_17  and  C_19
REMARK    7  A    between atoms: C_21  and  O_22
REMARK    8  A    between atoms: O_22  and  C_23
REMARK    9  A    between atoms: C_24  and  O_25
REMARK   10  A    between atoms: O_25  and  C_26
REMARK   11  A    between atoms: C_27  and  O_28
REMARK   12  A    between atoms: O_28  and  C_29
REMARK                            x       y       z     vdW  Elec       q    Type
REMARK                         _______ _______ _______ _____ _____    ______ ____
ROOT
ATOM      1  N   UNL     1       0.062  13.090  19.205  0.00  0.00    +0.000 NA
ATOM      2  C   UNL     1      -1.107  12.246  18.921  0.00  0.00    +0.000 C 
ATOM      3  C   UNL     1      -2.267  12.529  19.886  0.00  0.00    +0.000 C 
ATOM      4  C   UNL     1      -1.899  12.421  21.359  0.00  0.00    +0.000 C 
ATOM      5  C   UNL     1      -0.483  12.882  21.701  0.00  0.00    +0.000 C 
ATOM      6  C   UNL     1       0.558  12.814  20.563  0.00  0.00    +0.000 C 
ATOM      7  C   UNL     1       1.206  11.425  20.513  0.00  0.00    +0.000 C 
ATOM      8  C   UNL     1       0.217  10.341  20.089  0.00  0.00    +0.000 C 
ATOM      9  C   UNL     1      -0.680  10.764  18.921  0.00  0.00    +0.000 C 
ENDROOT
BRANCH   8  10
ATOM     10  N   UNL     1       0.980   9.147  19.729  0.00  0.00    +0.000 N 
ATOM     11  C   UNL     1       1.347   8.188  20.638  0.00  0.00    +0.000 C 
ATOM     12  O   UNL     1       1.138   8.238  21.844  0.00  0.00    +0.000 OA
ATOM     13  H   UNL     1       0.928   8.878  18.757  0.00  0.00    +0.000 HD
BRANCH  11  14
ATOM     14  C   UNL     1       2.014   7.009  20.028  0.00  0.00    +0.000 A 
ATOM     15  C   UNL     1       1.994   5.785  20.689  0.00  0.00    +0.000 A 
ATOM     16  C   UNL     1       2.694   4.698  20.174  0.00  0.00    +0.000 A 
ATOM     17  C   UNL     1       3.437   4.845  18.981  0.00  0.00    +0.000 A 
ATOM     18  C   UNL     1       3.433   6.085  18.302  0.00  0.00    +0.000 A 
ATOM     19  C   UNL     1       2.690   7.154  18.817  0.00  0.00    +0.000 A 
BRANCH  16  20
ATOM     20  O   UNL     1       2.713   3.472  20.802  0.00  0.00    +0.000 OA
ATOM     21  C   UNL     1       1.444   2.851  21.002  0.00  0.00    +0.000 C 
ENDBRANCH  16  20
BRANCH  17  22
ATOM     22  O   UNL     1       4.199   3.752  18.636  0.00  0.00    +0.000 OA
ATOM     23  C   UNL     1       3.655   2.862  17.671  0.00  0.00    +0.000 C 
ENDBRANCH  17  22
BRANCH  18  24
ATOM     24  O   UNL     1       4.157   6.210  17.146  0.00  0.00    +0.000 OA
ATOM     25  C   UNL     1       5.472   6.746  17.265  0.00  0.00    +0.000 C 
ENDBRANCH  18  24
ENDBRANCH  11  14
ENDBRANCH   8  10
BRANCH   1  26
ATOM     26  C   UNL     1      -0.124  14.517  18.884  0.00  0.00    +0.000 C 
BRANCH  26  30
ATOM     27  C   UNL     1       3.713  16.624  18.855  0.00  0.00    +0.000 A 
ATOM     28  C   UNL     1       2.626  17.175  19.530  0.00  0.00    +0.000 A 
ATOM     29  C   UNL     1       1.369  16.526  19.515  0.00  0.00    +0.000 A 
ATOM     30  C   UNL     1       1.184  15.314  18.822  0.00  0.00    +0.000 A 
ATOM     31  C   UNL     1       2.281  14.781  18.133  0.00  0.00    +0.000 A 
ATOM     32  C   UNL     1       3.525  15.433  18.149  0.00  0.00    +0.000 A 
BRANCH  27  34
ATOM     33  C   UNL     1       5.590  17.607  19.970  0.00  0.00    +0.000 C 
ATOM     34  O   UNL     1       4.982  17.125  18.780  0.00  0.00    +0.000 OA
ENDBRANCH  27  34
ENDBRANCH  26  30
ENDBRANCH   1  26
TORSDOF 8
ENDMDL
MODEL 8
REMARK VINA RESULT:      -7.1      2.696      5.084
REMARK  Name = 
REMARK  12 active torsions:
REMARK  status: ('A' for Active; 'I' for Inactive)
REMARK    1  A    between atoms: C_1  and  O_2
REMARK    2  A    between atoms: O_2  and  C_3
REMARK    3  A    between atoms: C_6  and  C_7
REMARK    4  A    between atoms: C_7  and  N_8
REMARK    5  A    between atoms: C_15  and  N_16
REMARK    6  A    between atoms: C_17  and  C_19
REMARK    7  A    between atoms: C_21  and  O_22
REMARK    8  A    between atoms: O_22  and  C_23
REMARK    9  A    between atoms: C_24  and  O_25
REMARK   10  A    between atoms: O_25  and  C_26
REMARK   11  A    between atoms: C_27  and  O_28
REMARK   12  A    between atoms: O_28  and  C_29
REMARK                            x       y       z     vdW  Elec       q    Type
REMARK                         _______ _______ _______ _____ _____    ______ ____
ROOT
ATOM      1  N   UNL     1       0.033  13.063  19.172  0.00  0.00    +0.000 NA
ATOM      2  C   UNL     1      -1.106  12.199  18.833  0.00  0.00    +0.000 C 
ATOM      3  C   UNL     1      -2.312  12.455  19.748  0.00  0.00    +0.000 C 
ATOM      4  C   UNL     1      -2.007  12.345  21.235  0.00  0.00    +0.000 C 
ATOM      5  C   UNL     1      -0.616  12.832  21.641  0.00  0.00    +0.000 C 
ATOM      6  C   UNL     1       0.474  12.789  20.550  0.00  0.00    +0.000 C 
ATOM      7  C   UNL     1       1.150  11.412  20.522  0.00  0.00    +0.000 C 
ATOM      8  C   UNL     1       0.201  10.313  20.049  0.00  0.00    +0.000 C 
ATOM      9  C   UNL     1      -0.651  10.725  18.846  0.00  0.00    +0.000 C 
ENDROOT
BRANCH   8  10
ATOM     10  N   UNL     1       1.002   9.135  19.718  0.00  0.00    +0.000 N 
ATOM     11  C   UNL     1       1.392   8.206  20.648  0.00  0.00    +0.000 C 
ATOM     12  O   UNL     1       1.174   8.274  21.852  0.00  0.00    +0.000 OA
ATOM     13  H   UNL     1       0.964   8.845  18.751  0.00  0.00    +0.000 HD
BRANCH  11  14
ATOM     14  C   UNL     1       2.097   7.036  20.066  0.00  0.00    +0.000 A 
ATOM     15  C   UNL     1       2.742   7.157  18.838  0.00  0.00    +0.000 A 
ATOM     16  C   UNL     1       3.325   6.045  18.239  0.00  0.00    +0.000 A 
ATOM     17  C   UNL     1       3.250   4.786  18.876  0.00  0.00    +0.000 A 
ATOM     18  C   UNL     1       2.616   4.675  20.135  0.00  0.00    +0.000 A 
ATOM     19  C   UNL     1       2.070   5.813  20.738  0.00  0.00    +0.000 A 
BRANCH  16  20
ATOM     20  O   UNL     1       3.960   6.116  17.019  0.00  0.00    +0.000 OA
ATOM     21  C   UNL     1       5.227   6.774  17.010  0.00  0.00    +0.000 C 
ENDBRANCH  16  20
BRANCH  17  22
ATOM     22  O   UNL     1       3.737   3.733  18.136  0.00  0.00    +0.000 OA
ATOM     23  C   UNL     1       2.792   2.955  17.414  0.00  0.00    +0.000 C 
ENDBRANCH  17  22
BRANCH  18  24
ATOM     24  O   UNL     1       2.554   3.447  20.739  0.00  0.00    +0.000 OA
ATOM     25  C   UNL     1       1.255   2.939  21.034  0.00  0.00    +0.000 C 
ENDBRANCH  18  24
ENDBRANCH  11  14
ENDBRANCH   8  10
BRANCH   1  26
ATOM     26  C   UNL     1      -0.166  14.488  18.850  0.00  0.00    +0.000 C 
BRANCH  26  30
ATOM     27  C   UNL     1       3.642  16.648  18.796  0.00  0.00    +0.000 A 
ATOM     28  C   UNL     1       2.491  17.285  19.255  0.00  0.00    +0.000 A 
ATOM     29  C   UNL     1       1.246  16.614  19.241  0.00  0.00    +0.000 A 
ATOM     30  C   UNL     1       1.137  15.292  18.766  0.00  0.00    +0.000 A 
ATOM     31  C   UNL     1       2.298  14.671  18.291  0.00  0.00    +0.000 A 
ATOM     32  C   UNL     1       3.531  15.345  18.304  0.00  0.00    +0.000 A 
BRANCH  27  34
ATOM     33  C   UNL     1       5.938  16.475  19.451  0.00  0.00    +0.000 C 
ATOM     34  O   UNL     1       4.909  17.158  18.749  0.00  0.00    +0.000 OA
ENDBRANCH  27  34
ENDBRANCH  26  30
ENDBRANCH   1  26
TORSDOF 8
ENDMDL
MODEL 9
REMARK VINA RESULT:      -7.0      1.071      1.373
REMARK  Name = 
REMARK  12 active torsions:
REMARK  status: ('A' for Active; 'I' for Inactive)
REMARK    1  A    between atoms: C_1  and  O_2
REMARK    2  A    between atoms: O_2  and  C_3
REMARK    3  A    between atoms: C_6  and  C_7
REMARK    4  A    between atoms: C_7  and  N_8
REMARK    5  A    between atoms: C_15  and  N_16
REMARK    6  A    between atoms: C_17  and  C_19
REMARK    7  A    between atoms: C_21  and  O_22
REMARK    8  A    between atoms: O_22  and  C_23
REMARK    9  A    between atoms: C_24  and  O_25
REMARK   10  A    between atoms: O_25  and  C_26
REMARK   11  A    between atoms: C_27  and  O_28
REMARK   12  A    between atoms: O_28  and  C_29
REMARK                            x       y       z     vdW  Elec       q    Type
REMARK                         _______ _______ _______ _____ _____    ______ ____
ROOT
ATOM      1  N   UNL     1       0.299  12.193  20.636  0.00  0.00    +0.000 NA
ATOM      2  C   UNL     1       1.183  12.553  19.520  0.00  0.00    +0.000 C 
ATOM      3  C   UNL     1       0.464  13.419  18.474  0.00  0.00    +0.000 C 
ATOM      4  C   UNL     1      -0.824  12.813  17.936  0.00  0.00    +0.000 C 
ATOM      5  C   UNL     1      -1.630  12.010  18.958  0.00  0.00    +0.000 C 
ATOM      6  C   UNL     1      -0.839  11.404  20.136  0.00  0.00    +0.000 C 
ATOM      7  C   UNL     1      -0.278  10.029  19.753  0.00  0.00    +0.000 C 
ATOM      8  C   UNL     1       0.802  10.126  18.678  0.00  0.00    +0.000 C 
ATOM      9  C   UNL     1       1.791  11.271  18.914  0.00  0.00    +0.000 C 
ENDROOT
BRANCH   8  10
ATOM     10  N   UNL     1       1.513   8.849  18.634  0.00  0.00    +0.000 N 
ATOM     11  C   UNL     1       1.809   8.115  19.754  0.00  0.00    +0.000 C 
ATOM     12  O   UNL     1       1.574   8.456  20.907  0.00  0.00    +0.000 OA
ATOM     13  H   UNL     1       1.471   8.361  17.750  0.00  0.00    +0.000 HD
BRANCH  11  14
ATOM     14  C   UNL     1       2.431   6.799  19.460  0.00  0.00    +0.000 A 
ATOM     15  C   UNL     1       3.081   6.596  18.247  0.00  0.00    +0.000 A 
ATOM     16  C   UNL     1       3.585   5.341  17.921  0.00  0.00    +0.000 A 
ATOM     17  C   UNL     1       3.423   4.265  18.823  0.00  0.00    +0.000 A 
ATOM     18  C   UNL     1       2.783   4.484  20.065  0.00  0.00    +0.000 A 
ATOM     19  C   UNL     1       2.319   5.764  20.389  0.00  0.00    +0.000 A 
BRANCH  16  20
ATOM     20  O   UNL     1       4.223   5.092  16.726  0.00  0.00    +0.000 OA
ATOM     21  C   UNL     1       5.530   5.648  16.587  0.00  0.00    +0.000 C 
ENDBRANCH  16  20
BRANCH  17  22
ATOM     22  O   UNL     1       3.835   3.042  18.346  0.00  0.00    +0.000 OA
ATOM     23  C   UNL     1       2.836   2.188  17.805  0.00  0.00    +0.000 C 
ENDBRANCH  17  22
BRANCH  18  24
ATOM     24  O   UNL     1       2.636   3.431  20.929  0.00  0.00    +0.000 OA
ATOM     25  C   UNL     1       1.309   2.965  21.156  0.00  0.00    +0.000 C 
ENDBRANCH  18  24
ENDBRANCH  11  14
ENDBRANCH   8  10
BRANCH   1  26
ATOM     26  C   UNL     1      -0.059  13.319  21.518  0.00  0.00    +0.000 C 
BRANCH  26  30
ATOM     27  C   UNL     1      -4.083  12.777  23.155  0.00  0.00    +0.000 A 
ATOM     28  C   UNL     1      -3.846  13.782  22.220  0.00  0.00    +0.000 A 
ATOM     29  C   UNL     1      -2.543  13.995  21.712  0.00  0.00    +0.000 A 
ATOM     30  C   UNL     1      -1.458  13.203  22.135  0.00  0.00    +0.000 A 
ATOM     31  C   UNL     1      -1.708  12.209  23.089  0.00  0.00    +0.000 A 
ATOM     32  C   UNL     1      -3.003  12.005  23.591  0.00  0.00    +0.000 A 
BRANCH  27  34
ATOM     33  C   UNL     1      -6.299  13.432  23.781  0.00  0.00    +0.000 C 
ATOM     34  O   UNL     1      -5.277  12.446  23.732  0.00  0.00    +0.000 OA
ENDBRANCH  27  34
ENDBRANCH  26  30
ENDBRANCH   1  26
TORSDOF 8
ENDMDL
