MODEL 1
REMARK VINA RESULT:      -7.8      0.000      0.000
REMARK  Name = 
REMARK  5 active torsions:
REMARK  status: ('A' for Active; 'I' for Inactive)
REMARK    1  A    between atoms: C_2  and  C_3
REMARK    2  A    between atoms: C_2  and  O_15
REMARK    3  A    between atoms: C_4  and  C_5
REMARK    4  A    between atoms: C_10  and  C_11
REMARK    5  A    between atoms: O_15  and  C_16
REMARK                            x       y       z     vdW  Elec       q    Type
REMARK                         _______ _______ _______ _____ _____    ______ ____
ROOT
ATOM      1  C   UNL     1       4.526   3.654  16.461  0.00  0.00    +0.000 C 
ATOM      2  C   UNL     1       3.674   4.489  17.078  0.00  0.00    +0.000 C 
ENDROOT
BRANCH   2   3
ATOM      3  C   UNL     1       2.701   4.016  18.072  0.00  0.00    +0.000 A 
ATOM      4  C   UNL     1       2.231   2.698  17.939  0.00  0.00    +0.000 A 
ATOM      5  C   UNL     1       1.284   2.179  18.824  0.00  0.00    +0.000 A 
ATOM      6  C   UNL     1       0.794   2.969  19.856  0.00  0.00    +0.000 A 
ATOM      7  C   UNL     1       1.257   4.276  20.004  0.00  0.00    +0.000 A 
ATOM      8  C   UNL     1       2.216   4.819  19.120  0.00  0.00    +0.000 A 
BRANCH   8   9
ATOM      9  C   UNL     1       2.639   6.249  19.365  0.00  0.00    +0.000 C 
ATOM     10  F   UNL     1       3.972   6.451  19.546  0.00  0.00    +0.000 F 
ATOM     11  F   UNL     1       2.284   7.067  18.333  0.00  0.00    +0.000 F 
ATOM     12  F   UNL     1       2.038   6.776  20.471  0.00  0.00    +0.000 F 
ENDBRANCH   8   9
ENDBRANCH   2   3
BRANCH   1  14
ATOM     13  O   UNL     1       5.233   4.373  14.323  0.00  0.00    +0.000 OA
ATOM     14  C   UNL     1       5.545   4.063  15.463  0.00  0.00    +0.000 C 
BRANCH  14  15
ATOM     15  O   UNL     1       6.816   4.057  16.018  0.00  0.00    +0.000 OA
BRANCH  15  16
ATOM     16  C   UNL     1       7.258   5.006  16.969  0.00  0.00    +0.000 A 
ATOM     17  C   UNL     1       7.159   6.341  16.571  0.00  0.00    +0.000 A 
ATOM     18  C   UNL     1       7.516   7.359  17.456  0.00  0.00    +0.000 A 
ATOM     19  C   UNL     1       7.959   7.041  18.739  0.00  0.00    +0.000 A 
ATOM     20  C   UNL     1       8.046   5.705  19.136  0.00  0.00    +0.000 A 
ATOM     21  C   UNL     1       7.690   4.682  18.252  0.00  0.00    +0.000 A 
ENDBRANCH  15  16
ENDBRANCH  14  15
ENDBRANCH   1  14
TORSDOF 5
ENDMDL
MODEL 2
REMARK VINA RESULT:      -7.8      0.654      1.086
REMARK  Name = 
REMARK  5 active torsions:
REMARK  status: ('A' for Active; 'I' for Inactive)
REMARK    1  A    between atoms: C_2  and  C_3
REMARK    2  A    between atoms: C_2  and  O_15
REMARK    3  A    between atoms: C_4  and  C_5
REMARK    4  A    between atoms: C_10  and  C_11
REMARK    5  A    between atoms: O_15  and  C_16
REMARK                            x       y       z     vdW  Elec       q    Type
REMARK                         _______ _______ _______ _____ _____    ______ ____
ROOT
ATOM      1  C   UNL     1       4.389   4.103  16.232  0.00  0.00    +0.000 C 
ATOM      2  C   UNL     1       4.335   3.455  17.407  0.00  0.00    +0.000 C 
ENDROOT
BRANCH   2   3
ATOM      3  C   UNL     1       3.119   3.431  18.230  0.00  0.00    +0.000 A 
ATOM      4  C   UNL     1       2.310   2.284  18.155  0.00  0.00    +0.000 A 
ATOM      5  C   UNL     1       1.122   2.193  18.883  0.00  0.00    +0.000 A 
ATOM      6  C   UNL     1       0.726   3.245  19.698  0.00  0.00    +0.000 A 
ATOM      7  C   UNL     1       1.522   4.386  19.788  0.00  0.00    +0.000 A 
ATOM      8  C   UNL     1       2.728   4.498  19.061  0.00  0.00    +0.000 A 
BRANCH   8   9
ATOM      9  C   UNL     1       3.508   5.783  19.222  0.00  0.00    +0.000 C 
ATOM     10  F   UNL     1       2.969   6.702  20.068  0.00  0.00    +0.000 F 
ATOM     11  F   UNL     1       4.770   5.556  19.687  0.00  0.00    +0.000 F 
ATOM     12  F   UNL     1       3.669   6.433  18.033  0.00  0.00    +0.000 F 
ENDBRANCH   8   9
ENDBRANCH   2   3
BRANCH   1  14
ATOM     13  O   UNL     1       5.460   4.313  14.135  0.00  0.00    +0.000 OA
ATOM     14  C   UNL     1       5.575   4.154  15.342  0.00  0.00    +0.000 C 
BRANCH  14  15
ATOM     15  O   UNL     1       6.750   4.022  16.068  0.00  0.00    +0.000 OA
BRANCH  15  16
ATOM     16  C   UNL     1       7.218   4.998  16.978  0.00  0.00    +0.000 A 
ATOM     17  C   UNL     1       7.111   6.321  16.544  0.00  0.00    +0.000 A 
ATOM     18  C   UNL     1       7.494   7.363  17.389  0.00  0.00    +0.000 A 
ATOM     19  C   UNL     1       7.970   7.082  18.668  0.00  0.00    +0.000 A 
ATOM     20  C   UNL     1       8.065   5.758  19.102  0.00  0.00    +0.000 A 
ATOM     21  C   UNL     1       7.684   4.710  18.259  0.00  0.00    +0.000 A 
ENDBRANCH  15  16
ENDBRANCH  14  15
ENDBRANCH   1  14
TORSDOF 5
ENDMDL
MODEL 3
REMARK VINA RESULT:      -7.8      0.149      1.337
REMARK  Name = 
REMARK  5 active torsions:
REMARK  status: ('A' for Active; 'I' for Inactive)
REMARK    1  A    between atoms: C_2  and  C_3
REMARK    2  A    between atoms: C_2  and  O_15
REMARK    3  A    between atoms: C_4  and  C_5
REMARK    4  A    between atoms: C_10  and  C_11
REMARK    5  A    between atoms: O_15  and  C_16
REMARK                            x       y       z     vdW  Elec       q    Type
REMARK                         _______ _______ _______ _____ _____    ______ ____
ROOT
ATOM      1  C   UNL     1       4.616   3.630  16.558  0.00  0.00    +0.000 C 
ATOM      2  C   UNL     1       3.602   4.407  16.971  0.00  0.00    +0.000 C 
ENDROOT
BRANCH   2   3
ATOM      3  C   UNL     1       2.659   3.972  18.009  0.00  0.00    +0.000 A 
ATOM      4  C   UNL     1       2.168   2.658  17.927  0.00  0.00    +0.000 A 
ATOM      5  C   UNL     1       1.246   2.174  18.857  0.00  0.00    +0.000 A 
ATOM      6  C   UNL     1       0.802   2.996  19.885  0.00  0.00    +0.000 A 
ATOM      7  C   UNL     1       1.286   4.300  19.984  0.00  0.00    +0.000 A 
ATOM      8  C   UNL     1       2.220   4.808  19.053  0.00  0.00    +0.000 A 
BRANCH   8   9
ATOM      9  C   UNL     1       2.669   6.238  19.246  0.00  0.00    +0.000 C 
ATOM     10  F   UNL     1       2.198   6.864  20.359  0.00  0.00    +0.000 F 
ATOM     11  F   UNL     1       4.027   6.339  19.319  0.00  0.00    +0.000 F 
ATOM     12  F   UNL     1       2.301   7.033  18.199  0.00  0.00    +0.000 F 
ENDBRANCH   8   9
ENDBRANCH   2   3
BRANCH   1  14
ATOM     13  O   UNL     1       5.296   4.181  14.362  0.00  0.00    +0.000 OA
ATOM     14  C   UNL     1       5.615   4.011  15.529  0.00  0.00    +0.000 C 
BRANCH  14  15
ATOM     15  O   UNL     1       6.877   4.156  16.089  0.00  0.00    +0.000 OA
BRANCH  15  16
ATOM     16  C   UNL     1       7.224   5.203  16.973  0.00  0.00    +0.000 A 
ATOM     17  C   UNL     1       7.676   4.797  18.231  0.00  0.00    +0.000 A 
ATOM     18  C   UNL     1       8.097   5.750  19.159  0.00  0.00    +0.000 A 
ATOM     19  C   UNL     1       8.076   7.104  18.825  0.00  0.00    +0.000 A 
ATOM     20  C   UNL     1       7.633   7.503  17.562  0.00  0.00    +0.000 A 
ATOM     21  C   UNL     1       7.209   6.552  16.629  0.00  0.00    +0.000 A 
ENDBRANCH  15  16
ENDBRANCH  14  15
ENDBRANCH   1  14
TORSDOF 5
ENDMDL
MODEL 4
REMARK VINA RESULT:      -7.8      2.123      3.471
REMARK  Name = 
REMARK  5 active torsions:
REMARK  status: ('A' for Active; 'I' for Inactive)
REMARK    1  A    between atoms: C_2  and  C_3
REMARK    2  A    between atoms: C_2  and  O_15
REMARK    3  A    between atoms: C_4  and  C_5
REMARK    4  A    between atoms: C_10  and  C_11
REMARK    5  A    between atoms: O_15  and  C_16
REMARK                            x       y       z     vdW  Elec       q    Type
REMARK                         _______ _______ _______ _____ _____    ______ ____
ROOT
ATOM      1  C   UNL     1       5.261   5.142  19.652  0.00  0.00    +0.000 C 
ATOM      2  C   UNL     1       4.730   3.923  19.466  0.00  0.00    +0.000 C 
ENDROOT
BRANCH   2   3
ATOM      3  C   UNL     1       3.357   3.600  19.874  0.00  0.00    +0.000 A 
ATOM      4  C   UNL     1       3.184   2.977  21.122  0.00  0.00    +0.000 A 
ATOM      5  C   UNL     1       1.915   2.610  21.574  0.00  0.00    +0.000 A 
ATOM      6  C   UNL     1       0.799   2.862  20.785  0.00  0.00    +0.000 A 
ATOM      7  C   UNL     1       0.955   3.486  19.549  0.00  0.00    +0.000 A 
ATOM      8  C   UNL     1       2.230   3.866  19.074  0.00  0.00    +0.000 A 
BRANCH   8   9
ATOM      9  C   UNL     1       2.287   4.525  17.715  0.00  0.00    +0.000 C 
ATOM     10  F   UNL     1       1.104   4.611  17.048  0.00  0.00    +0.000 F 
ATOM     11  F   UNL     1       2.758   5.803  17.789  0.00  0.00    +0.000 F 
ATOM     12  F   UNL     1       3.135   3.872  16.868  0.00  0.00    +0.000 F 
ENDBRANCH   8   9
ENDBRANCH   2   3
BRANCH   1  14
ATOM     13  O   UNL     1       7.610   5.230  19.911  0.00  0.00    +0.000 OA
ATOM     14  C   UNL     1       6.631   5.544  19.248  0.00  0.00    +0.000 C 
BRANCH  14  15
ATOM     15  O   UNL     1       6.611   6.263  18.062  0.00  0.00    +0.000 OA
BRANCH  15  16
ATOM     16  C   UNL     1       6.319   5.686  16.804  0.00  0.00    +0.000 A 
ATOM     17  C   UNL     1       6.988   4.493  16.524  0.00  0.00    +0.000 A 
ATOM     18  C   UNL     1       6.728   3.814  15.333  0.00  0.00    +0.000 A 
ATOM     19  C   UNL     1       5.794   4.321  14.432  0.00  0.00    +0.000 A 
ATOM     20  C   UNL     1       5.119   5.509  14.722  0.00  0.00    +0.000 A 
ATOM     21  C   UNL     1       5.376   6.194  15.913  0.00  0.00    +0.000 A 
ENDBRANCH  15  16
ENDBRANCH  14  15
ENDBRANCH   1  14
TORSDOF 5
ENDMDL
MODEL 5
REMARK VINA RESULT:      -7.7      2.653      4.183
REMARK  Name = 
REMARK  5 active torsions:
REMARK  status: ('A' for Active; 'I' for Inactive)
REMARK    1  A    between atoms: C_2  and  C_3
REMARK    2  A    between atoms: C_2  and  O_15
REMARK    3  A    between atoms: C_4  and  C_5
REMARK    4  A    between atoms: C_10  and  C_11
REMARK    5  A    between atoms: O_15  and  C_16
REMARK                            x       y       z     vdW  Elec       q    Type
REMARK                         _______ _______ _______ _____ _____    ______ ____
ROOT
ATOM      1  C   UNL     1       5.907   5.130  17.737  0.00  0.00    +0.000 C 
ATOM      2  C   UNL     1       4.848   4.307  17.805  0.00  0.00    +0.000 C 
ENDROOT
BRANCH   2   3
ATOM      3  C   UNL     1       3.703   4.580  18.683  0.00  0.00    +0.000 A 
ATOM      4  C   UNL     1       3.528   5.903  19.124  0.00  0.00    +0.000 A 
ATOM      5  C   UNL     1       2.481   6.242  19.984  0.00  0.00    +0.000 A 
ATOM      6  C   UNL     1       1.593   5.265  20.415  0.00  0.00    +0.000 A 
ATOM      7  C   UNL     1       1.750   3.950  19.979  0.00  0.00    +0.000 A 
ATOM      8  C   UNL     1       2.801   3.586  19.108  0.00  0.00    +0.000 A 
BRANCH   8   9
ATOM      9  C   UNL     1       2.886   2.131  18.707  0.00  0.00    +0.000 C 
ATOM     10  F   UNL     1       2.863   1.881  17.370  0.00  0.00    +0.000 F 
ATOM     11  F   UNL     1       4.026   1.543  19.169  0.00  0.00    +0.000 F 
ATOM     12  F   UNL     1       1.860   1.399  19.231  0.00  0.00    +0.000 F 
ENDBRANCH   8   9
ENDBRANCH   2   3
BRANCH   1  14
ATOM     13  O   UNL     1       8.027   4.229  17.209  0.00  0.00    +0.000 OA
ATOM     14  C   UNL     1       7.087   4.928  16.861  0.00  0.00    +0.000 C 
BRANCH  14  15
ATOM     15  O   UNL     1       6.935   5.600  15.657  0.00  0.00    +0.000 OA
BRANCH  15  16
ATOM     16  C   UNL     1       6.700   4.949  14.423  0.00  0.00    +0.000 A 
ATOM     17  C   UNL     1       7.673   5.158  13.443  0.00  0.00    +0.000 A 
ATOM     18  C   UNL     1       7.565   4.516  12.209  0.00  0.00    +0.000 A 
ATOM     19  C   UNL     1       6.493   3.660  11.962  0.00  0.00    +0.000 A 
ATOM     20  C   UNL     1       5.528   3.446  12.949  0.00  0.00    +0.000 A 
ATOM     21  C   UNL     1       5.632   4.088  14.187  0.00  0.00    +0.000 A 
ENDBRANCH  15  16
ENDBRANCH  14  15
ENDBRANCH   1  14
TORSDOF 5
ENDMDL
MODEL 6
REMARK VINA RESULT:      -7.6      2.112      3.351
REMARK  Name = 
REMARK  5 active torsions:
REMARK  status: ('A' for Active; 'I' for Inactive)
REMARK    1  A    between atoms: C_2  and  C_3
REMARK    2  A    between atoms: C_2  and  O_15
REMARK    3  A    between atoms: C_4  and  C_5
REMARK    4  A    between atoms: C_10  and  C_11
REMARK    5  A    between atoms: O_15  and  C_16
REMARK                            x       y       z     vdW  Elec       q    Type
REMARK                         _______ _______ _______ _____ _____    ______ ____
ROOT
ATOM      1  C   UNL     1       5.373   5.110  19.634  0.00  0.00    +0.000 C 
ATOM      2  C   UNL     1       4.786   3.932  19.368  0.00  0.00    +0.000 C 
ENDROOT
BRANCH   2   3
ATOM      3  C   UNL     1       3.428   3.615  19.828  0.00  0.00    +0.000 A 
ATOM      4  C   UNL     1       3.300   2.979  21.075  0.00  0.00    +0.000 A 
ATOM      5  C   UNL     1       2.047   2.617  21.573  0.00  0.00    +0.000 A 
ATOM      6  C   UNL     1       0.903   2.888  20.834  0.00  0.00    +0.000 A 
ATOM      7  C   UNL     1       1.014   3.526  19.600  0.00  0.00    +0.000 A 
ATOM      8  C   UNL     1       2.272   3.901  19.078  0.00  0.00    +0.000 A 
BRANCH   8   9
ATOM      9  C   UNL     1       2.279   4.575  17.726  0.00  0.00    +0.000 C 
ATOM     10  F   UNL     1       1.075   4.654  17.096  0.00  0.00    +0.000 F 
ATOM     11  F   UNL     1       2.735   5.858  17.800  0.00  0.00    +0.000 F 
ATOM     12  F   UNL     1       3.109   3.944  16.846  0.00  0.00    +0.000 F 
ENDBRANCH   8   9
ENDBRANCH   2   3
BRANCH   1  14
ATOM     13  O   UNL     1       7.724   5.235  19.847  0.00  0.00    +0.000 OA
ATOM     14  C   UNL     1       6.731   5.504  19.186  0.00  0.00    +0.000 C 
BRANCH  14  15
ATOM     15  O   UNL     1       6.683   6.160  17.965  0.00  0.00    +0.000 OA
BRANCH  15  16
ATOM     16  C   UNL     1       6.342   5.523  16.749  0.00  0.00    +0.000 A 
ATOM     17  C   UNL     1       5.423   6.209  15.952  0.00  0.00    +0.000 A 
ATOM     18  C   UNL     1       5.063   5.694  14.706  0.00  0.00    +0.000 A 
ATOM     19  C   UNL     1       5.629   4.502  14.256  0.00  0.00    +0.000 A 
ATOM     20  C   UNL     1       6.556   3.826  15.052  0.00  0.00    +0.000 A 
ATOM     21  C   UNL     1       6.919   4.337  16.301  0.00  0.00    +0.000 A 
ENDBRANCH  15  16
ENDBRANCH  14  15
ENDBRANCH   1  14
TORSDOF 5
ENDMDL
MODEL 7
REMARK VINA RESULT:      -7.6      2.635      3.848
REMARK  Name = 
REMARK  5 active torsions:
REMARK  status: ('A' for Active; 'I' for Inactive)
REMARK    1  A    between atoms: C_2  and  C_3
REMARK    2  A    between atoms: C_2  and  O_15
REMARK    3  A    between atoms: C_4  and  C_5
REMARK    4  A    between atoms: C_10  and  C_11
REMARK    5  A    between atoms: O_15  and  C_16
REMARK                            x       y       z     vdW  Elec       q    Type
REMARK                         _______ _______ _______ _____ _____    ______ ____
ROOT
ATOM      1  C   UNL     1       5.536   5.367  19.491  0.00  0.00    +0.000 C 
ATOM      2  C   UNL     1       4.929   4.169  19.475  0.00  0.00    +0.000 C 
ENDROOT
BRANCH   2   3
ATOM      3  C   UNL     1       3.474   4.031  19.607  0.00  0.00    +0.000 A 
ATOM      4  C   UNL     1       2.825   4.870  20.530  0.00  0.00    +0.000 A 
ATOM      5  C   UNL     1       1.448   4.783  20.737  0.00  0.00    +0.000 A 
ATOM      6  C   UNL     1       0.696   3.858  20.024  0.00  0.00    +0.000 A 
ATOM      7  C   UNL     1       1.324   3.025  19.100  0.00  0.00    +0.000 A 
ATOM      8  C   UNL     1       2.717   3.097  18.875  0.00  0.00    +0.000 A 
BRANCH   8   9
ATOM      9  C   UNL     1       3.297   2.139  17.860  0.00  0.00    +0.000 C 
ATOM     10  F   UNL     1       4.272   2.644  17.057  0.00  0.00    +0.000 F 
ATOM     11  F   UNL     1       3.846   1.041  18.453  0.00  0.00    +0.000 F 
ATOM     12  F   UNL     1       2.342   1.656  17.012  0.00  0.00    +0.000 F 
ENDBRANCH   8   9
ENDBRANCH   2   3
BRANCH   1  14
ATOM     13  O   UNL     1       7.773   5.333  20.255  0.00  0.00    +0.000 OA
ATOM     14  C   UNL     1       6.997   5.583  19.344  0.00  0.00    +0.000 C 
BRANCH  14  15
ATOM     15  O   UNL     1       7.306   6.058  18.078  0.00  0.00    +0.000 OA
BRANCH  15  16
ATOM     16  C   UNL     1       6.741   5.540  16.890  0.00  0.00    +0.000 A 
ATOM     17  C   UNL     1       5.745   6.328  16.309  0.00  0.00    +0.000 A 
ATOM     18  C   UNL     1       5.162   5.935  15.104  0.00  0.00    +0.000 A 
ATOM     19  C   UNL     1       5.583   4.763  14.477  0.00  0.00    +0.000 A 
ATOM     20  C   UNL     1       6.587   3.984  15.056  0.00  0.00    +0.000 A 
ATOM     21  C   UNL     1       7.174   4.374  16.264  0.00  0.00    +0.000 A 
ENDBRANCH  15  16
ENDBRANCH  14  15
ENDBRANCH   1  14
TORSDOF 5
ENDMDL
MODEL 8
REMARK VINA RESULT:      -7.5      1.716      3.191
REMARK  Name = 
REMARK  5 active torsions:
REMARK  status: ('A' for Active; 'I' for Inactive)
REMARK    1  A    between atoms: C_2  and  C_3
REMARK    2  A    between atoms: C_2  and  O_15
REMARK    3  A    between atoms: C_4  and  C_5
REMARK    4  A    between atoms: C_10  and  C_11
REMARK    5  A    between atoms: O_15  and  C_16
REMARK                            x       y       z     vdW  Elec       q    Type
REMARK                         _______ _______ _______ _____ _____    ______ ____
ROOT
ATOM      1  C   UNL     1       5.417   4.169  17.658  0.00  0.00    +0.000 C 
ATOM      2  C   UNL     1       4.146   4.337  17.259  0.00  0.00    +0.000 C 
ENDROOT
BRANCH   2   3
ATOM      3  C   UNL     1       3.008   3.864  18.057  0.00  0.00    +0.000 A 
ATOM      4  C   UNL     1       2.605   2.529  17.879  0.00  0.00    +0.000 A 
ATOM      5  C   UNL     1       1.514   2.007  18.578  0.00  0.00    +0.000 A 
ATOM      6  C   UNL     1       0.812   2.811  19.467  0.00  0.00    +0.000 A 
ATOM      7  C   UNL     1       1.206   4.135  19.659  0.00  0.00    +0.000 A 
ATOM      8  C   UNL     1       2.307   4.681  18.963  0.00  0.00    +0.000 A 
BRANCH   8   9
ATOM      9  C   UNL     1       2.640   6.130  19.238  0.00  0.00    +0.000 C 
ATOM     10  F   UNL     1       3.934   6.389  19.568  0.00  0.00    +0.000 F 
ATOM     11  F   UNL     1       2.372   6.925  18.163  0.00  0.00    +0.000 F 
ATOM     12  F   UNL     1       1.894   6.638  20.262  0.00  0.00    +0.000 F 
ENDBRANCH   8   9
ENDBRANCH   2   3
BRANCH   1  14
ATOM     13  O   UNL     1       7.743   4.404  17.311  0.00  0.00    +0.000 OA
ATOM     14  C   UNL     1       6.611   4.637  16.913  0.00  0.00    +0.000 C 
BRANCH  14  15
ATOM     15  O   UNL     1       6.246   5.314  15.758  0.00  0.00    +0.000 OA
BRANCH  15  16
ATOM     16  C   UNL     1       6.563   4.863  14.456  0.00  0.00    +0.000 A 
ATOM     17  C   UNL     1       5.723   3.871  13.945  0.00  0.00    +0.000 A 
ATOM     18  C   UNL     1       5.916   3.398  12.647  0.00  0.00    +0.000 A 
ATOM     19  C   UNL     1       6.939   3.923  11.859  0.00  0.00    +0.000 A 
ATOM     20  C   UNL     1       7.770   4.923  12.371  0.00  0.00    +0.000 A 
ATOM     21  C   UNL     1       7.581   5.400  13.671  0.00  0.00    +0.000 A 
ENDBRANCH  15  16
ENDBRANCH  14  15
ENDBRANCH   1  14
TORSDOF 5
ENDMDL
MODEL 9
REMARK VINA RESULT:      -7.5      2.101      3.322
REMARK  Name = 
REMARK  5 active torsions:
REMARK  status: ('A' for Active; 'I' for Inactive)
REMARK    1  A    between atoms: C_2  and  C_3
REMARK    2  A    between atoms: C_2  and  O_15
REMARK    3  A    between atoms: C_4  and  C_5
REMARK    4  A    between atoms: C_10  and  C_11
REMARK    5  A    between atoms: O_15  and  C_16
REMARK                            x       y       z     vdW  Elec       q    Type
REMARK                         _______ _______ _______ _____ _____    ______ ____
ROOT
ATOM      1  C   UNL     1       5.437   4.717  19.734  0.00  0.00    +0.000 C 
ATOM      2  C   UNL     1       4.727   3.632  19.385  0.00  0.00    +0.000 C 
ENDROOT
BRANCH   2   3
ATOM      3  C   UNL     1       3.339   3.435  19.822  0.00  0.00    +0.000 A 
ATOM      4  C   UNL     1       3.135   2.821  21.070  0.00  0.00    +0.000 A 
ATOM      5  C   UNL     1       1.848   2.571  21.547  0.00  0.00    +0.000 A 
ATOM      6  C   UNL     1       0.743   2.932  20.785  0.00  0.00    +0.000 A 
ATOM      7  C   UNL     1       0.930   3.549  19.549  0.00  0.00    +0.000 A 
ATOM      8  C   UNL     1       2.225   3.812  19.049  0.00  0.00    +0.000 A 
BRANCH   8   9
ATOM      9  C   UNL     1       2.313   4.473  17.693  0.00  0.00    +0.000 C 
ATOM     10  F   UNL     1       3.075   3.830  16.767  0.00  0.00    +0.000 F 
ATOM     11  F   UNL     1       1.085   4.617  17.117  0.00  0.00    +0.000 F 
ATOM     12  F   UNL     1       2.827   5.735  17.774  0.00  0.00    +0.000 F 
ENDBRANCH   8   9
ENDBRANCH   2   3
BRANCH   1  14
ATOM     13  O   UNL     1       7.598   5.632  20.020  0.00  0.00    +0.000 OA
ATOM     14  C   UNL     1       6.834   4.990  19.315  0.00  0.00    +0.000 C 
BRANCH  14  15
ATOM     15  O   UNL     1       7.107   4.411  18.084  0.00  0.00    +0.000 OA
BRANCH  15  16
ATOM     16  C   UNL     1       6.508   4.830  16.873  0.00  0.00    +0.000 A 
ATOM     17  C   UNL     1       6.463   3.865  15.864  0.00  0.00    +0.000 A 
ATOM     18  C   UNL     1       5.842   4.159  14.650  0.00  0.00    +0.000 A 
ATOM     19  C   UNL     1       5.259   5.409  14.450  0.00  0.00    +0.000 A 
ATOM     20  C   UNL     1       5.297   6.367  15.467  0.00  0.00    +0.000 A 
ATOM     21  C   UNL     1       5.919   6.078  16.685  0.00  0.00    +0.000 A 
ENDBRANCH  15  16
ENDBRANCH  14  15
ENDBRANCH   1  14
TORSDOF 5
ENDMDL
