MODEL 1
REMARK VINA RESULT:      -7.5      0.000      0.000
REMARK  Name = 
REMARK  6 active torsions:
REMARK  status: ('A' for Active; 'I' for Inactive)
REMARK    1  A    between atoms: C_1  and  C_2
REMARK    2  A    between atoms: C_2  and  S_3
REMARK    3  A    between atoms: S_3  and  C_4
REMARK    4  A    between atoms: N_6  and  C_7
REMARK    5  A    between atoms: C_13  and  C_14
REMARK    6  A    between atoms: N_17  and  C_18
REMARK                            x       y       z     vdW  Elec       q    Type
REMARK                         _______ _______ _______ _____ _____    ______ ____
ROOT
ATOM      1  C   UNL     1       5.170   4.059  19.130  0.00  0.00    +0.000 A 
ATOM      2  C   UNL     1       4.794   2.744  19.525  0.00  0.00    +0.000 A 
ATOM      3  C   UNL     1       3.531   2.498  20.098  0.00  0.00    +0.000 A 
ATOM      4  C   UNL     1       2.657   3.576  20.239  0.00  0.00    +0.000 A 
ATOM      5  N   UNL     1       1.425   3.570  20.777  0.00  0.00    +0.000 N 
ATOM      6  C   UNL     1       0.967   4.843  20.699  0.00  0.00    +0.000 A 
ATOM      7  C   UNL     1       1.913   5.659  20.075  0.00  0.00    +0.000 A 
ATOM      8  C   UNL     1       2.998   4.834  19.822  0.00  0.00    +0.000 A 
ATOM      9  C   UNL     1       4.261   5.112  19.295  0.00  0.00    +0.000 A 
ATOM     10  H   UNL     1       0.922   2.750  21.179  0.00  0.00    +0.000 HD
ENDROOT
BRANCH   7  11
ATOM     11  C   UNL     1       1.789   7.107  19.743  0.00  0.00    +0.000 C 
ATOM     12  C   UNL     1       1.422   7.975  20.710  0.00  0.00    +0.000 C 
ATOM     13  C   UNL     1       1.153   9.434  20.492  0.00  0.00    +0.000 C 
ATOM     14  N   UNL     1       1.269   9.853  19.087  0.00  0.00    +0.000 NA
ATOM     15  C   UNL     1       0.141  10.590  18.512  0.00  0.00    +0.000 C 
ATOM     16  C   UNL     1       2.175   9.104  18.207  0.00  0.00    +0.000 C 
ATOM     17  C   UNL     1       2.035   7.576  18.332  0.00  0.00    +0.000 C 
ENDBRANCH   7  11
BRANCH   1  20
ATOM     18  C   UNL     1       6.794   4.320  17.223  0.00  0.00    +0.000 C 
ATOM     19  N   UNL     1       8.032   4.259  16.886  0.00  0.00    +0.000 NA
ATOM     20  N   UNL     1       6.462   4.357  18.610  0.00  0.00    +0.000 N 
ATOM     21  H   UNL     1       8.316   4.276  15.897  0.00  0.00    +0.000 HD
ATOM     22  H   UNL     1       7.192   4.673  19.266  0.00  0.00    +0.000 HD
BRANCH  18  23
ATOM     23  S   UNL     1       5.535   4.571  15.955  0.00  0.00    +0.000 S 
BRANCH  23  25
ATOM     24  C   UNL     1       6.034   3.791  13.358  0.00  0.00    +0.000 C 
ATOM     25  C   UNL     1       6.720   4.426  14.558  0.00  0.00    +0.000 C 
ENDBRANCH  23  25
ENDBRANCH  18  23
ENDBRANCH   1  20
TORSDOF 4
ENDMDL
MODEL 2
REMARK VINA RESULT:      -7.4      1.159      1.383
REMARK  Name = 
REMARK  6 active torsions:
REMARK  status: ('A' for Active; 'I' for Inactive)
REMARK    1  A    between atoms: C_1  and  C_2
REMARK    2  A    between atoms: C_2  and  S_3
REMARK    3  A    between atoms: S_3  and  C_4
REMARK    4  A    between atoms: N_6  and  C_7
REMARK    5  A    between atoms: C_13  and  C_14
REMARK    6  A    between atoms: N_17  and  C_18
REMARK                            x       y       z     vdW  Elec       q    Type
REMARK                         _______ _______ _______ _____ _____    ______ ____
ROOT
ATOM      1  C   UNL     1       5.472   5.207  17.755  0.00  0.00    +0.000 A 
ATOM      2  C   UNL     1       5.500   3.876  18.258  0.00  0.00    +0.000 A 
ATOM      3  C   UNL     1       4.567   3.451  19.223  0.00  0.00    +0.000 A 
ATOM      4  C   UNL     1       3.603   4.366  19.646  0.00  0.00    +0.000 A 
ATOM      5  N   UNL     1       2.642   4.181  20.568  0.00  0.00    +0.000 N 
ATOM      6  C   UNL     1       1.955   5.346  20.644  0.00  0.00    +0.000 A 
ATOM      7  C   UNL     1       2.472   6.272  19.736  0.00  0.00    +0.000 A 
ATOM      8  C   UNL     1       3.546   5.635  19.135  0.00  0.00    +0.000 A 
ATOM      9  C   UNL     1       4.489   6.094  18.213  0.00  0.00    +0.000 A 
ATOM     10  H   UNL     1       2.462   3.314  21.118  0.00  0.00    +0.000 HD
ENDROOT
BRANCH   7  11
ATOM     11  C   UNL     1       1.978   7.651  19.461  0.00  0.00    +0.000 C 
ATOM     12  C   UNL     1       1.482   8.389  20.477  0.00  0.00    +0.000 C 
ATOM     13  C   UNL     1       0.853   9.741  20.326  0.00  0.00    +0.000 C 
ATOM     14  N   UNL     1       0.762  10.198  18.930  0.00  0.00    +0.000 NA
ATOM     15  C   UNL     1      -0.549  10.646  18.456  0.00  0.00    +0.000 C 
ATOM     16  C   UNL     1       1.757   9.706  17.968  0.00  0.00    +0.000 C 
ATOM     17  C   UNL     1       2.000   8.189  18.052  0.00  0.00    +0.000 C 
ENDBRANCH   7  11
BRANCH   1  20
ATOM     18  C   UNL     1       6.606   5.185  15.506  0.00  0.00    +0.000 C 
ATOM     19  N   UNL     1       7.703   5.431  14.884  0.00  0.00    +0.000 NA
ATOM     20  N   UNL     1       6.440   5.692  16.830  0.00  0.00    +0.000 N 
ATOM     21  H   UNL     1       7.844   5.122  13.913  0.00  0.00    +0.000 HD
ATOM     22  H   UNL     1       7.024   6.495  17.108  0.00  0.00    +0.000 HD
BRANCH  18  23
ATOM     23  S   UNL     1       5.237   4.403  14.629  0.00  0.00    +0.000 S 
BRANCH  23  25
ATOM     24  C   UNL     1       5.434   3.268  12.123  0.00  0.00    +0.000 C 
ATOM     25  C   UNL     1       6.298   3.752  13.278  0.00  0.00    +0.000 C 
ENDBRANCH  23  25
ENDBRANCH  18  23
ENDBRANCH   1  20
TORSDOF 4
ENDMDL
MODEL 3
REMARK VINA RESULT:      -7.3      1.579      2.012
REMARK  Name = 
REMARK  6 active torsions:
REMARK  status: ('A' for Active; 'I' for Inactive)
REMARK    1  A    between atoms: C_1  and  C_2
REMARK    2  A    between atoms: C_2  and  S_3
REMARK    3  A    between atoms: S_3  and  C_4
REMARK    4  A    between atoms: N_6  and  C_7
REMARK    5  A    between atoms: C_13  and  C_14
REMARK    6  A    between atoms: N_17  and  C_18
REMARK                            x       y       z     vdW  Elec       q    Type
REMARK                         _______ _______ _______ _____ _____    ______ ____
ROOT
ATOM      1  C   UNL     1       4.292   4.094  17.128  0.00  0.00    +0.000 A 
ATOM      2  C   UNL     1       4.210   2.798  17.711  0.00  0.00    +0.000 A 
ATOM      3  C   UNL     1       3.525   2.596  18.925  0.00  0.00    +0.000 A 
ATOM      4  C   UNL     1       2.910   3.699  19.518  0.00  0.00    +0.000 A 
ATOM      5  N   UNL     1       2.232   3.737  20.678  0.00  0.00    +0.000 N 
ATOM      6  C   UNL     1       1.827   5.019  20.843  0.00  0.00    +0.000 A 
ATOM      7  C   UNL     1       2.230   5.797  19.756  0.00  0.00    +0.000 A 
ATOM      8  C   UNL     1       2.951   4.940  18.940  0.00  0.00    +0.000 A 
ATOM      9  C   UNL     1       3.663   5.173  17.762  0.00  0.00    +0.000 A 
ATOM     10  H   UNL     1       2.055   2.939  21.325  0.00  0.00    +0.000 HD
ENDROOT
BRANCH   7  11
ATOM     11  C   UNL     1       1.947   7.240  19.514  0.00  0.00    +0.000 C 
ATOM     12  C   UNL     1       1.564   8.020  20.548  0.00  0.00    +0.000 C 
ATOM     13  C   UNL     1       1.144   9.453  20.429  0.00  0.00    +0.000 C 
ATOM     14  N   UNL     1       1.124   9.951  19.045  0.00  0.00    +0.000 NA
ATOM     15  C   UNL     1      -0.104  10.600  18.583  0.00  0.00    +0.000 C 
ATOM     16  C   UNL     1       2.037   9.340  18.070  0.00  0.00    +0.000 C 
ATOM     17  C   UNL     1       2.052   7.801  18.118  0.00  0.00    +0.000 C 
ENDBRANCH   7  11
BRANCH   1  20
ATOM     18  C   UNL     1       6.354   4.883  15.917  0.00  0.00    +0.000 C 
ATOM     19  N   UNL     1       6.796   5.393  14.824  0.00  0.00    +0.000 NA
ATOM     20  N   UNL     1       5.032   4.347  15.938  0.00  0.00    +0.000 N 
ATOM     21  H   UNL     1       7.759   5.749  14.754  0.00  0.00    +0.000 HD
ATOM     22  H   UNL     1       4.613   4.077  15.034  0.00  0.00    +0.000 HD
BRANCH  18  23
ATOM     23  S   UNL     1       7.472   4.660  17.315  0.00  0.00    +0.000 S 
BRANCH  23  25
ATOM     24  C   UNL     1       7.618   7.408  17.505  0.00  0.00    +0.000 C 
ATOM     25  C   UNL     1       6.946   6.207  18.155  0.00  0.00    +0.000 C 
ENDBRANCH  23  25
ENDBRANCH  18  23
ENDBRANCH   1  20
TORSDOF 4
ENDMDL
MODEL 4
REMARK VINA RESULT:      -7.2      2.275      5.937
REMARK  Name = 
REMARK  6 active torsions:
REMARK  status: ('A' for Active; 'I' for Inactive)
REMARK    1  A    between atoms: C_1  and  C_2
REMARK    2  A    between atoms: C_2  and  S_3
REMARK    3  A    between atoms: S_3  and  C_4
REMARK    4  A    between atoms: N_6  and  C_7
REMARK    5  A    between atoms: C_13  and  C_14
REMARK    6  A    between atoms: N_17  and  C_18
REMARK                            x       y       z     vdW  Elec       q    Type
REMARK                         _______ _______ _______ _____ _____    ______ ____
ROOT
ATOM      1  C   UNL     1       1.663   5.155  20.399  0.00  0.00    +0.000 A 
ATOM      2  C   UNL     1       0.785   4.035  20.419  0.00  0.00    +0.000 A 
ATOM      3  C   UNL     1       1.035   2.910  19.610  0.00  0.00    +0.000 A 
ATOM      4  C   UNL     1       2.181   2.920  18.815  0.00  0.00    +0.000 A 
ATOM      5  N   UNL     1       2.594   1.971  17.957  0.00  0.00    +0.000 N 
ATOM      6  C   UNL     1       3.749   2.424  17.411  0.00  0.00    +0.000 A 
ATOM      7  C   UNL     1       4.085   3.665  17.955  0.00  0.00    +0.000 A 
ATOM      8  C   UNL     1       3.050   3.977  18.822  0.00  0.00    +0.000 A 
ATOM      9  C   UNL     1       2.799   5.123  19.580  0.00  0.00    +0.000 A 
ATOM     10  H   UNL     1       2.120   1.066  17.748  0.00  0.00    +0.000 HD
ENDROOT
BRANCH   7  11
ATOM     11  C   UNL     1       5.297   4.485  17.673  0.00  0.00    +0.000 C 
ATOM     12  C   UNL     1       6.260   4.587  18.614  0.00  0.00    +0.000 C 
ATOM     13  C   UNL     1       7.472   5.461  18.508  0.00  0.00    +0.000 C 
ATOM     14  N   UNL     1       7.510   6.273  17.282  0.00  0.00    +0.000 NA
ATOM     15  C   UNL     1       7.724   7.714  17.438  0.00  0.00    +0.000 C 
ATOM     16  C   UNL     1       6.829   5.763  16.085  0.00  0.00    +0.000 C 
ATOM     17  C   UNL     1       5.415   5.221  16.361  0.00  0.00    +0.000 C 
ENDBRANCH   7  11
BRANCH   1  20
ATOM     18  C   UNL     1       1.731   7.654  20.710  0.00  0.00    +0.000 C 
ATOM     19  N   UNL     1       1.784   8.600  21.577  0.00  0.00    +0.000 NA
ATOM     20  N   UNL     1       1.406   6.336  21.152  0.00  0.00    +0.000 N 
ATOM     21  H   UNL     1       1.971   9.571  21.294  0.00  0.00    +0.000 HD
ATOM     22  H   UNL     1       0.904   6.245  22.049  0.00  0.00    +0.000 HD
BRANCH  18  23
ATOM     23  S   UNL     1       1.851   8.044  18.953  0.00  0.00    +0.000 S 
BRANCH  23  25
ATOM     24  C   UNL     1       0.001   9.919  18.137  0.00  0.00    +0.000 C 
ATOM     25  C   UNL     1       1.129   9.723  19.139  0.00  0.00    +0.000 C 
ENDBRANCH  23  25
ENDBRANCH  18  23
ENDBRANCH   1  20
TORSDOF 4
ENDMDL
MODEL 5
REMARK VINA RESULT:      -7.1      1.298      1.864
REMARK  Name = 
REMARK  6 active torsions:
REMARK  status: ('A' for Active; 'I' for Inactive)
REMARK    1  A    between atoms: C_1  and  C_2
REMARK    2  A    between atoms: C_2  and  S_3
REMARK    3  A    between atoms: S_3  and  C_4
REMARK    4  A    between atoms: N_6  and  C_7
REMARK    5  A    between atoms: C_13  and  C_14
REMARK    6  A    between atoms: N_17  and  C_18
REMARK                            x       y       z     vdW  Elec       q    Type
REMARK                         _______ _______ _______ _____ _____    ______ ____
ROOT
ATOM      1  C   UNL     1       5.436   5.379  17.722  0.00  0.00    +0.000 A 
ATOM      2  C   UNL     1       5.496   4.061  18.256  0.00  0.00    +0.000 A 
ATOM      3  C   UNL     1       4.581   3.641  19.240  0.00  0.00    +0.000 A 
ATOM      4  C   UNL     1       3.602   4.546  19.650  0.00  0.00    +0.000 A 
ATOM      5  N   UNL     1       2.653   4.363  20.586  0.00  0.00    +0.000 N 
ATOM      6  C   UNL     1       1.943   5.515  20.641  0.00  0.00    +0.000 A 
ATOM      7  C   UNL     1       2.432   6.429  19.705  0.00  0.00    +0.000 A 
ATOM      8  C   UNL     1       3.514   5.800  19.110  0.00  0.00    +0.000 A 
ATOM      9  C   UNL     1       4.438   6.256  18.168  0.00  0.00    +0.000 A 
ATOM     10  H   UNL     1       2.496   3.506  21.158  0.00  0.00    +0.000 HD
ENDROOT
BRANCH   7  11
ATOM     11  C   UNL     1       1.907   7.791  19.402  0.00  0.00    +0.000 C 
ATOM     12  C   UNL     1       2.047   8.289  18.155  0.00  0.00    +0.000 C 
ATOM     13  C   UNL     1       1.667   9.679  17.741  0.00  0.00    +0.000 C 
ATOM     14  N   UNL     1       1.165  10.509  18.846  0.00  0.00    +0.000 NA
ATOM     15  C   UNL     1       1.790  11.818  19.041  0.00  0.00    +0.000 C 
ATOM     16  C   UNL     1       0.505   9.841  19.977  0.00  0.00    +0.000 C 
ATOM     17  C   UNL     1       1.265   8.608  20.495  0.00  0.00    +0.000 C 
ENDBRANCH   7  11
BRANCH   1  20
ATOM     18  C   UNL     1       6.615   5.266  15.499  0.00  0.00    +0.000 C 
ATOM     19  N   UNL     1       7.704   5.544  14.876  0.00  0.00    +0.000 NA
ATOM     20  N   UNL     1       6.385   5.861  16.776  0.00  0.00    +0.000 N 
ATOM     21  H   UNL     1       7.888   5.172  13.935  0.00  0.00    +0.000 HD
ATOM     22  H   UNL     1       6.902   6.725  16.999  0.00  0.00    +0.000 HD
BRANCH  18  23
ATOM     23  S   UNL     1       5.326   4.318  14.666  0.00  0.00    +0.000 S 
BRANCH  23  25
ATOM     24  C   UNL     1       5.549   3.211  12.150  0.00  0.00    +0.000 C 
ATOM     25  C   UNL     1       6.383   3.890  13.226  0.00  0.00    +0.000 C 
ENDBRANCH  23  25
ENDBRANCH  18  23
ENDBRANCH   1  20
TORSDOF 4
ENDMDL
MODEL 6
REMARK VINA RESULT:      -6.9      3.176      4.991
REMARK  Name = 
REMARK  6 active torsions:
REMARK  status: ('A' for Active; 'I' for Inactive)
REMARK    1  A    between atoms: C_1  and  C_2
REMARK    2  A    between atoms: C_2  and  S_3
REMARK    3  A    between atoms: S_3  and  C_4
REMARK    4  A    between atoms: N_6  and  C_7
REMARK    5  A    between atoms: C_13  and  C_14
REMARK    6  A    between atoms: N_17  and  C_18
REMARK                            x       y       z     vdW  Elec       q    Type
REMARK                         _______ _______ _______ _____ _____    ______ ____
ROOT
ATOM      1  C   UNL     1       2.531   5.831  20.144  0.00  0.00    +0.000 A 
ATOM      2  C   UNL     1       3.067   5.664  18.836  0.00  0.00    +0.000 A 
ATOM      3  C   UNL     1       2.939   6.681  17.870  0.00  0.00    +0.000 A 
ATOM      4  C   UNL     1       2.298   7.861  18.247  0.00  0.00    +0.000 A 
ATOM      5  N   UNL     1       2.048   8.941  17.484  0.00  0.00    +0.000 N 
ATOM      6  C   UNL     1       1.403   9.829  18.278  0.00  0.00    +0.000 A 
ATOM      7  C   UNL     1       1.271   9.316  19.570  0.00  0.00    +0.000 A 
ATOM      8  C   UNL     1       1.818   8.043  19.516  0.00  0.00    +0.000 A 
ATOM      9  C   UNL     1       1.891   7.032  20.475  0.00  0.00    +0.000 A 
ATOM     10  H   UNL     1       2.297   9.068  16.480  0.00  0.00    +0.000 HD
ENDROOT
BRANCH   7  11
ATOM     11  C   UNL     1       0.673   9.986  20.760  0.00  0.00    +0.000 C 
ATOM     12  C   UNL     1       0.434   9.262  21.874  0.00  0.00    +0.000 C 
ATOM     13  C   UNL     1      -0.261   9.778  23.097  0.00  0.00    +0.000 C 
ATOM     14  N   UNL     1      -0.730  11.166  22.969  0.00  0.00    +0.000 NA
ATOM     15  C   UNL     1      -2.134  11.432  23.288  0.00  0.00    +0.000 C 
ATOM     16  C   UNL     1      -0.004  12.068  22.065  0.00  0.00    +0.000 C 
ATOM     17  C   UNL     1       0.307  11.447  20.692  0.00  0.00    +0.000 C 
ENDBRANCH   7  11
BRANCH   1  20
ATOM     18  C   UNL     1       1.725   3.658  21.129  0.00  0.00    +0.000 C 
ATOM     19  N   UNL     1       1.608   2.980  22.214  0.00  0.00    +0.000 NA
ATOM     20  N   UNL     1       2.582   4.799  21.124  0.00  0.00    +0.000 N 
ATOM     21  H   UNL     1       1.035   2.125  22.248  0.00  0.00    +0.000 HD
ATOM     22  H   UNL     1       3.318   4.846  21.846  0.00  0.00    +0.000 HD
BRANCH  18  23
ATOM     23  S   UNL     1       0.989   3.038  19.604  0.00  0.00    +0.000 S 
BRANCH  23  25
ATOM     24  C   UNL     1       2.657   2.117  17.609  0.00  0.00    +0.000 C 
ATOM     25  C   UNL     1       2.477   2.074  19.119  0.00  0.00    +0.000 C 
ENDBRANCH  23  25
ENDBRANCH  18  23
ENDBRANCH   1  20
TORSDOF 4
ENDMDL
MODEL 7
REMARK VINA RESULT:      -6.9      3.106      4.901
REMARK  Name = 
REMARK  6 active torsions:
REMARK  status: ('A' for Active; 'I' for Inactive)
REMARK    1  A    between atoms: C_1  and  C_2
REMARK    2  A    between atoms: C_2  and  S_3
REMARK    3  A    between atoms: S_3  and  C_4
REMARK    4  A    between atoms: N_6  and  C_7
REMARK    5  A    between atoms: C_13  and  C_14
REMARK    6  A    between atoms: N_17  and  C_18
REMARK                            x       y       z     vdW  Elec       q    Type
REMARK                         _______ _______ _______ _____ _____    ______ ____
ROOT
ATOM      1  C   UNL     1       2.665   5.695  20.141  0.00  0.00    +0.000 A 
ATOM      2  C   UNL     1       3.465   5.563  18.972  0.00  0.00    +0.000 A 
ATOM      3  C   UNL     1       3.479   6.573  17.990  0.00  0.00    +0.000 A 
ATOM      4  C   UNL     1       2.707   7.712  18.216  0.00  0.00    +0.000 A 
ATOM      5  N   UNL     1       2.555   8.776  17.408  0.00  0.00    +0.000 N 
ATOM      6  C   UNL     1       1.711   9.624  18.045  0.00  0.00    +0.000 A 
ATOM      7  C   UNL     1       1.347   9.100  19.287  0.00  0.00    +0.000 A 
ATOM      8  C   UNL     1       1.967   7.862  19.358  0.00  0.00    +0.000 A 
ATOM      9  C   UNL     1       1.901   6.854  20.323  0.00  0.00    +0.000 A 
ATOM     10  H   UNL     1       2.996   8.921  16.475  0.00  0.00    +0.000 HD
ENDROOT
BRANCH   7  11
ATOM     11  C   UNL     1       0.481   9.730  20.323  0.00  0.00    +0.000 C 
ATOM     12  C   UNL     1      -0.623  10.407  19.937  0.00  0.00    +0.000 C 
ATOM     13  C   UNL     1      -1.518  11.179  20.858  0.00  0.00    +0.000 C 
ATOM     14  N   UNL     1      -1.059  11.193  22.255  0.00  0.00    +0.000 NA
ATOM     15  C   UNL     1      -0.939  12.499  22.909  0.00  0.00    +0.000 C 
ATOM     16  C   UNL     1      -0.261  10.060  22.740  0.00  0.00    +0.000 C 
ATOM     17  C   UNL     1       0.866   9.641  21.778  0.00  0.00    +0.000 C 
ENDBRANCH   7  11
BRANCH   1  20
ATOM     18  C   UNL     1       1.655   3.576  21.054  0.00  0.00    +0.000 C 
ATOM     19  N   UNL     1       1.409   2.910  22.125  0.00  0.00    +0.000 NA
ATOM     20  N   UNL     1       2.574   4.665  21.121  0.00  0.00    +0.000 N 
ATOM     21  H   UNL     1       0.786   2.090  22.110  0.00  0.00    +0.000 HD
ATOM     22  H   UNL     1       3.249   4.671  21.900  0.00  0.00    +0.000 HD
BRANCH  18  23
ATOM     23  S   UNL     1       1.012   2.994  19.472  0.00  0.00    +0.000 S 
BRANCH  23  25
ATOM     24  C   UNL     1       2.861   2.135  17.615  0.00  0.00    +0.000 C 
ATOM     25  C   UNL     1       2.499   1.987  19.085  0.00  0.00    +0.000 C 
ENDBRANCH  23  25
ENDBRANCH  18  23
ENDBRANCH   1  20
TORSDOF 4
ENDMDL
MODEL 8
REMARK VINA RESULT:      -6.8      2.258      6.025
REMARK  Name = 
REMARK  6 active torsions:
REMARK  status: ('A' for Active; 'I' for Inactive)
REMARK    1  A    between atoms: C_1  and  C_2
REMARK    2  A    between atoms: C_2  and  S_3
REMARK    3  A    between atoms: S_3  and  C_4
REMARK    4  A    between atoms: N_6  and  C_7
REMARK    5  A    between atoms: C_13  and  C_14
REMARK    6  A    between atoms: N_17  and  C_18
REMARK                            x       y       z     vdW  Elec       q    Type
REMARK                         _______ _______ _______ _____ _____    ______ ____
ROOT
ATOM      1  C   UNL     1       2.281   5.334  20.692  0.00  0.00    +0.000 A 
ATOM      2  C   UNL     1       1.369   6.397  20.947  0.00  0.00    +0.000 A 
ATOM      3  C   UNL     1       1.376   7.558  20.151  0.00  0.00    +0.000 A 
ATOM      4  C   UNL     1       2.284   7.618  19.093  0.00  0.00    +0.000 A 
ATOM      5  N   UNL     1       2.476   8.632  18.231  0.00  0.00    +0.000 N 
ATOM      6  C   UNL     1       3.460   8.237  17.388  0.00  0.00    +0.000 A 
ATOM      7  C   UNL     1       3.875   6.942  17.704  0.00  0.00    +0.000 A 
ATOM      8  C   UNL     1       3.135   6.582  18.818  0.00  0.00    +0.000 A 
ATOM      9  C   UNL     1       3.178   5.441  19.622  0.00  0.00    +0.000 A 
ATOM     10  H   UNL     1       1.971   9.544  18.216  0.00  0.00    +0.000 HD
ENDROOT
BRANCH   7  11
ATOM     11  C   UNL     1       4.894   6.114  16.997  0.00  0.00    +0.000 C 
ATOM     12  C   UNL     1       6.189   6.493  17.029  0.00  0.00    +0.000 C 
ATOM     13  C   UNL     1       7.296   5.820  16.276  0.00  0.00    +0.000 C 
ATOM     14  N   UNL     1       6.843   4.712  15.422  0.00  0.00    +0.000 NA
ATOM     15  C   UNL     1       7.256   4.734  14.018  0.00  0.00    +0.000 C 
ATOM     16  C   UNL     1       5.631   3.980  15.814  0.00  0.00    +0.000 C 
ATOM     17  C   UNL     1       4.462   4.893  16.224  0.00  0.00    +0.000 C 
ENDBRANCH   7  11
BRANCH   1  20
ATOM     18  C   UNL     1       1.515   3.027  21.354  0.00  0.00    +0.000 C 
ATOM     19  N   UNL     1       1.405   2.201  22.332  0.00  0.00    +0.000 NA
ATOM     20  N   UNL     1       2.348   4.175  21.517  0.00  0.00    +0.000 N 
ATOM     21  H   UNL     1       0.851   1.339  22.240  0.00  0.00    +0.000 HD
ATOM     22  H   UNL     1       3.078   4.133  22.244  0.00  0.00    +0.000 HD
BRANCH  18  23
ATOM     23  S   UNL     1       0.800   2.614  19.750  0.00  0.00    +0.000 S 
BRANCH  23  25
ATOM     24  C   UNL     1       2.596   2.288  17.683  0.00  0.00    +0.000 C 
ATOM     25  C   UNL     1       2.339   1.838  19.113  0.00  0.00    +0.000 C 
ENDBRANCH  23  25
ENDBRANCH  18  23
ENDBRANCH   1  20
TORSDOF 4
ENDMDL
MODEL 9
REMARK VINA RESULT:      -6.8      2.899      7.411
REMARK  Name = 
REMARK  6 active torsions:
REMARK  status: ('A' for Active; 'I' for Inactive)
REMARK    1  A    between atoms: C_1  and  C_2
REMARK    2  A    between atoms: C_2  and  S_3
REMARK    3  A    between atoms: S_3  and  C_4
REMARK    4  A    between atoms: N_6  and  C_7
REMARK    5  A    between atoms: C_13  and  C_14
REMARK    6  A    between atoms: N_17  and  C_18
REMARK                            x       y       z     vdW  Elec       q    Type
REMARK                         _______ _______ _______ _____ _____    ______ ____
ROOT
ATOM      1  C   UNL     1       1.315   9.363  19.050  0.00  0.00    +0.000 A 
ATOM      2  C   UNL     1       0.806   9.228  20.372  0.00  0.00    +0.000 A 
ATOM      3  C   UNL     1       1.047   8.060  21.121  0.00  0.00    +0.000 A 
ATOM      4  C   UNL     1       1.821   7.058  20.535  0.00  0.00    +0.000 A 
ATOM      5  N   UNL     1       2.150   5.862  21.056  0.00  0.00    +0.000 N 
ATOM      6  C   UNL     1       2.903   5.232  20.123  0.00  0.00    +0.000 A 
ATOM      7  C   UNL     1       3.077   6.054  19.007  0.00  0.00    +0.000 A 
ATOM      8  C   UNL     1       2.347   7.200  19.279  0.00  0.00    +0.000 A 
ATOM      9  C   UNL     1       2.082   8.328  18.500  0.00  0.00    +0.000 A 
ATOM     10  H   UNL     1       1.877   5.492  21.991  0.00  0.00    +0.000 HD
ENDROOT
BRANCH   7  11
ATOM     11  C   UNL     1       3.878   5.769  17.782  0.00  0.00    +0.000 C 
ATOM     12  C   UNL     1       3.881   4.519  17.272  0.00  0.00    +0.000 C 
ATOM     13  C   UNL     1       4.723   4.068  16.117  0.00  0.00    +0.000 C 
ATOM     14  N   UNL     1       5.620   5.111  15.597  0.00  0.00    +0.000 NA
ATOM     15  C   UNL     1       7.038   4.770  15.463  0.00  0.00    +0.000 C 
ATOM     16  C   UNL     1       5.219   6.516  15.747  0.00  0.00    +0.000 C 
ATOM     17  C   UNL     1       4.702   6.864  17.154  0.00  0.00    +0.000 C 
ENDBRANCH   7  11
BRANCH   1  20
ATOM     18  C   UNL     1       0.758  11.802  18.755  0.00  0.00    +0.000 C 
ATOM     19  N   UNL     1       0.186  12.660  17.989  0.00  0.00    +0.000 NA
ATOM     20  N   UNL     1       1.034  10.500  18.239  0.00  0.00    +0.000 N 
ATOM     21  H   UNL     1       0.010  13.623  18.308  0.00  0.00    +0.000 HD
ATOM     22  H   UNL     1       1.087  10.395  17.214  0.00  0.00    +0.000 HD
BRANCH  18  23
ATOM     23  S   UNL     1       1.386  12.319  20.365  0.00  0.00    +0.000 S 
BRANCH  23  25
ATOM     24  C   UNL     1      -0.641  12.073  22.219  0.00  0.00    +0.000 C 
ATOM     25  C   UNL     1      -0.257  12.867  20.980  0.00  0.00    +0.000 C 
ENDBRANCH  23  25
ENDBRANCH  18  23
ENDBRANCH   1  20
TORSDOF 4
ENDMDL
