MODEL 1
REMARK VINA RESULT:      -7.2      0.000      0.000
REMARK  Name = 
REMARK  11 active torsions:
REMARK  status: ('A' for Active; 'I' for Inactive)
REMARK    1  A    between atoms: C_1  and  C_2
REMARK    2  A    between atoms: C_5  and  C_6
REMARK    3  A    between atoms: C_7  and  C_8
REMARK    4  A    between atoms: C_8  and  O_10
REMARK    5  A    between atoms: C_12  and  S_13
REMARK    6  A    between atoms: S_13  and  N_16
REMARK    7  A    between atoms: N_16  and  C_17
REMARK    8  A    between atoms: C_17  and  C_18
REMARK    9  A    between atoms: C_18  and  C_19
REMARK   10  A    between atoms: C_19  and  C_20
REMARK   11  A    between atoms: C_20  and  O_22
REMARK                            x       y       z     vdW  Elec       q    Type
REMARK                         _______ _______ _______ _____ _____    ______ ____
ROOT
ATOM      1  C   UNL     1       2.480   2.731  21.344  0.00  0.00    +0.000 C 
ATOM      2  C   UNL     1       2.490   4.065  20.654  0.00  0.00    +0.000 A 
ATOM      3  C   UNL     1       1.430   4.948  20.923  0.00  0.00    +0.000 A 
ATOM      4  C   UNL     1       1.373   6.215  20.336  0.00  0.00    +0.000 A 
ATOM      5  C   UNL     1       2.377   6.647  19.466  0.00  0.00    +0.000 A 
ATOM      6  C   UNL     1       3.429   5.769  19.174  0.00  0.00    +0.000 A 
ATOM      7  C   UNL     1       3.490   4.487  19.759  0.00  0.00    +0.000 A 
ENDROOT
BRANCH   7   8
ATOM      8  S   UNL     1       4.940   3.519  19.369  0.00  0.00    +0.000 S 
ATOM      9  O   UNL     1       6.042   4.453  19.248  0.00  0.00    +0.000 OA
ATOM     10  O   UNL     1       5.031   2.355  20.218  0.00  0.00    +0.000 OA
BRANCH   8  11
ATOM     11  N   UNL     1       4.639   2.970  17.797  0.00  0.00    +0.000 NA
ATOM     12  H   UNL     1       4.403   1.976  17.819  0.00  0.00    +0.000 HD
BRANCH  11  13
ATOM     13  C   UNL     1       3.819   3.826  16.930  0.00  0.00    +0.000 C 
BRANCH  13  14
ATOM     14  C   UNL     1       4.711   4.535  15.912  0.00  0.00    +0.000 C 
BRANCH  14  15
ATOM     15  C   UNL     1       6.029   3.785  15.720  0.00  0.00    +0.000 C 
BRANCH  15  16
ATOM     16  C   UNL     1       7.228   4.654  16.022  0.00  0.00    +0.000 C 
ATOM     17  O   UNL     1       7.490   5.708  15.467  0.00  0.00    +0.000 OA
BRANCH  16  18
ATOM     18  O   UNL     1       8.003   4.137  17.002  0.00  0.00    +0.000 OA
ATOM     19  H   UNL     1       8.872   3.812  16.698  0.00  0.00    +0.000 HD
ENDBRANCH  16  18
ENDBRANCH  15  16
ENDBRANCH  14  15
ENDBRANCH  13  14
ENDBRANCH  11  13
ENDBRANCH   8  11
ENDBRANCH   7   8
BRANCH   5  20
ATOM     20  C   UNL     1       2.253   7.981  18.861  0.00  0.00    +0.000 C 
ATOM     21  C   UNL     1       1.421   8.943  19.290  0.00  0.00    +0.000 C 
BRANCH  21  22
ATOM     22  C   UNL     1       1.393  10.238  18.580  0.00  0.00    +0.000 C 
ATOM     23  O   UNL     1       0.930  11.269  19.035  0.00  0.00    +0.000 OA
BRANCH  22  24
ATOM     24  O   UNL     1       1.942  10.152  17.352  0.00  0.00    +0.000 OA
ATOM     25  H   UNL     1       2.872  10.431  17.283  0.00  0.00    +0.000 HD
ENDBRANCH  22  24
ENDBRANCH  21  22
ENDBRANCH   5  20
TORSDOF 10
ENDMDL
MODEL 2
REMARK VINA RESULT:      -7.2      3.178      6.921
REMARK  Name = 
REMARK  11 active torsions:
REMARK  status: ('A' for Active; 'I' for Inactive)
REMARK    1  A    between atoms: C_1  and  C_2
REMARK    2  A    between atoms: C_5  and  C_6
REMARK    3  A    between atoms: C_7  and  C_8
REMARK    4  A    between atoms: C_8  and  O_10
REMARK    5  A    between atoms: C_12  and  S_13
REMARK    6  A    between atoms: S_13  and  N_16
REMARK    7  A    between atoms: N_16  and  C_17
REMARK    8  A    between atoms: C_17  and  C_18
REMARK    9  A    between atoms: C_18  and  C_19
REMARK   10  A    between atoms: C_19  and  C_20
REMARK   11  A    between atoms: C_20  and  O_22
REMARK                            x       y       z     vdW  Elec       q    Type
REMARK                         _______ _______ _______ _____ _____    ______ ____
ROOT
ATOM      1  C   UNL     1       7.451   5.925  18.776  0.00  0.00    +0.000 C 
ATOM      2  C   UNL     1       6.794   5.390  17.536  0.00  0.00    +0.000 A 
ATOM      3  C   UNL     1       7.468   5.559  16.314  0.00  0.00    +0.000 A 
ATOM      4  C   UNL     1       6.935   5.075  15.117  0.00  0.00    +0.000 A 
ATOM      5  C   UNL     1       5.714   4.398  15.100  0.00  0.00    +0.000 A 
ATOM      6  C   UNL     1       5.022   4.239  16.308  0.00  0.00    +0.000 A 
ATOM      7  C   UNL     1       5.552   4.729  17.519  0.00  0.00    +0.000 A 
ENDROOT
BRANCH   7   8
ATOM      8  S   UNL     1       4.605   4.366  18.990  0.00  0.00    +0.000 S 
ATOM      9  O   UNL     1       5.348   3.360  19.722  0.00  0.00    +0.000 OA
ATOM     10  O   UNL     1       4.152   5.580  19.628  0.00  0.00    +0.000 OA
BRANCH   8  11
ATOM     11  N   UNL     1       3.235   3.572  18.394  0.00  0.00    +0.000 NA
ATOM     12  H   UNL     1       3.117   2.681  18.879  0.00  0.00    +0.000 HD
BRANCH  11  13
ATOM     13  C   UNL     1       2.026   4.379  18.184  0.00  0.00    +0.000 C 
BRANCH  13  14
ATOM     14  C   UNL     1       1.187   4.392  19.461  0.00  0.00    +0.000 C 
BRANCH  14  15
ATOM     15  C   UNL     1       1.351   3.088  20.239  0.00  0.00    +0.000 C 
BRANCH  15  16
ATOM     16  C   UNL     1       2.138   3.282  21.515  0.00  0.00    +0.000 C 
ATOM     17  O   UNL     1       2.487   2.390  22.269  0.00  0.00    +0.000 OA
BRANCH  16  18
ATOM     18  O   UNL     1       2.430   4.582  21.745  0.00  0.00    +0.000 OA
ATOM     19  H   UNL     1       1.768   5.211  21.399  0.00  0.00    +0.000 HD
ENDBRANCH  16  18
ENDBRANCH  15  16
ENDBRANCH  14  15
ENDBRANCH  13  14
ENDBRANCH  11  13
ENDBRANCH   8  11
ENDBRANCH   7   8
BRANCH   5  20
ATOM     20  C   UNL     1       5.190   3.930  13.808  0.00  0.00    +0.000 C 
ATOM     21  C   UNL     1       5.875   3.180  12.930  0.00  0.00    +0.000 C 
BRANCH  21  22
ATOM     22  C   UNL     1       5.226   2.787  11.662  0.00  0.00    +0.000 C 
ATOM     23  O   UNL     1       4.311   3.394  11.134  0.00  0.00    +0.000 OA
BRANCH  22  24
ATOM     24  O   UNL     1       5.764   1.664  11.146  0.00  0.00    +0.000 OA
ATOM     25  H   UNL     1       5.830   0.908  11.756  0.00  0.00    +0.000 HD
ENDBRANCH  22  24
ENDBRANCH  21  22
ENDBRANCH   5  20
TORSDOF 10
ENDMDL
MODEL 3
REMARK VINA RESULT:      -7.0      2.431      4.747
REMARK  Name = 
REMARK  11 active torsions:
REMARK  status: ('A' for Active; 'I' for Inactive)
REMARK    1  A    between atoms: C_1  and  C_2
REMARK    2  A    between atoms: C_5  and  C_6
REMARK    3  A    between atoms: C_7  and  C_8
REMARK    4  A    between atoms: C_8  and  O_10
REMARK    5  A    between atoms: C_12  and  S_13
REMARK    6  A    between atoms: S_13  and  N_16
REMARK    7  A    between atoms: N_16  and  C_17
REMARK    8  A    between atoms: C_17  and  C_18
REMARK    9  A    between atoms: C_18  and  C_19
REMARK   10  A    between atoms: C_19  and  C_20
REMARK   11  A    between atoms: C_20  and  O_22
REMARK                            x       y       z     vdW  Elec       q    Type
REMARK                         _______ _______ _______ _____ _____    ______ ____
ROOT
ATOM      1  C   UNL     1       4.994   6.520  16.068  0.00  0.00    +0.000 C 
ATOM      2  C   UNL     1       4.133   6.693  17.287  0.00  0.00    +0.000 A 
ATOM      3  C   UNL     1       3.320   7.837  17.355  0.00  0.00    +0.000 A 
ATOM      4  C   UNL     1       2.476   8.065  18.446  0.00  0.00    +0.000 A 
ATOM      5  C   UNL     1       2.410   7.152  19.502  0.00  0.00    +0.000 A 
ATOM      6  C   UNL     1       3.230   6.018  19.455  0.00  0.00    +0.000 A 
ATOM      7  C   UNL     1       4.087   5.784  18.360  0.00  0.00    +0.000 A 
ENDROOT
BRANCH   7   8
ATOM      8  S   UNL     1       4.998   4.248  18.394  0.00  0.00    +0.000 S 
ATOM      9  O   UNL     1       5.181   3.845  17.014  0.00  0.00    +0.000 OA
ATOM     10  O   UNL     1       6.111   4.324  19.311  0.00  0.00    +0.000 OA
BRANCH   8  11
ATOM     11  N   UNL     1       3.890   3.145  19.043  0.00  0.00    +0.000 NA
ATOM     12  H   UNL     1       3.791   3.308  20.047  0.00  0.00    +0.000 HD
BRANCH  11  13
ATOM     13  C   UNL     1       2.655   2.906  18.285  0.00  0.00    +0.000 C 
BRANCH  13  14
ATOM     14  C   UNL     1       1.667   2.117  19.143  0.00  0.00    +0.000 C 
BRANCH  14  15
ATOM     15  C   UNL     1       0.931   3.036  20.117  0.00  0.00    +0.000 C 
BRANCH  15  16
ATOM     16  C   UNL     1       1.516   2.974  21.509  0.00  0.00    +0.000 C 
ATOM     17  O   UNL     1       1.134   2.234  22.399  0.00  0.00    +0.000 OA
BRANCH  16  18
ATOM     18  O   UNL     1       2.538   3.843  21.676  0.00  0.00    +0.000 OA
ATOM     19  H   UNL     1       2.385   4.724  21.286  0.00  0.00    +0.000 HD
ENDBRANCH  16  18
ENDBRANCH  15  16
ENDBRANCH  14  15
ENDBRANCH  13  14
ENDBRANCH  11  13
ENDBRANCH   8  11
ENDBRANCH   7   8
BRANCH   5  20
ATOM     20  C   UNL     1       1.521   7.455  20.633  0.00  0.00    +0.000 C 
ATOM     21  C   UNL     1       1.137   8.689  20.998  0.00  0.00    +0.000 C 
BRANCH  21  22
ATOM     22  C   UNL     1       0.245   8.848  22.164  0.00  0.00    +0.000 C 
ATOM     23  O   UNL     1      -0.869   8.365  22.257  0.00  0.00    +0.000 OA
BRANCH  22  24
ATOM     24  O   UNL     1       0.806   9.604  23.129  0.00  0.00    +0.000 OA
ATOM     25  H   UNL     1       0.609   9.337  24.044  0.00  0.00    +0.000 HD
ENDBRANCH  22  24
ENDBRANCH  21  22
ENDBRANCH   5  20
TORSDOF 10
ENDMDL
MODEL 4
REMARK VINA RESULT:      -6.9      3.372      6.965
REMARK  Name = 
REMARK  11 active torsions:
REMARK  status: ('A' for Active; 'I' for Inactive)
REMARK    1  A    between atoms: C_1  and  C_2
REMARK    2  A    between atoms: C_5  and  C_6
REMARK    3  A    between atoms: C_7  and  C_8
REMARK    4  A    between atoms: C_8  and  O_10
REMARK    5  A    between atoms: C_12  and  S_13
REMARK    6  A    between atoms: S_13  and  N_16
REMARK    7  A    between atoms: N_16  and  C_17
REMARK    8  A    between atoms: C_17  and  C_18
REMARK    9  A    between atoms: C_18  and  C_19
REMARK   10  A    between atoms: C_19  and  C_20
REMARK   11  A    between atoms: C_20  and  O_22
REMARK                            x       y       z     vdW  Elec       q    Type
REMARK                         _______ _______ _______ _____ _____    ______ ____
ROOT
ATOM      1  C   UNL     1       7.633   7.157  17.995  0.00  0.00    +0.000 C 
ATOM      2  C   UNL     1       7.072   6.175  17.006  0.00  0.00    +0.000 A 
ATOM      3  C   UNL     1       7.503   6.273  15.672  0.00  0.00    +0.000 A 
ATOM      4  C   UNL     1       7.044   5.386  14.694  0.00  0.00    +0.000 A 
ATOM      5  C   UNL     1       6.145   4.367  15.017  0.00  0.00    +0.000 A 
ATOM      6  C   UNL     1       5.694   4.271  16.340  0.00  0.00    +0.000 A 
ATOM      7  C   UNL     1       6.148   5.164  17.330  0.00  0.00    +0.000 A 
ENDROOT
BRANCH   7   8
ATOM      8  S   UNL     1       5.561   4.857  18.990  0.00  0.00    +0.000 S 
ATOM      9  O   UNL     1       6.723   4.898  19.855  0.00  0.00    +0.000 OA
ATOM     10  O   UNL     1       4.381   5.639  19.276  0.00  0.00    +0.000 OA
BRANCH   8  11
ATOM     11  N   UNL     1       5.086   3.233  18.947  0.00  0.00    +0.000 NA
ATOM     12  H   UNL     1       5.875   2.638  19.207  0.00  0.00    +0.000 HD
BRANCH  11  13
ATOM     13  C   UNL     1       3.782   2.897  19.532  0.00  0.00    +0.000 C 
BRANCH  13  14
ATOM     14  C   UNL     1       2.765   2.652  18.419  0.00  0.00    +0.000 C 
BRANCH  14  15
ATOM     15  C   UNL     1       1.637   3.682  18.469  0.00  0.00    +0.000 C 
BRANCH  15  16
ATOM     16  C   UNL     1       1.105   3.875  19.870  0.00  0.00    +0.000 C 
ATOM     17  O   UNL     1       1.266   4.872  20.552  0.00  0.00    +0.000 OA
BRANCH  16  18
ATOM     18  O   UNL     1       0.407   2.802  20.306  0.00  0.00    +0.000 OA
ATOM     19  H   UNL     1      -0.177   2.402  19.635  0.00  0.00    +0.000 HD
ENDBRANCH  16  18
ENDBRANCH  15  16
ENDBRANCH  14  15
ENDBRANCH  13  14
ENDBRANCH  11  13
ENDBRANCH   8  11
ENDBRANCH   7   8
BRANCH   5  20
ATOM     20  C   UNL     1       5.679   3.478  13.943  0.00  0.00    +0.000 C 
ATOM     21  C   UNL     1       5.519   3.845  12.661  0.00  0.00    +0.000 C 
BRANCH  21  22
ATOM     22  C   UNL     1       5.034   2.848  11.684  0.00  0.00    +0.000 C 
ATOM     23  O   UNL     1       5.564   1.772  11.469  0.00  0.00    +0.000 OA
BRANCH  22  24
ATOM     24  O   UNL     1       3.925   3.267  11.043  0.00  0.00    +0.000 OA
ATOM     25  H   UNL     1       3.472   2.599  10.498  0.00  0.00    +0.000 HD
ENDBRANCH  22  24
ENDBRANCH  21  22
ENDBRANCH   5  20
TORSDOF 10
ENDMDL
MODEL 5
REMARK VINA RESULT:      -6.9      2.979      6.676
REMARK  Name = 
REMARK  11 active torsions:
REMARK  status: ('A' for Active; 'I' for Inactive)
REMARK    1  A    between atoms: C_1  and  C_2
REMARK    2  A    between atoms: C_5  and  C_6
REMARK    3  A    between atoms: C_7  and  C_8
REMARK    4  A    between atoms: C_8  and  O_10
REMARK    5  A    between atoms: C_12  and  S_13
REMARK    6  A    between atoms: S_13  and  N_16
REMARK    7  A    between atoms: N_16  and  C_17
REMARK    8  A    between atoms: C_17  and  C_18
REMARK    9  A    between atoms: C_18  and  C_19
REMARK   10  A    between atoms: C_19  and  C_20
REMARK   11  A    between atoms: C_20  and  O_22
REMARK                            x       y       z     vdW  Elec       q    Type
REMARK                         _______ _______ _______ _____ _____    ______ ____
ROOT
ATOM      1  C   UNL     1       7.146   6.155  18.758  0.00  0.00    +0.000 C 
ATOM      2  C   UNL     1       6.569   5.540  17.515  0.00  0.00    +0.000 A 
ATOM      3  C   UNL     1       7.467   5.043  16.555  0.00  0.00    +0.000 A 
ATOM      4  C   UNL     1       7.013   4.439  15.379  0.00  0.00    +0.000 A 
ATOM      5  C   UNL     1       5.646   4.304  15.127  0.00  0.00    +0.000 A 
ATOM      6  C   UNL     1       4.741   4.814  16.066  0.00  0.00    +0.000 A 
ATOM      7  C   UNL     1       5.191   5.429  17.252  0.00  0.00    +0.000 A 
ENDROOT
BRANCH   7   8
ATOM      8  S   UNL     1       3.921   5.941  18.399  0.00  0.00    +0.000 S 
ATOM      9  O   UNL     1       4.300   5.417  19.697  0.00  0.00    +0.000 OA
ATOM     10  O   UNL     1       3.588   7.334  18.218  0.00  0.00    +0.000 OA
BRANCH   8  11
ATOM     11  N   UNL     1       2.571   5.037  17.925  0.00  0.00    +0.000 NA
ATOM     12  H   UNL     1       2.852   4.337  17.235  0.00  0.00    +0.000 HD
BRANCH  11  13
ATOM     13  C   UNL     1       1.651   4.595  18.981  0.00  0.00    +0.000 C 
BRANCH  13  14
ATOM     14  C   UNL     1       1.467   3.081  18.905  0.00  0.00    +0.000 C 
BRANCH  14  15
ATOM     15  C   UNL     1       2.510   2.357  19.755  0.00  0.00    +0.000 C 
BRANCH  15  16
ATOM     16  C   UNL     1       3.750   2.013  18.963  0.00  0.00    +0.000 C 
ATOM     17  O   UNL     1       3.766   1.371  17.926  0.00  0.00    +0.000 OA
BRANCH  16  18
ATOM     18  O   UNL     1       4.875   2.506  19.529  0.00  0.00    +0.000 OA
ATOM     19  H   UNL     1       5.072   2.142  20.413  0.00  0.00    +0.000 HD
ENDBRANCH  16  18
ENDBRANCH  15  16
ENDBRANCH  14  15
ENDBRANCH  13  14
ENDBRANCH  11  13
ENDBRANCH   8  11
ENDBRANCH   7   8
BRANCH   5  20
ATOM     20  C   UNL     1       5.226   3.682  13.863  0.00  0.00    +0.000 C 
ATOM     21  C   UNL     1       6.063   3.261  12.901  0.00  0.00    +0.000 C 
BRANCH  21  22
ATOM     22  C   UNL     1       5.502   2.658  11.674  0.00  0.00    +0.000 C 
ATOM     23  O   UNL     1       4.489   3.039  11.115  0.00  0.00    +0.000 OA
BRANCH  22  24
ATOM     24  O   UNL     1       6.243   1.621  11.236  0.00  0.00    +0.000 OA
ATOM     25  H   UNL     1       5.888   1.141  10.467  0.00  0.00    +0.000 HD
ENDBRANCH  22  24
ENDBRANCH  21  22
ENDBRANCH   5  20
TORSDOF 10
ENDMDL
MODEL 6
REMARK VINA RESULT:      -6.9      0.872      1.076
REMARK  Name = 
REMARK  11 active torsions:
REMARK  status: ('A' for Active; 'I' for Inactive)
REMARK    1  A    between atoms: C_1  and  C_2
REMARK    2  A    between atoms: C_5  and  C_6
REMARK    3  A    between atoms: C_7  and  C_8
REMARK    4  A    between atoms: C_8  and  O_10
REMARK    5  A    between atoms: C_12  and  S_13
REMARK    6  A    between atoms: S_13  and  N_16
REMARK    7  A    between atoms: N_16  and  C_17
REMARK    8  A    between atoms: C_17  and  C_18
REMARK    9  A    between atoms: C_18  and  C_19
REMARK   10  A    between atoms: C_19  and  C_20
REMARK   11  A    between atoms: C_20  and  O_22
REMARK                            x       y       z     vdW  Elec       q    Type
REMARK                         _______ _______ _______ _____ _____    ______ ____
ROOT
ATOM      1  C   UNL     1       2.466   2.743  21.505  0.00  0.00    +0.000 C 
ATOM      2  C   UNL     1       2.438   4.008  20.696  0.00  0.00    +0.000 A 
ATOM      3  C   UNL     1       1.690   5.087  21.197  0.00  0.00    +0.000 A 
ATOM      4  C   UNL     1       1.626   6.306  20.515  0.00  0.00    +0.000 A 
ATOM      5  C   UNL     1       2.314   6.490  19.313  0.00  0.00    +0.000 A 
ATOM      6  C   UNL     1       3.047   5.415  18.793  0.00  0.00    +0.000 A 
ATOM      7  C   UNL     1       3.112   4.182  19.472  0.00  0.00    +0.000 A 
ENDROOT
BRANCH   7   8
ATOM      8  S   UNL     1       4.164   2.939  18.738  0.00  0.00    +0.000 S 
ATOM      9  O   UNL     1       5.020   2.442  19.798  0.00  0.00    +0.000 OA
ATOM     10  O   UNL     1       3.402   2.041  17.903  0.00  0.00    +0.000 OA
BRANCH   8  11
ATOM     11  N   UNL     1       5.179   3.831  17.719  0.00  0.00    +0.000 NA
ATOM     12  H   UNL     1       6.147   3.536  17.856  0.00  0.00    +0.000 HD
BRANCH  11  13
ATOM     13  C   UNL     1       4.735   4.030  16.333  0.00  0.00    +0.000 C 
BRANCH  13  14
ATOM     14  C   UNL     1       5.822   3.557  15.370  0.00  0.00    +0.000 C 
BRANCH  14  15
ATOM     15  C   UNL     1       6.688   4.726  14.902  0.00  0.00    +0.000 C 
BRANCH  15  16
ATOM     16  C   UNL     1       7.432   5.376  16.045  0.00  0.00    +0.000 C 
ATOM     17  O   UNL     1       7.482   6.575  16.261  0.00  0.00    +0.000 OA
BRANCH  16  18
ATOM     18  O   UNL     1       8.054   4.470  16.833  0.00  0.00    +0.000 OA
ATOM     19  H   UNL     1       8.729   4.849  17.427  0.00  0.00    +0.000 HD
ENDBRANCH  16  18
ENDBRANCH  15  16
ENDBRANCH  14  15
ENDBRANCH  13  14
ENDBRANCH  11  13
ENDBRANCH   8  11
ENDBRANCH   7   8
BRANCH   5  20
ATOM     20  C   UNL     1       2.192   7.785  18.628  0.00  0.00    +0.000 C 
ATOM     21  C   UNL     1       1.558   8.859  19.127  0.00  0.00    +0.000 C 
BRANCH  21  22
ATOM     22  C   UNL     1       1.505  10.098  18.324  0.00  0.00    +0.000 C 
ATOM     23  O   UNL     1       0.803  11.060  18.579  0.00  0.00    +0.000 OA
BRANCH  22  24
ATOM     24  O   UNL     1       2.329  10.045  17.258  0.00  0.00    +0.000 OA
ATOM     25  H   UNL     1       2.124  10.662  16.534  0.00  0.00    +0.000 HD
ENDBRANCH  22  24
ENDBRANCH  21  22
ENDBRANCH   5  20
TORSDOF 10
ENDMDL
MODEL 7
REMARK VINA RESULT:      -6.9      2.528      3.120
REMARK  Name = 
REMARK  11 active torsions:
REMARK  status: ('A' for Active; 'I' for Inactive)
REMARK    1  A    between atoms: C_1  and  C_2
REMARK    2  A    between atoms: C_5  and  C_6
REMARK    3  A    between atoms: C_7  and  C_8
REMARK    4  A    between atoms: C_8  and  O_10
REMARK    5  A    between atoms: C_12  and  S_13
REMARK    6  A    between atoms: S_13  and  N_16
REMARK    7  A    between atoms: N_16  and  C_17
REMARK    8  A    between atoms: C_17  and  C_18
REMARK    9  A    between atoms: C_18  and  C_19
REMARK   10  A    between atoms: C_19  and  C_20
REMARK   11  A    between atoms: C_20  and  O_22
REMARK                            x       y       z     vdW  Elec       q    Type
REMARK                         _______ _______ _______ _____ _____    ______ ____
ROOT
ATOM      1  C   UNL     1       4.116   3.026  18.081  0.00  0.00    +0.000 C 
ATOM      2  C   UNL     1       3.743   4.477  17.977  0.00  0.00    +0.000 A 
ATOM      3  C   UNL     1       2.380   4.809  18.066  0.00  0.00    +0.000 A 
ATOM      4  C   UNL     1       1.950   6.137  17.997  0.00  0.00    +0.000 A 
ATOM      5  C   UNL     1       2.868   7.179  17.845  0.00  0.00    +0.000 A 
ATOM      6  C   UNL     1       4.227   6.860  17.736  0.00  0.00    +0.000 A 
ATOM      7  C   UNL     1       4.668   5.523  17.800  0.00  0.00    +0.000 A 
ENDROOT
BRANCH   7   8
ATOM      8  S   UNL     1       6.437   5.279  17.745  0.00  0.00    +0.000 S 
ATOM      9  O   UNL     1       7.015   6.535  17.312  0.00  0.00    +0.000 OA
ATOM     10  O   UNL     1       6.905   4.604  18.932  0.00  0.00    +0.000 OA
BRANCH   8  11
ATOM     11  N   UNL     1       6.650   4.213  16.447  0.00  0.00    +0.000 NA
ATOM     12  H   UNL     1       6.349   3.276  16.719  0.00  0.00    +0.000 HD
BRANCH  11  13
ATOM     13  C   UNL     1       6.239   4.682  15.117  0.00  0.00    +0.000 C 
BRANCH  13  14
ATOM     14  C   UNL     1       6.138   3.495  14.160  0.00  0.00    +0.000 C 
BRANCH  14  15
ATOM     15  C   UNL     1       6.006   3.967  12.712  0.00  0.00    +0.000 C 
BRANCH  15  16
ATOM     16  C   UNL     1       5.271   2.964  11.853  0.00  0.00    +0.000 C 
ATOM     17  O   UNL     1       4.209   3.167  11.288  0.00  0.00    +0.000 OA
BRANCH  16  18
ATOM     18  O   UNL     1       5.927   1.785  11.765  0.00  0.00    +0.000 OA
ATOM     19  H   UNL     1       5.663   1.234  11.003  0.00  0.00    +0.000 HD
ENDBRANCH  16  18
ENDBRANCH  15  16
ENDBRANCH  14  15
ENDBRANCH  13  14
ENDBRANCH  11  13
ENDBRANCH   8  11
ENDBRANCH   7   8
BRANCH   5  20
ATOM     20  C   UNL     1       2.356   8.555  17.756  0.00  0.00    +0.000 C 
ATOM     21  C   UNL     1       1.562   9.138  18.668  0.00  0.00    +0.000 C 
BRANCH  21  22
ATOM     22  C   UNL     1       1.114  10.528  18.447  0.00  0.00    +0.000 C 
ATOM     23  O   UNL     1       1.764  11.519  18.728  0.00  0.00    +0.000 OA
BRANCH  22  24
ATOM     24  O   UNL     1      -0.114  10.581  17.895  0.00  0.00    +0.000 OA
ATOM     25  H   UNL     1      -0.554   9.724  17.757  0.00  0.00    +0.000 HD
ENDBRANCH  22  24
ENDBRANCH  21  22
ENDBRANCH   5  20
TORSDOF 10
ENDMDL
MODEL 8
REMARK VINA RESULT:      -6.9      3.375      6.990
REMARK  Name = 
REMARK  11 active torsions:
REMARK  status: ('A' for Active; 'I' for Inactive)
REMARK    1  A    between atoms: C_1  and  C_2
REMARK    2  A    between atoms: C_5  and  C_6
REMARK    3  A    between atoms: C_7  and  C_8
REMARK    4  A    between atoms: C_8  and  O_10
REMARK    5  A    between atoms: C_12  and  S_13
REMARK    6  A    between atoms: S_13  and  N_16
REMARK    7  A    between atoms: N_16  and  C_17
REMARK    8  A    between atoms: C_17  and  C_18
REMARK    9  A    between atoms: C_18  and  C_19
REMARK   10  A    between atoms: C_19  and  C_20
REMARK   11  A    between atoms: C_20  and  O_22
REMARK                            x       y       z     vdW  Elec       q    Type
REMARK                         _______ _______ _______ _____ _____    ______ ____
ROOT
ATOM      1  C   UNL     1       6.810   5.517  18.958  0.00  0.00    +0.000 C 
ATOM      2  C   UNL     1       6.507   5.047  17.565  0.00  0.00    +0.000 A 
ATOM      3  C   UNL     1       7.343   5.492  16.527  0.00  0.00    +0.000 A 
ATOM      4  C   UNL     1       7.141   5.087  15.205  0.00  0.00    +0.000 A 
ATOM      5  C   UNL     1       6.100   4.216  14.876  0.00  0.00    +0.000 A 
ATOM      6  C   UNL     1       5.247   3.780  15.897  0.00  0.00    +0.000 A 
ATOM      7  C   UNL     1       5.442   4.188  17.232  0.00  0.00    +0.000 A 
ENDROOT
BRANCH   7   8
ATOM      8  S   UNL     1       4.336   3.473  18.438  0.00  0.00    +0.000 S 
ATOM      9  O   UNL     1       3.756   2.296  17.822  0.00  0.00    +0.000 OA
ATOM     10  O   UNL     1       4.956   3.412  19.741  0.00  0.00    +0.000 OA
BRANCH   8  11
ATOM     11  N   UNL     1       3.075   4.598  18.536  0.00  0.00    +0.000 NA
ATOM     12  H   UNL     1       2.181   4.124  18.398  0.00  0.00    +0.000 HD
BRANCH  11  13
ATOM     13  C   UNL     1       3.141   5.590  19.617  0.00  0.00    +0.000 C 
BRANCH  13  14
ATOM     14  C   UNL     1       1.940   5.421  20.547  0.00  0.00    +0.000 C 
BRANCH  14  15
ATOM     15  C   UNL     1       2.191   4.314  21.570  0.00  0.00    +0.000 C 
BRANCH  15  16
ATOM     16  C   UNL     1       1.483   3.030  21.204  0.00  0.00    +0.000 C 
ATOM     17  O   UNL     1       0.974   2.792  20.122  0.00  0.00    +0.000 OA
BRANCH  16  18
ATOM     18  O   UNL     1       1.471   2.141  22.223  0.00  0.00    +0.000 OA
ATOM     19  H   UNL     1       2.151   2.301  22.904  0.00  0.00    +0.000 HD
ENDBRANCH  16  18
ENDBRANCH  15  16
ENDBRANCH  14  15
ENDBRANCH  13  14
ENDBRANCH  11  13
ENDBRANCH   8  11
ENDBRANCH   7   8
BRANCH   5  20
ATOM     20  C   UNL     1       5.921   3.842  13.465  0.00  0.00    +0.000 C 
ATOM     21  C   UNL     1       4.782   3.365  12.937  0.00  0.00    +0.000 C 
BRANCH  21  22
ATOM     22  C   UNL     1       4.745   3.021  11.501  0.00  0.00    +0.000 C 
ATOM     23  O   UNL     1       4.119   3.636  10.657  0.00  0.00    +0.000 OA
BRANCH  22  24
ATOM     24  O   UNL     1       5.487   1.931  11.224  0.00  0.00    +0.000 OA
ATOM     25  H   UNL     1       5.324   1.153  11.785  0.00  0.00    +0.000 HD
ENDBRANCH  22  24
ENDBRANCH  21  22
ENDBRANCH   5  20
TORSDOF 10
ENDMDL
MODEL 9
REMARK VINA RESULT:      -6.9      1.130      1.565
REMARK  Name = 
REMARK  11 active torsions:
REMARK  status: ('A' for Active; 'I' for Inactive)
REMARK    1  A    between atoms: C_1  and  C_2
REMARK    2  A    between atoms: C_5  and  C_6
REMARK    3  A    between atoms: C_7  and  C_8
REMARK    4  A    between atoms: C_8  and  O_10
REMARK    5  A    between atoms: C_12  and  S_13
REMARK    6  A    between atoms: S_13  and  N_16
REMARK    7  A    between atoms: N_16  and  C_17
REMARK    8  A    between atoms: C_17  and  C_18
REMARK    9  A    between atoms: C_18  and  C_19
REMARK   10  A    between atoms: C_19  and  C_20
REMARK   11  A    between atoms: C_20  and  O_22
REMARK                            x       y       z     vdW  Elec       q    Type
REMARK                         _______ _______ _______ _____ _____    ______ ____
ROOT
ATOM      1  C   UNL     1       2.191   2.660  21.536  0.00  0.00    +0.000 C 
ATOM      2  C   UNL     1       2.291   3.907  20.705  0.00  0.00    +0.000 A 
ATOM      3  C   UNL     1       1.549   5.027  21.115  0.00  0.00    +0.000 A 
ATOM      4  C   UNL     1       1.600   6.232  20.409  0.00  0.00    +0.000 A 
ATOM      5  C   UNL     1       2.401   6.361  19.272  0.00  0.00    +0.000 A 
ATOM      6  C   UNL     1       3.131   5.246  18.841  0.00  0.00    +0.000 A 
ATOM      7  C   UNL     1       3.081   4.026  19.546  0.00  0.00    +0.000 A 
ENDROOT
BRANCH   7   8
ATOM      8  S   UNL     1       4.141   2.724  18.935  0.00  0.00    +0.000 S 
ATOM      9  O   UNL     1       4.862   2.205  20.080  0.00  0.00    +0.000 OA
ATOM     10  O   UNL     1       3.424   1.850  18.036  0.00  0.00    +0.000 OA
BRANCH   8  11
ATOM     11  N   UNL     1       5.294   3.553  18.013  0.00  0.00    +0.000 NA
ATOM     12  H   UNL     1       6.230   3.229  18.263  0.00  0.00    +0.000 HD
BRANCH  11  13
ATOM     13  C   UNL     1       5.012   3.730  16.583  0.00  0.00    +0.000 C 
BRANCH  13  14
ATOM     14  C   UNL     1       6.014   4.711  15.977  0.00  0.00    +0.000 C 
BRANCH  14  15
ATOM     15  C   UNL     1       6.543   5.679  17.035  0.00  0.00    +0.000 C 
BRANCH  15  16
ATOM     16  C   UNL     1       7.585   5.037  17.922  0.00  0.00    +0.000 C 
ATOM     17  O   UNL     1       7.801   5.337  19.084  0.00  0.00    +0.000 OA
BRANCH  16  18
ATOM     18  O   UNL     1       8.273   4.063  17.284  0.00  0.00    +0.000 OA
ATOM     19  H   UNL     1       8.761   4.366  16.495  0.00  0.00    +0.000 HD
ENDBRANCH  16  18
ENDBRANCH  15  16
ENDBRANCH  14  15
ENDBRANCH  13  14
ENDBRANCH  11  13
ENDBRANCH   8  11
ENDBRANCH   7   8
BRANCH   5  20
ATOM     20  C   UNL     1       2.398   7.644  18.555  0.00  0.00    +0.000 C 
ATOM     21  C   UNL     1       1.552   8.657  18.801  0.00  0.00    +0.000 C 
BRANCH  21  22
ATOM     22  C   UNL     1       1.656   9.892  17.997  0.00  0.00    +0.000 C 
ATOM     23  O   UNL     1       2.703  10.402  17.641  0.00  0.00    +0.000 OA
BRANCH  22  24
ATOM     24  O   UNL     1       0.445  10.403  17.697  0.00  0.00    +0.000 OA
ATOM     25  H   UNL     1      -0.032   9.964  16.971  0.00  0.00    +0.000 HD
ENDBRANCH  22  24
ENDBRANCH  21  22
ENDBRANCH   5  20
TORSDOF 10
ENDMDL
