MODEL 1
REMARK VINA RESULT:      -6.8      0.000      0.000
REMARK  Name = 
REMARK  7 active torsions:
REMARK  status: ('A' for Active; 'I' for Inactive)
REMARK    1  A    between atoms: C_1  and  C_2
REMARK    2  A    between atoms: C_2  and  C_3
REMARK    3  A    between atoms: C_4  and  C_5
REMARK    4  A    between atoms: C_5  and  N_6
REMARK    5  A    between atoms: C_7  and  C_8
REMARK    6  A    between atoms: C_19  and  C_20
REMARK    7  A    between atoms: C_21  and  C_22
REMARK                            x       y       z     vdW  Elec       q    Type
REMARK                         _______ _______ _______ _____ _____    ______ ____
ROOT
ATOM      1  N   UNL     1       1.810   6.353  19.063  0.00  0.00    +0.000 NA
ATOM      2  C   UNL     1       2.442   6.740  17.761  0.00  0.00    +0.000 C 
ATOM      3  C   UNL     1       2.085   8.191  17.386  0.00  0.00    +0.000 C 
ATOM      4  C   UNL     1       3.930   6.410  17.678  0.00  0.00    +0.000 A 
ATOM      5  C   UNL     1       4.903   7.322  17.224  0.00  0.00    +0.000 A 
ATOM      6  C   UNL     1       6.288   7.071  17.370  0.00  0.00    +0.000 A 
ATOM      7  C   UNL     1       6.747   5.913  17.991  0.00  0.00    +0.000 A 
ATOM      8  C   UNL     1       5.790   5.004  18.374  0.00  0.00    +0.000 A 
ATOM      9  N   UNL     1       5.948   3.803  19.054  0.00  0.00    +0.000 N 
ATOM     10  C   UNL     1       4.687   3.221  19.260  0.00  0.00    +0.000 A 
ATOM     11  S   UNL     1       4.506   1.831  20.139  0.00  0.00    +0.000 S 
ATOM     12  N   UNL     1       3.744   4.057  18.626  0.00  0.00    +0.000 N 
ATOM     13  C   UNL     1       4.429   5.207  18.169  0.00  0.00    +0.000 A 
ATOM     14  C   UNL     1       2.319   3.904  18.313  0.00  0.00    +0.000 C 
ATOM     15  C   UNL     1       1.788   2.465  18.268  0.00  0.00    +0.000 C 
ATOM     16  C   UNL     1       1.417   4.906  19.112  0.00  0.00    +0.000 C 
ATOM     17  C   UNL     1       1.093   4.361  20.515  0.00  0.00    +0.000 C 
ATOM     18  H   UNL     1       6.813   3.429  19.410  0.00  0.00    +0.000 HD
ENDROOT
BRANCH   1  19
ATOM     19  C   UNL     1       2.458   6.910  20.270  0.00  0.00    +0.000 C 
BRANCH  19  23
ATOM     20  C   UNL     1      -0.401   8.848  22.112  0.00  0.00    +0.000 C 
ATOM     21  C   UNL     1       0.751   8.600  21.178  0.00  0.00    +0.000 C 
ATOM     22  C   UNL     1       1.021   9.675  20.165  0.00  0.00    +0.000 C 
ATOM     23  C   UNL     1       1.431   7.438  21.238  0.00  0.00    +0.000 C 
ENDBRANCH  19  23
ENDBRANCH   1  19
TORSDOF 2
ENDMDL
MODEL 2
REMARK VINA RESULT:      -6.3      5.867      8.375
REMARK  Name = 
REMARK  7 active torsions:
REMARK  status: ('A' for Active; 'I' for Inactive)
REMARK    1  A    between atoms: C_1  and  C_2
REMARK    2  A    between atoms: C_2  and  C_3
REMARK    3  A    between atoms: C_4  and  C_5
REMARK    4  A    between atoms: C_5  and  N_6
REMARK    5  A    between atoms: C_7  and  C_8
REMARK    6  A    between atoms: C_19  and  C_20
REMARK    7  A    between atoms: C_21  and  C_22
REMARK                            x       y       z     vdW  Elec       q    Type
REMARK                         _______ _______ _______ _____ _____    ______ ____
ROOT
ATOM      1  N   UNL     1       0.595  11.939  18.665  0.00  0.00    +0.000 NA
ATOM      2  C   UNL     1       0.507  10.448  18.784  0.00  0.00    +0.000 C 
ATOM      3  C   UNL     1       1.635   9.765  17.986  0.00  0.00    +0.000 C 
ATOM      4  C   UNL     1       0.355   9.954  20.221  0.00  0.00    +0.000 A 
ATOM      5  C   UNL     1       1.124   8.906  20.766  0.00  0.00    +0.000 A 
ATOM      6  C   UNL     1       1.122   8.622  22.152  0.00  0.00    +0.000 A 
ATOM      7  C   UNL     1       0.371   9.386  23.041  0.00  0.00    +0.000 A 
ATOM      8  C   UNL     1      -0.420  10.365  22.490  0.00  0.00    +0.000 A 
ATOM      9  N   UNL     1      -1.223  11.302  23.128  0.00  0.00    +0.000 N 
ATOM     10  C   UNL     1      -1.824  12.126  22.163  0.00  0.00    +0.000 A 
ATOM     11  S   UNL     1      -2.762  13.420  22.591  0.00  0.00    +0.000 S 
ATOM     12  N   UNL     1      -1.431  11.632  20.902  0.00  0.00    +0.000 N 
ATOM     13  C   UNL     1      -0.483  10.604  21.121  0.00  0.00    +0.000 A 
ATOM     14  C   UNL     1      -1.868  11.918  19.531  0.00  0.00    +0.000 C 
ATOM     15  C   UNL     1      -3.259  12.549  19.384  0.00  0.00    +0.000 C 
ATOM     16  C   UNL     1      -0.750  12.604  18.674  0.00  0.00    +0.000 C 
ATOM     17  C   UNL     1      -0.727  14.125  18.909  0.00  0.00    +0.000 C 
ATOM     18  H   UNL     1      -1.316  11.428  24.123  0.00  0.00    +0.000 HD
ENDROOT
BRANCH   1  19
ATOM     19  C   UNL     1       1.660  12.575  19.471  0.00  0.00    +0.000 C 
BRANCH  19  23
ATOM     20  C   UNL     1       4.355  14.904  17.844  0.00  0.00    +0.000 C 
ATOM     21  C   UNL     1       3.175  14.494  18.682  0.00  0.00    +0.000 C 
ATOM     22  C   UNL     1       2.665  15.522  19.650  0.00  0.00    +0.000 C 
ATOM     23  C   UNL     1       2.679  13.244  18.584  0.00  0.00    +0.000 C 
ENDBRANCH  19  23
ENDBRANCH   1  19
TORSDOF 2
ENDMDL
MODEL 3
REMARK VINA RESULT:      -6.1      8.973     10.906
REMARK  Name = 
REMARK  7 active torsions:
REMARK  status: ('A' for Active; 'I' for Inactive)
REMARK    1  A    between atoms: C_1  and  C_2
REMARK    2  A    between atoms: C_2  and  C_3
REMARK    3  A    between atoms: C_4  and  C_5
REMARK    4  A    between atoms: C_5  and  N_6
REMARK    5  A    between atoms: C_7  and  C_8
REMARK    6  A    between atoms: C_19  and  C_20
REMARK    7  A    between atoms: C_21  and  C_22
REMARK                            x       y       z     vdW  Elec       q    Type
REMARK                         _______ _______ _______ _____ _____    ______ ____
ROOT
ATOM      1  N   UNL     1       8.824  14.597  21.571  0.00  0.00    +0.000 NA
ATOM      2  C   UNL     1       9.485  13.274  21.805  0.00  0.00    +0.000 C 
ATOM      3  C   UNL     1       8.776  12.497  22.933  0.00  0.00    +0.000 C 
ATOM      4  C   UNL     1       9.719  12.469  20.529  0.00  0.00    +0.000 A 
ATOM      5  C   UNL     1       9.390  11.105  20.401  0.00  0.00    +0.000 A 
ATOM      6  C   UNL     1       9.408  10.447  19.148  0.00  0.00    +0.000 A 
ATOM      7  C   UNL     1       9.732  11.133  17.981  0.00  0.00    +0.000 A 
ATOM      8  C   UNL     1      10.110  12.446  18.128  0.00  0.00    +0.000 A 
ATOM      9  N   UNL     1      10.430  13.377  17.149  0.00  0.00    +0.000 N 
ATOM     10  C   UNL     1      10.723  14.607  17.761  0.00  0.00    +0.000 A 
ATOM     11  S   UNL     1      11.041  15.965  16.871  0.00  0.00    +0.000 S 
ATOM     12  N   UNL     1      10.646  14.398  19.154  0.00  0.00    +0.000 N 
ATOM     13  C   UNL     1      10.167  13.082  19.364  0.00  0.00    +0.000 A 
ATOM     14  C   UNL     1      11.028  15.210  20.313  0.00  0.00    +0.000 C 
ATOM     15  C   UNL     1      12.064  16.312  20.053  0.00  0.00    +0.000 C 
ATOM     16  C   UNL     1       9.792  15.668  21.161  0.00  0.00    +0.000 C 
ATOM     17  C   UNL     1       9.155  16.938  20.571  0.00  0.00    +0.000 C 
ATOM     18  H   UNL     1      10.397  13.231  16.152  0.00  0.00    +0.000 HD
ENDROOT
BRANCH   1  19
ATOM     19  C   UNL     1       7.541  14.542  20.837  0.00  0.00    +0.000 C 
BRANCH  19  23
ATOM     20  C   UNL     1       4.040  15.064  22.511  0.00  0.00    +0.000 C 
ATOM     21  C   UNL     1       5.082  14.991  21.429  0.00  0.00    +0.000 C 
ATOM     22  C   UNL     1       4.569  15.014  20.018  0.00  0.00    +0.000 C 
ATOM     23  C   UNL     1       6.383  14.847  21.751  0.00  0.00    +0.000 C 
ENDBRANCH  19  23
ENDBRANCH   1  19
TORSDOF 2
ENDMDL
MODEL 4
REMARK VINA RESULT:      -5.9      8.953     12.250
REMARK  Name = 
REMARK  7 active torsions:
REMARK  status: ('A' for Active; 'I' for Inactive)
REMARK    1  A    between atoms: C_1  and  C_2
REMARK    2  A    between atoms: C_2  and  C_3
REMARK    3  A    between atoms: C_4  and  C_5
REMARK    4  A    between atoms: C_5  and  N_6
REMARK    5  A    between atoms: C_7  and  C_8
REMARK    6  A    between atoms: C_19  and  C_20
REMARK    7  A    between atoms: C_21  and  C_22
REMARK                            x       y       z     vdW  Elec       q    Type
REMARK                         _______ _______ _______ _____ _____    ______ ____
ROOT
ATOM      1  N   UNL     1      -4.783  13.185  19.608  0.00  0.00    +0.000 NA
ATOM      2  C   UNL     1      -5.749  12.462  18.719  0.00  0.00    +0.000 C 
ATOM      3  C   UNL     1      -5.044  11.937  17.453  0.00  0.00    +0.000 C 
ATOM      4  C   UNL     1      -6.597  11.424  19.450  0.00  0.00    +0.000 A 
ATOM      5  C   UNL     1      -6.794  10.111  18.979  0.00  0.00    +0.000 A 
ATOM      6  C   UNL     1      -7.393   9.111  19.782  0.00  0.00    +0.000 A 
ATOM      7  C   UNL     1      -7.795   9.383  21.086  0.00  0.00    +0.000 A 
ATOM      8  C   UNL     1      -7.653  10.682  21.512  0.00  0.00    +0.000 A 
ATOM      9  N   UNL     1      -7.916  11.224  22.764  0.00  0.00    +0.000 N 
ATOM     10  C   UNL     1      -7.591  12.590  22.751  0.00  0.00    +0.000 A 
ATOM     11  S   UNL     1      -7.684  13.516  24.119  0.00  0.00    +0.000 S 
ATOM     12  N   UNL     1      -7.187  12.901  21.436  0.00  0.00    +0.000 N 
ATOM     13  C   UNL     1      -7.134  11.689  20.706  0.00  0.00    +0.000 A 
ATOM     14  C   UNL     1      -6.923  14.164  20.740  0.00  0.00    +0.000 C 
ATOM     15  C   UNL     1      -7.561  15.419  21.351  0.00  0.00    +0.000 C 
ATOM     16  C   UNL     1      -5.415  14.329  20.344  0.00  0.00    +0.000 C 
ATOM     17  C   UNL     1      -4.592  14.887  21.519  0.00  0.00    +0.000 C 
ATOM     18  H   UNL     1      -8.225  10.719  23.580  0.00  0.00    +0.000 HD
ENDROOT
BRANCH   1  19
ATOM     19  C   UNL     1      -3.864  12.320  20.379  0.00  0.00    +0.000 C 
BRANCH  19  23
ATOM     20  C   UNL     1       0.021  12.311  19.895  0.00  0.00    +0.000 C 
ATOM     21  C   UNL     1      -1.306  12.351  20.603  0.00  0.00    +0.000 C 
ATOM     22  C   UNL     1      -1.263  12.172  22.093  0.00  0.00    +0.000 C 
ATOM     23  C   UNL     1      -2.446  12.474  19.894  0.00  0.00    +0.000 C 
ENDBRANCH  19  23
ENDBRANCH   1  19
TORSDOF 2
ENDMDL
MODEL 5
REMARK VINA RESULT:      -5.9      5.861      8.685
REMARK  Name = 
REMARK  7 active torsions:
REMARK  status: ('A' for Active; 'I' for Inactive)
REMARK    1  A    between atoms: C_1  and  C_2
REMARK    2  A    between atoms: C_2  and  C_3
REMARK    3  A    between atoms: C_4  and  C_5
REMARK    4  A    between atoms: C_5  and  N_6
REMARK    5  A    between atoms: C_7  and  C_8
REMARK    6  A    between atoms: C_19  and  C_20
REMARK    7  A    between atoms: C_21  and  C_22
REMARK                            x       y       z     vdW  Elec       q    Type
REMARK                         _______ _______ _______ _____ _____    ______ ____
ROOT
ATOM      1  N   UNL     1      -0.899  13.375  20.436  0.00  0.00    +0.000 NA
ATOM      2  C   UNL     1      -2.279  12.798  20.529  0.00  0.00    +0.000 C 
ATOM      3  C   UNL     1      -3.312  13.893  20.863  0.00  0.00    +0.000 C 
ATOM      4  C   UNL     1      -2.654  11.910  19.346  0.00  0.00    +0.000 A 
ATOM      5  C   UNL     1      -3.876  12.017  18.652  0.00  0.00    +0.000 A 
ATOM      6  C   UNL     1      -4.103  11.342  17.429  0.00  0.00    +0.000 A 
ATOM      7  C   UNL     1      -3.111  10.555  16.849  0.00  0.00    +0.000 A 
ATOM      8  C   UNL     1      -1.947  10.410  17.566  0.00  0.00    +0.000 A 
ATOM      9  N   UNL     1      -0.784   9.738  17.215  0.00  0.00    +0.000 N 
ATOM     10  C   UNL     1       0.160   9.884  18.244  0.00  0.00    +0.000 A 
ATOM     11  S   UNL     1       1.699   9.294  18.100  0.00  0.00    +0.000 S 
ATOM     12  N   UNL     1      -0.472  10.605  19.279  0.00  0.00    +0.000 N 
ATOM     13  C   UNL     1      -1.743  11.010  18.804  0.00  0.00    +0.000 A 
ATOM     14  C   UNL     1      -0.103  10.900  20.667  0.00  0.00    +0.000 C 
ATOM     15  C   UNL     1       0.936   9.966  21.302  0.00  0.00    +0.000 C 
ATOM     16  C   UNL     1       0.162  12.426  20.907  0.00  0.00    +0.000 C 
ATOM     17  C   UNL     1       1.602  12.806  20.518  0.00  0.00    +0.000 C 
ATOM     18  H   UNL     1      -0.604   9.274  16.339  0.00  0.00    +0.000 HD
ENDROOT
BRANCH   1  19
ATOM     19  C   UNL     1      -0.614  14.136  19.200  0.00  0.00    +0.000 C 
BRANCH  19  23
ATOM     20  C   UNL     1       0.287  17.943  19.334  0.00  0.00    +0.000 C 
ATOM     21  C   UNL     1       0.478  16.460  19.175  0.00  0.00    +0.000 C 
ATOM     22  C   UNL     1       1.794  16.024  18.597  0.00  0.00    +0.000 C 
ATOM     23  C   UNL     1      -0.524  15.612  19.484  0.00  0.00    +0.000 C 
ENDBRANCH  19  23
ENDBRANCH   1  19
TORSDOF 2
ENDMDL
MODEL 6
REMARK VINA RESULT:      -5.8      5.282      8.168
REMARK  Name = 
REMARK  7 active torsions:
REMARK  status: ('A' for Active; 'I' for Inactive)
REMARK    1  A    between atoms: C_1  and  C_2
REMARK    2  A    between atoms: C_2  and  C_3
REMARK    3  A    between atoms: C_4  and  C_5
REMARK    4  A    between atoms: C_5  and  N_6
REMARK    5  A    between atoms: C_7  and  C_8
REMARK    6  A    between atoms: C_19  and  C_20
REMARK    7  A    between atoms: C_21  and  C_22
REMARK                            x       y       z     vdW  Elec       q    Type
REMARK                         _______ _______ _______ _____ _____    ______ ____
ROOT
ATOM      1  N   UNL     1      -1.802  12.801  19.786  0.00  0.00    +0.000 NA
ATOM      2  C   UNL     1      -1.338  12.929  21.205  0.00  0.00    +0.000 C 
ATOM      3  C   UNL     1      -2.424  13.583  22.082  0.00  0.00    +0.000 C 
ATOM      4  C   UNL     1      -0.750  11.641  21.777  0.00  0.00    +0.000 A 
ATOM      5  C   UNL     1      -1.102  11.120  23.038  0.00  0.00    +0.000 A 
ATOM      6  C   UNL     1      -0.716   9.820  23.443  0.00  0.00    +0.000 A 
ATOM      7  C   UNL     1       0.015   8.992  22.597  0.00  0.00    +0.000 A 
ATOM      8  C   UNL     1       0.404   9.533  21.395  0.00  0.00    +0.000 A 
ATOM      9  N   UNL     1       1.085   8.932  20.345  0.00  0.00    +0.000 N 
ATOM     10  C   UNL     1       1.237   9.860  19.303  0.00  0.00    +0.000 A 
ATOM     11  S   UNL     1       1.913   9.434  17.854  0.00  0.00    +0.000 S 
ATOM     12  N   UNL     1       0.695  11.079  19.760  0.00  0.00    +0.000 N 
ATOM     13  C   UNL     1       0.093  10.836  21.018  0.00  0.00    +0.000 A 
ATOM     14  C   UNL     1       0.726  12.450  19.238  0.00  0.00    +0.000 C 
ATOM     15  C   UNL     1       1.856  12.771  18.251  0.00  0.00    +0.000 C 
ATOM     16  C   UNL     1      -0.689  12.956  18.793  0.00  0.00    +0.000 C 
ATOM     17  C   UNL     1      -1.017  12.495  17.362  0.00  0.00    +0.000 C 
ATOM     18  H   UNL     1       1.371   7.967  20.295  0.00  0.00    +0.000 HD
ENDROOT
BRANCH   1  19
ATOM     19  C   UNL     1      -2.775  11.715  19.534  0.00  0.00    +0.000 C 
BRANCH  19  23
ATOM     20  C   UNL     1      -6.382  12.494  18.225  0.00  0.00    +0.000 C 
ATOM     21  C   UNL     1      -4.953  12.022  18.209  0.00  0.00    +0.000 C 
ATOM     22  C   UNL     1      -4.539  11.216  17.012  0.00  0.00    +0.000 C 
ATOM     23  C   UNL     1      -4.147  12.274  19.259  0.00  0.00    +0.000 C 
ENDBRANCH  19  23
ENDBRANCH   1  19
TORSDOF 2
ENDMDL
MODEL 7
REMARK VINA RESULT:      -5.7      6.675      9.161
REMARK  Name = 
REMARK  7 active torsions:
REMARK  status: ('A' for Active; 'I' for Inactive)
REMARK    1  A    between atoms: C_1  and  C_2
REMARK    2  A    between atoms: C_2  and  C_3
REMARK    3  A    between atoms: C_4  and  C_5
REMARK    4  A    between atoms: C_5  and  N_6
REMARK    5  A    between atoms: C_7  and  C_8
REMARK    6  A    between atoms: C_19  and  C_20
REMARK    7  A    between atoms: C_21  and  C_22
REMARK                            x       y       z     vdW  Elec       q    Type
REMARK                         _______ _______ _______ _____ _____    ______ ____
ROOT
ATOM      1  N   UNL     1      -0.954  11.426  19.477  0.00  0.00    +0.000 NA
ATOM      2  C   UNL     1       0.532  11.249  19.533  0.00  0.00    +0.000 C 
ATOM      3  C   UNL     1       0.978  10.059  18.662  0.00  0.00    +0.000 C 
ATOM      4  C   UNL     1       1.314  12.539  19.295  0.00  0.00    +0.000 A 
ATOM      5  C   UNL     1       2.407  12.632  18.411  0.00  0.00    +0.000 A 
ATOM      6  C   UNL     1       2.964  13.880  18.041  0.00  0.00    +0.000 A 
ATOM      7  C   UNL     1       2.437  15.073  18.525  0.00  0.00    +0.000 A 
ATOM      8  C   UNL     1       1.411  14.966  19.434  0.00  0.00    +0.000 A 
ATOM      9  N   UNL     1       0.667  15.974  20.034  0.00  0.00    +0.000 N 
ATOM     10  C   UNL     1      -0.301  15.395  20.870  0.00  0.00    +0.000 A 
ATOM     11  S   UNL     1      -1.429  16.314  21.656  0.00  0.00    +0.000 S 
ATOM     12  N   UNL     1      -0.093  14.000  20.830  0.00  0.00    +0.000 N 
ATOM     13  C   UNL     1       0.905  13.743  19.860  0.00  0.00    +0.000 A 
ATOM     14  C   UNL     1      -0.625  12.884  21.618  0.00  0.00    +0.000 C 
ATOM     15  C   UNL     1      -1.196  13.242  22.997  0.00  0.00    +0.000 C 
ATOM     16  C   UNL     1      -1.530  11.926  20.769  0.00  0.00    +0.000 C 
ATOM     17  C   UNL     1      -2.972  12.459  20.682  0.00  0.00    +0.000 C 
ATOM     18  H   UNL     1       0.750  16.962  19.857  0.00  0.00    +0.000 HD
ENDROOT
BRANCH   1  19
ATOM     19  C   UNL     1      -1.472  12.038  18.234  0.00  0.00    +0.000 C 
BRANCH  19  23
ATOM     20  C   UNL     1      -3.131   9.822  15.466  0.00  0.00    +0.000 C 
ATOM     21  C   UNL     1      -3.024  10.784  16.617  0.00  0.00    +0.000 C 
ATOM     22  C   UNL     1      -4.277  11.533  16.968  0.00  0.00    +0.000 C 
ATOM     23  C   UNL     1      -1.837  10.980  17.225  0.00  0.00    +0.000 C 
ENDBRANCH  19  23
ENDBRANCH   1  19
TORSDOF 2
ENDMDL
MODEL 8
REMARK VINA RESULT:      -5.7      7.429      9.494
REMARK  Name = 
REMARK  7 active torsions:
REMARK  status: ('A' for Active; 'I' for Inactive)
REMARK    1  A    between atoms: C_1  and  C_2
REMARK    2  A    between atoms: C_2  and  C_3
REMARK    3  A    between atoms: C_4  and  C_5
REMARK    4  A    between atoms: C_5  and  N_6
REMARK    5  A    between atoms: C_7  and  C_8
REMARK    6  A    between atoms: C_19  and  C_20
REMARK    7  A    between atoms: C_21  and  C_22
REMARK                            x       y       z     vdW  Elec       q    Type
REMARK                         _______ _______ _______ _____ _____    ______ ____
ROOT
ATOM      1  N   UNL     1      -1.041  12.642  22.623  0.00  0.00    +0.000 NA
ATOM      2  C   UNL     1      -0.321  11.436  22.104  0.00  0.00    +0.000 C 
ATOM      3  C   UNL     1      -0.694  10.180  22.916  0.00  0.00    +0.000 C 
ATOM      4  C   UNL     1      -0.419  11.266  20.590  0.00  0.00    +0.000 A 
ATOM      5  C   UNL     1      -0.749  10.047  19.965  0.00  0.00    +0.000 A 
ATOM      6  C   UNL     1      -1.053   9.972  18.585  0.00  0.00    +0.000 A 
ATOM      7  C   UNL     1      -1.058  11.114  17.789  0.00  0.00    +0.000 A 
ATOM      8  C   UNL     1      -0.676  12.286  18.396  0.00  0.00    +0.000 A 
ATOM      9  N   UNL     1      -0.640  13.571  17.870  0.00  0.00    +0.000 N 
ATOM     10  C   UNL     1      -0.216  14.464  18.866  0.00  0.00    +0.000 A 
ATOM     11  S   UNL     1      -0.164  16.097  18.602  0.00  0.00    +0.000 S 
ATOM     12  N   UNL     1       0.081  13.691  20.008  0.00  0.00    +0.000 N 
ATOM     13  C   UNL     1      -0.304  12.357  19.734  0.00  0.00    +0.000 A 
ATOM     14  C   UNL     1       0.744  13.995  21.281  0.00  0.00    +0.000 C 
ATOM     15  C   UNL     1       1.656  15.228  21.290  0.00  0.00    +0.000 C 
ATOM     16  C   UNL     1      -0.232  13.900  22.504  0.00  0.00    +0.000 C 
ATOM     17  C   UNL     1      -1.022  15.208  22.685  0.00  0.00    +0.000 C 
ATOM     18  H   UNL     1      -0.933  13.845  16.945  0.00  0.00    +0.000 HD
ENDROOT
BRANCH   1  19
ATOM     19  C   UNL     1      -2.471  12.731  22.257  0.00  0.00    +0.000 C 
BRANCH  19  23
ATOM     20  C   UNL     1      -5.228  12.335  25.009  0.00  0.00    +0.000 C 
ATOM     21  C   UNL     1      -4.295  13.014  24.043  0.00  0.00    +0.000 C 
ATOM     22  C   UNL     1      -4.543  14.475  23.804  0.00  0.00    +0.000 C 
ATOM     23  C   UNL     1      -3.349  12.298  23.402  0.00  0.00    +0.000 C 
ENDBRANCH  19  23
ENDBRANCH   1  19
TORSDOF 2
ENDMDL
MODEL 9
REMARK VINA RESULT:      -5.7      1.636      4.044
REMARK  Name = 
REMARK  7 active torsions:
REMARK  status: ('A' for Active; 'I' for Inactive)
REMARK    1  A    between atoms: C_1  and  C_2
REMARK    2  A    between atoms: C_2  and  C_3
REMARK    3  A    between atoms: C_4  and  C_5
REMARK    4  A    between atoms: C_5  and  N_6
REMARK    5  A    between atoms: C_7  and  C_8
REMARK    6  A    between atoms: C_19  and  C_20
REMARK    7  A    between atoms: C_21  and  C_22
REMARK                            x       y       z     vdW  Elec       q    Type
REMARK                         _______ _______ _______ _____ _____    ______ ____
ROOT
ATOM      1  N   UNL     1       3.032   7.125  18.814  0.00  0.00    +0.000 NA
ATOM      2  C   UNL     1       2.639   6.311  20.009  0.00  0.00    +0.000 C 
ATOM      3  C   UNL     1       1.600   7.060  20.867  0.00  0.00    +0.000 C 
ATOM      4  C   UNL     1       2.267   4.869  19.675  0.00  0.00    +0.000 A 
ATOM      5  C   UNL     1       1.109   4.233  20.166  0.00  0.00    +0.000 A 
ATOM      6  C   UNL     1       0.674   2.983  19.664  0.00  0.00    +0.000 A 
ATOM      7  C   UNL     1       1.368   2.338  18.644  0.00  0.00    +0.000 A 
ATOM      8  C   UNL     1       2.528   2.939  18.217  0.00  0.00    +0.000 A 
ATOM      9  N   UNL     1       3.383   2.557  17.192  0.00  0.00    +0.000 N 
ATOM     10  C   UNL     1       4.427   3.491  17.091  0.00  0.00    +0.000 A 
ATOM     11  S   UNL     1       5.567   3.392  15.896  0.00  0.00    +0.000 S 
ATOM     12  N   UNL     1       4.238   4.427  18.129  0.00  0.00    +0.000 N 
ATOM     13  C   UNL     1       3.003   4.131  18.755  0.00  0.00    +0.000 A 
ATOM     14  C   UNL     1       5.073   5.502  18.675  0.00  0.00    +0.000 C 
ATOM     15  C   UNL     1       6.578   5.395  18.398  0.00  0.00    +0.000 C 
ATOM     16  C   UNL     1       4.466   6.925  18.419  0.00  0.00    +0.000 C 
ATOM     17  C   UNL     1       4.838   7.443  17.018  0.00  0.00    +0.000 C 
ATOM     18  H   UNL     1       3.254   1.777  16.567  0.00  0.00    +0.000 HD
ENDROOT
BRANCH   1  19
ATOM     19  C   UNL     1       2.037   7.163  17.720  0.00  0.00    +0.000 C 
BRANCH  19  23
ATOM     20  C   UNL     1      -0.283  10.284  18.170  0.00  0.00    +0.000 C 
ATOM     21  C   UNL     1       0.983   9.480  18.063  0.00  0.00    +0.000 C 
ATOM     22  C   UNL     1       2.254  10.268  17.920  0.00  0.00    +0.000 C 
ATOM     23  C   UNL     1       0.928   8.133  18.034  0.00  0.00    +0.000 C 
ENDBRANCH  19  23
ENDBRANCH   1  19
TORSDOF 2
ENDMDL
