MODEL 1
REMARK VINA RESULT:      -7.9      0.000      0.000
REMARK  Name = 
REMARK  10 active torsions:
REMARK  status: ('A' for Active; 'I' for Inactive)
REMARK    1  A    between atoms: C_1  and  C_2
REMARK    2  A    between atoms: C_8  and  C_9
REMARK    3  A    between atoms: C_9  and  O_11
REMARK    4  A    between atoms: O_11  and  C_12
REMARK    5  A    between atoms: C_12  and  C_13
REMARK    6  A    between atoms: N_15  and  C_16
REMARK    7  A    between atoms: N_15  and  C_20
REMARK    8  A    between atoms: C_16  and  C_17
REMARK    9  A    between atoms: C_17  and  C_18
REMARK   10  A    between atoms: C_17  and  C_19
REMARK                            x       y       z     vdW  Elec       q    Type
REMARK                         _______ _______ _______ _____ _____    ______ ____
ROOT
ATOM      1  C   UNL     1       3.195   6.990  18.450  0.00  0.00    +0.000 C 
ENDROOT
BRANCH   1   2
ATOM      2  C   UNL     1       3.034   5.533  17.937  0.00  0.00    +0.000 C 
ATOM      3  O   UNL     1       1.911   5.101  17.663  0.00  0.00    +0.000 OA
ATOM      4  N   UNL     1       4.204   4.726  17.798  0.00  0.00    +0.000 N 
BRANCH   4   5
ATOM      5  C   UNL     1       5.534   5.391  17.630  0.00  0.00    +0.000 C 
ATOM      6  C   UNL     1       5.486   6.618  16.683  0.00  0.00    +0.000 C 
ATOM      7  C   UNL     1       5.437   6.073  15.267  0.00  0.00    +0.000 C 
ATOM      8  S   UNL     1       6.596   4.725  15.282  0.00  0.00    +0.000 S 
ATOM      9  O   UNL     1       7.859   5.197  14.756  0.00  0.00    +0.000 OA
ATOM     10  O   UNL     1       5.941   3.560  14.726  0.00  0.00    +0.000 OA
ATOM     11  C   UNL     1       6.739   4.618  17.071  0.00  0.00    +0.000 C 
ENDBRANCH   4   5
BRANCH   4  12
ATOM     12  C   UNL     1       3.939   3.297  17.414  0.00  0.00    +0.000 C 
BRANCH  12  13
ATOM     13  C   UNL     1       3.720   2.263  18.543  0.00  0.00    +0.000 C 
ATOM     14  C   UNL     1       4.402   2.647  19.851  0.00  0.00    +0.000 C 
ATOM     15  C   UNL     1       2.248   1.898  18.760  0.00  0.00    +0.000 C 
ENDBRANCH  12  13
ENDBRANCH   4  12
ENDBRANCH   1   2
BRANCH   1  16
ATOM     16  O   UNL     1       1.996   7.584  18.953  0.00  0.00    +0.000 OA
BRANCH  16  17
ATOM     17  C   UNL     1       1.736   8.833  18.477  0.00  0.00    +0.000 C 
ATOM     18  O   UNL     1       2.121   9.218  17.371  0.00  0.00    +0.000 OA
BRANCH  17  26
ATOM     19  C   UNL     1      -0.215   9.560  23.478  0.00  0.00    +0.000 C 
ATOM     20  C   UNL     1      -0.584  10.542  22.411  0.00  0.00    +0.000 A 
ATOM     21  C   UNL     1      -1.367  11.612  22.636  0.00  0.00    +0.000 A 
ATOM     22  C   UNL     1      -1.631  12.484  21.458  0.00  0.00    +0.000 A 
ATOM     23  N   UNL     1      -1.172  12.312  20.253  0.00  0.00    +0.000 NA
ATOM     24  C   UNL     1      -0.381  11.215  20.069  0.00  0.00    +0.000 A 
ATOM     25  N   UNL     1       0.226  10.792  18.978  0.00  0.00    +0.000 NA
ATOM     26  C   UNL     1       0.874   9.645  19.374  0.00  0.00    +0.000 A 
ATOM     27  N   UNL     1       0.713   9.343  20.669  0.00  0.00    +0.000 NA
ATOM     28  N   UNL     1      -0.087  10.334  21.117  0.00  0.00    +0.000 N 
ENDBRANCH  17  26
ENDBRANCH  16  17
ENDBRANCH   1  16
TORSDOF 7
ENDMDL
MODEL 2
REMARK VINA RESULT:      -7.8      0.718      1.565
REMARK  Name = 
REMARK  10 active torsions:
REMARK  status: ('A' for Active; 'I' for Inactive)
REMARK    1  A    between atoms: C_1  and  C_2
REMARK    2  A    between atoms: C_8  and  C_9
REMARK    3  A    between atoms: C_9  and  O_11
REMARK    4  A    between atoms: O_11  and  C_12
REMARK    5  A    between atoms: C_12  and  C_13
REMARK    6  A    between atoms: N_15  and  C_16
REMARK    7  A    between atoms: N_15  and  C_20
REMARK    8  A    between atoms: C_16  and  C_17
REMARK    9  A    between atoms: C_17  and  C_18
REMARK   10  A    between atoms: C_17  and  C_19
REMARK                            x       y       z     vdW  Elec       q    Type
REMARK                         _______ _______ _______ _____ _____    ______ ____
ROOT
ATOM      1  C   UNL     1       2.622   6.865  18.530  0.00  0.00    +0.000 C 
ENDROOT
BRANCH   1   2
ATOM      2  C   UNL     1       2.625   5.407  17.997  0.00  0.00    +0.000 C 
ATOM      3  O   UNL     1       1.562   4.871  17.676  0.00  0.00    +0.000 OA
ATOM      4  N   UNL     1       3.874   4.722  17.894  0.00  0.00    +0.000 N 
BRANCH   4   5
ATOM      5  C   UNL     1       5.137   5.517  17.783  0.00  0.00    +0.000 C 
ATOM      6  C   UNL     1       5.054   6.648  16.725  0.00  0.00    +0.000 C 
ATOM      7  C   UNL     1       5.202   5.985  15.368  0.00  0.00    +0.000 C 
ATOM      8  S   UNL     1       6.490   4.783  15.612  0.00  0.00    +0.000 S 
ATOM      9  O   UNL     1       7.741   5.349  15.159  0.00  0.00    +0.000 OA
ATOM     10  O   UNL     1       6.019   3.508  15.112  0.00  0.00    +0.000 OA
ATOM     11  C   UNL     1       6.465   4.842  17.409  0.00  0.00    +0.000 C 
ENDBRANCH   4   5
BRANCH   4  12
ATOM     12  C   UNL     1       3.766   3.280  17.485  0.00  0.00    +0.000 C 
BRANCH  12  13
ATOM     13  C   UNL     1       3.619   2.212  18.595  0.00  0.00    +0.000 C 
ATOM     14  C   UNL     1       4.385   2.556  19.866  0.00  0.00    +0.000 C 
ATOM     15  C   UNL     1       2.163   1.841  18.896  0.00  0.00    +0.000 C 
ENDBRANCH  12  13
ENDBRANCH   4  12
ENDBRANCH   1   2
BRANCH   1  16
ATOM     16  O   UNL     1       1.627   7.713  17.950  0.00  0.00    +0.000 OA
BRANCH  16  17
ATOM     17  C   UNL     1       1.794   9.041  18.203  0.00  0.00    +0.000 C 
ATOM     18  O   UNL     1       2.407   9.792  17.442  0.00  0.00    +0.000 OA
BRANCH  17  26
ATOM     19  C   UNL     1      -1.420  12.773  20.459  0.00  0.00    +0.000 C 
ATOM     20  C   UNL     1      -0.975  11.609  21.288  0.00  0.00    +0.000 A 
ATOM     21  C   UNL     1      -1.348  11.433  22.568  0.00  0.00    +0.000 A 
ATOM     22  C   UNL     1      -0.810  10.218  23.242  0.00  0.00    +0.000 A 
ATOM     23  N   UNL     1      -0.033   9.322  22.708  0.00  0.00    +0.000 NA
ATOM     24  C   UNL     1       0.321   9.538  21.407  0.00  0.00    +0.000 A 
ATOM     25  N   UNL     1       1.078   8.811  20.612  0.00  0.00    +0.000 NA
ATOM     26  C   UNL     1       1.092   9.507  19.426  0.00  0.00    +0.000 A 
ATOM     27  N   UNL     1       0.360  10.630  19.441  0.00  0.00    +0.000 NA
ATOM     28  N   UNL     1      -0.130  10.659  20.698  0.00  0.00    +0.000 N 
ENDBRANCH  17  26
ENDBRANCH  16  17
ENDBRANCH   1  16
TORSDOF 7
ENDMDL
MODEL 3
REMARK VINA RESULT:      -7.8      1.243      1.673
REMARK  Name = 
REMARK  10 active torsions:
REMARK  status: ('A' for Active; 'I' for Inactive)
REMARK    1  A    between atoms: C_1  and  C_2
REMARK    2  A    between atoms: C_8  and  C_9
REMARK    3  A    between atoms: C_9  and  O_11
REMARK    4  A    between atoms: O_11  and  C_12
REMARK    5  A    between atoms: C_12  and  C_13
REMARK    6  A    between atoms: N_15  and  C_16
REMARK    7  A    between atoms: N_15  and  C_20
REMARK    8  A    between atoms: C_16  and  C_17
REMARK    9  A    between atoms: C_17  and  C_18
REMARK   10  A    between atoms: C_17  and  C_19
REMARK                            x       y       z     vdW  Elec       q    Type
REMARK                         _______ _______ _______ _____ _____    ______ ____
ROOT
ATOM      1  C   UNL     1       2.857   7.639  18.119  0.00  0.00    +0.000 C 
ENDROOT
BRANCH   1   2
ATOM      2  C   UNL     1       2.878   6.277  18.864  0.00  0.00    +0.000 C 
ATOM      3  O   UNL     1       2.129   6.095  19.827  0.00  0.00    +0.000 OA
ATOM      4  N   UNL     1       3.775   5.263  18.407  0.00  0.00    +0.000 N 
BRANCH   4   5
ATOM      5  C   UNL     1       4.262   5.302  16.993  0.00  0.00    +0.000 C 
ATOM      6  C   UNL     1       5.117   4.067  16.609  0.00  0.00    +0.000 C 
ATOM      7  C   UNL     1       6.490   4.281  17.222  0.00  0.00    +0.000 C 
ATOM      8  S   UNL     1       6.829   6.002  16.932  0.00  0.00    +0.000 S 
ATOM      9  O   UNL     1       7.650   6.118  15.746  0.00  0.00    +0.000 OA
ATOM     10  O   UNL     1       7.235   6.601  18.186  0.00  0.00    +0.000 OA
ATOM     11  C   UNL     1       5.145   6.456  16.493  0.00  0.00    +0.000 C 
ENDBRANCH   4   5
BRANCH   4  12
ATOM     12  C   UNL     1       3.812   4.028  19.262  0.00  0.00    +0.000 C 
BRANCH  12  13
ATOM     13  C   UNL     1       2.769   2.917  18.993  0.00  0.00    +0.000 C 
ATOM     14  C   UNL     1       3.391   1.612  18.511  0.00  0.00    +0.000 C 
ATOM     15  C   UNL     1       1.808   2.686  20.164  0.00  0.00    +0.000 C 
ENDBRANCH  12  13
ENDBRANCH   4  12
ENDBRANCH   1   2
BRANCH   1  16
ATOM     16  O   UNL     1       1.586   8.294  18.101  0.00  0.00    +0.000 OA
BRANCH  16  17
ATOM     17  C   UNL     1       1.643   9.650  18.200  0.00  0.00    +0.000 C 
ATOM     18  O   UNL     1       2.312  10.347  17.434  0.00  0.00    +0.000 OA
BRANCH  17  26
ATOM     19  C   UNL     1      -0.003   9.418  23.356  0.00  0.00    +0.000 C 
ATOM     20  C   UNL     1      -0.571  10.477  22.465  0.00  0.00    +0.000 A 
ATOM     21  C   UNL     1      -1.463  11.392  22.887  0.00  0.00    +0.000 A 
ATOM     22  C   UNL     1      -1.922  12.373  21.865  0.00  0.00    +0.000 A 
ATOM     23  N   UNL     1      -1.537  12.430  20.624  0.00  0.00    +0.000 NA
ATOM     24  C   UNL     1      -0.630  11.485  20.238  0.00  0.00    +0.000 A 
ATOM     25  N   UNL     1      -0.059  11.301  19.065  0.00  0.00    +0.000 NA
ATOM     26  C   UNL     1       0.756  10.208  19.252  0.00  0.00    +0.000 A 
ATOM     27  N   UNL     1       0.731   9.713  20.497  0.00  0.00    +0.000 NA
ATOM     28  N   UNL     1      -0.150  10.517  21.129  0.00  0.00    +0.000 N 
ENDBRANCH  17  26
ENDBRANCH  16  17
ENDBRANCH   1  16
TORSDOF 7
ENDMDL
MODEL 4
REMARK VINA RESULT:      -7.6      5.534      7.283
REMARK  Name = 
REMARK  10 active torsions:
REMARK  status: ('A' for Active; 'I' for Inactive)
REMARK    1  A    between atoms: C_1  and  C_2
REMARK    2  A    between atoms: C_8  and  C_9
REMARK    3  A    between atoms: C_9  and  O_11
REMARK    4  A    between atoms: O_11  and  C_12
REMARK    5  A    between atoms: C_12  and  C_13
REMARK    6  A    between atoms: N_15  and  C_16
REMARK    7  A    between atoms: N_15  and  C_20
REMARK    8  A    between atoms: C_16  and  C_17
REMARK    9  A    between atoms: C_17  and  C_18
REMARK   10  A    between atoms: C_17  and  C_19
REMARK                            x       y       z     vdW  Elec       q    Type
REMARK                         _______ _______ _______ _____ _____    ______ ____
ROOT
ATOM      1  C   UNL     1       7.480   6.027  18.831  0.00  0.00    +0.000 C 
ENDROOT
BRANCH   1   2
ATOM      2  C   UNL     1       7.266   4.982  17.702  0.00  0.00    +0.000 C 
ATOM      3  O   UNL     1       8.200   4.254  17.358  0.00  0.00    +0.000 OA
ATOM      4  N   UNL     1       5.979   4.895  17.090  0.00  0.00    +0.000 N 
BRANCH   4   5
ATOM      5  C   UNL     1       4.778   5.381  17.839  0.00  0.00    +0.000 C 
ATOM      6  C   UNL     1       4.835   5.059  19.355  0.00  0.00    +0.000 C 
ATOM      7  C   UNL     1       4.488   3.588  19.500  0.00  0.00    +0.000 C 
ATOM      8  S   UNL     1       3.144   3.347  18.362  0.00  0.00    +0.000 S 
ATOM      9  O   UNL     1       1.899   3.424  19.094  0.00  0.00    +0.000 OA
ATOM     10  O   UNL     1       3.455   2.203  17.530  0.00  0.00    +0.000 OA
ATOM     11  C   UNL     1       3.368   4.894  17.474  0.00  0.00    +0.000 C 
ENDBRANCH   4   5
BRANCH   4  12
ATOM     12  C   UNL     1       5.900   3.944  15.929  0.00  0.00    +0.000 C 
BRANCH  12  13
ATOM     13  C   UNL     1       5.914   4.530  14.498  0.00  0.00    +0.000 C 
ATOM     14  C   UNL     1       7.278   5.068  14.081  0.00  0.00    +0.000 C 
ATOM     15  C   UNL     1       5.336   3.580  13.443  0.00  0.00    +0.000 C 
ENDBRANCH  12  13
ENDBRANCH   4  12
ENDBRANCH   1   2
BRANCH   1  16
ATOM     16  O   UNL     1       8.450   7.036  18.538  0.00  0.00    +0.000 OA
BRANCH  16  17
ATOM     17  C   UNL     1       7.968   8.106  17.848  0.00  0.00    +0.000 C 
ATOM     18  O   UNL     1       7.117   7.999  16.962  0.00  0.00    +0.000 OA
BRANCH  17  26
ATOM     19  C   UNL     1       7.876  13.501  17.366  0.00  0.00    +0.000 C 
ATOM     20  C   UNL     1       8.739  12.886  18.423  0.00  0.00    +0.000 A 
ATOM     21  C   UNL     1       9.485  13.611  19.276  0.00  0.00    +0.000 A 
ATOM     22  C   UNL     1      10.284  12.834  20.264  0.00  0.00    +0.000 A 
ATOM     23  N   UNL     1      10.315  11.538  20.380  0.00  0.00    +0.000 NA
ATOM     24  C   UNL     1       9.543  10.841  19.496  0.00  0.00    +0.000 A 
ATOM     25  N   UNL     1       9.369   9.541  19.380  0.00  0.00    +0.000 NA
ATOM     26  C   UNL     1       8.495   9.409  18.325  0.00  0.00    +0.000 A 
ATOM     27  N   UNL     1       8.102  10.574  17.790  0.00  0.00    +0.000 NA
ATOM     28  N   UNL     1       8.767  11.489  18.527  0.00  0.00    +0.000 N 
ENDBRANCH  17  26
ENDBRANCH  16  17
ENDBRANCH   1  16
TORSDOF 7
ENDMDL
MODEL 5
REMARK VINA RESULT:      -7.5      1.433      2.366
REMARK  Name = 
REMARK  10 active torsions:
REMARK  status: ('A' for Active; 'I' for Inactive)
REMARK    1  A    between atoms: C_1  and  C_2
REMARK    2  A    between atoms: C_8  and  C_9
REMARK    3  A    between atoms: C_9  and  O_11
REMARK    4  A    between atoms: O_11  and  C_12
REMARK    5  A    between atoms: C_12  and  C_13
REMARK    6  A    between atoms: N_15  and  C_16
REMARK    7  A    between atoms: N_15  and  C_20
REMARK    8  A    between atoms: C_16  and  C_17
REMARK    9  A    between atoms: C_17  and  C_18
REMARK   10  A    between atoms: C_17  and  C_19
REMARK                            x       y       z     vdW  Elec       q    Type
REMARK                         _______ _______ _______ _____ _____    ______ ____
ROOT
ATOM      1  C   UNL     1       2.866   7.782  18.182  0.00  0.00    +0.000 C 
ENDROOT
BRANCH   1   2
ATOM      2  C   UNL     1       2.798   6.483  19.030  0.00  0.00    +0.000 C 
ATOM      3  O   UNL     1       2.052   6.431  20.011  0.00  0.00    +0.000 OA
ATOM      4  N   UNL     1       3.612   5.374  18.645  0.00  0.00    +0.000 N 
BRANCH   4   5
ATOM      5  C   UNL     1       4.080   5.268  17.228  0.00  0.00    +0.000 C 
ATOM      6  C   UNL     1       4.916   3.991  16.956  0.00  0.00    +0.000 C 
ATOM      7  C   UNL     1       6.300   4.248  17.528  0.00  0.00    +0.000 C 
ATOM      8  S   UNL     1       6.654   5.928  17.067  0.00  0.00    +0.000 S 
ATOM      9  O   UNL     1       7.460   5.916  15.866  0.00  0.00    +0.000 OA
ATOM     10  O   UNL     1       7.083   6.641  18.251  0.00  0.00    +0.000 OA
ATOM     11  C   UNL     1       4.969   6.356  16.606  0.00  0.00    +0.000 C 
ENDBRANCH   4   5
BRANCH   4  12
ATOM     12  C   UNL     1       3.571   4.208  19.592  0.00  0.00    +0.000 C 
BRANCH  12  13
ATOM     13  C   UNL     1       2.332   3.282  19.565  0.00  0.00    +0.000 C 
ATOM     14  C   UNL     1       2.551   2.009  18.756  0.00  0.00    +0.000 C 
ATOM     15  C   UNL     1       1.767   2.977  20.955  0.00  0.00    +0.000 C 
ENDBRANCH  12  13
ENDBRANCH   4  12
ENDBRANCH   1   2
BRANCH   1  16
ATOM     16  O   UNL     1       1.613   8.447  18.001  0.00  0.00    +0.000 OA
BRANCH  16  17
ATOM     17  C   UNL     1       1.646   9.791  18.214  0.00  0.00    +0.000 C 
ATOM     18  O   UNL     1       2.199  10.575  17.441  0.00  0.00    +0.000 OA
BRANCH  17  26
ATOM     19  C   UNL     1      -2.248  12.983  20.211  0.00  0.00    +0.000 C 
ATOM     20  C   UNL     1      -1.558  12.028  21.132  0.00  0.00    +0.000 A 
ATOM     21  C   UNL     1      -1.868  11.908  22.436  0.00  0.00    +0.000 A 
ATOM     22  C   UNL     1      -1.078  10.906  23.204  0.00  0.00    +0.000 A 
ATOM     23  N   UNL     1      -0.137  10.141  22.732  0.00  0.00    +0.000 NA
ATOM     24  C   UNL     1       0.145  10.294  21.405  0.00  0.00    +0.000 A 
ATOM     25  N   UNL     1       1.028   9.662  20.658  0.00  0.00    +0.000 NA
ATOM     26  C   UNL     1       0.878  10.223  19.410  0.00  0.00    +0.000 A 
ATOM     27  N   UNL     1      -0.072  11.165  19.343  0.00  0.00    +0.000 NA
ATOM     28  N   UNL     1      -0.540  11.219  20.608  0.00  0.00    +0.000 N 
ENDBRANCH  17  26
ENDBRANCH  16  17
ENDBRANCH   1  16
TORSDOF 7
ENDMDL
MODEL 6
REMARK VINA RESULT:      -7.5      1.960      3.761
REMARK  Name = 
REMARK  10 active torsions:
REMARK  status: ('A' for Active; 'I' for Inactive)
REMARK    1  A    between atoms: C_1  and  C_2
REMARK    2  A    between atoms: C_8  and  C_9
REMARK    3  A    between atoms: C_9  and  O_11
REMARK    4  A    between atoms: O_11  and  C_12
REMARK    5  A    between atoms: C_12  and  C_13
REMARK    6  A    between atoms: N_15  and  C_16
REMARK    7  A    between atoms: N_15  and  C_20
REMARK    8  A    between atoms: C_16  and  C_17
REMARK    9  A    between atoms: C_17  and  C_18
REMARK   10  A    between atoms: C_17  and  C_19
REMARK                            x       y       z     vdW  Elec       q    Type
REMARK                         _______ _______ _______ _____ _____    ______ ____
ROOT
ATOM      1  C   UNL     1       3.454   7.368  18.412  0.00  0.00    +0.000 C 
ENDROOT
BRANCH   1   2
ATOM      2  C   UNL     1       4.083   6.462  17.319  0.00  0.00    +0.000 C 
ATOM      3  O   UNL     1       4.536   6.969  16.290  0.00  0.00    +0.000 OA
ATOM      4  N   UNL     1       4.118   5.051  17.541  0.00  0.00    +0.000 N 
BRANCH   4   5
ATOM      5  C   UNL     1       4.058   4.530  18.943  0.00  0.00    +0.000 C 
ATOM      6  C   UNL     1       4.545   3.063  19.068  0.00  0.00    +0.000 C 
ATOM      7  C   UNL     1       3.416   2.185  18.558  0.00  0.00    +0.000 C 
ATOM      8  S   UNL     1       1.949   2.931  19.230  0.00  0.00    +0.000 S 
ATOM      9  O   UNL     1       1.580   2.220  20.435  0.00  0.00    +0.000 OA
ATOM     10  O   UNL     1       1.002   3.120  18.152  0.00  0.00    +0.000 OA
ATOM     11  C   UNL     1       2.728   4.480  19.710  0.00  0.00    +0.000 C 
ENDBRANCH   4   5
BRANCH   4  12
ATOM     12  C   UNL     1       4.632   4.246  16.380  0.00  0.00    +0.000 C 
BRANCH  12  13
ATOM     13  C   UNL     1       5.997   4.636  15.764  0.00  0.00    +0.000 C 
ATOM     14  C   UNL     1       7.159   4.496  16.740  0.00  0.00    +0.000 C 
ATOM     15  C   UNL     1       6.289   3.933  14.434  0.00  0.00    +0.000 C 
ENDBRANCH  12  13
ENDBRANCH   4  12
ENDBRANCH   1   2
BRANCH   1  16
ATOM     16  O   UNL     1       2.084   7.710  18.192  0.00  0.00    +0.000 OA
BRANCH  16  17
ATOM     17  C   UNL     1       1.821   9.046  18.208  0.00  0.00    +0.000 C 
ATOM     18  O   UNL     1       2.076   9.787  17.257  0.00  0.00    +0.000 OA
BRANCH  17  26
ATOM     19  C   UNL     1      -1.289  12.819  20.540  0.00  0.00    +0.000 C 
ATOM     20  C   UNL     1      -0.896  11.616  21.338  0.00  0.00    +0.000 A 
ATOM     21  C   UNL     1      -1.292  11.414  22.607  0.00  0.00    +0.000 A 
ATOM     22  C   UNL     1      -0.807  10.161  23.249  0.00  0.00    +0.000 A 
ATOM     23  N   UNL     1      -0.054   9.254  22.697  0.00  0.00    +0.000 NA
ATOM     24  C   UNL     1       0.324   9.498  21.408  0.00  0.00    +0.000 A 
ATOM     25  N   UNL     1       1.065   8.768  20.601  0.00  0.00    +0.000 NA
ATOM     26  C   UNL     1       1.119   9.500  19.436  0.00  0.00    +0.000 A 
ATOM     27  N   UNL     1       0.428  10.647  19.477  0.00  0.00    +0.000 NA
ATOM     28  N   UNL     1      -0.078  10.655  20.729  0.00  0.00    +0.000 N 
ENDBRANCH  17  26
ENDBRANCH  16  17
ENDBRANCH   1  16
TORSDOF 7
ENDMDL
MODEL 7
REMARK VINA RESULT:      -7.5      2.475      3.321
REMARK  Name = 
REMARK  10 active torsions:
REMARK  status: ('A' for Active; 'I' for Inactive)
REMARK    1  A    between atoms: C_1  and  C_2
REMARK    2  A    between atoms: C_8  and  C_9
REMARK    3  A    between atoms: C_9  and  O_11
REMARK    4  A    between atoms: O_11  and  C_12
REMARK    5  A    between atoms: C_12  and  C_13
REMARK    6  A    between atoms: N_15  and  C_16
REMARK    7  A    between atoms: N_15  and  C_20
REMARK    8  A    between atoms: C_16  and  C_17
REMARK    9  A    between atoms: C_17  and  C_18
REMARK   10  A    between atoms: C_17  and  C_19
REMARK                            x       y       z     vdW  Elec       q    Type
REMARK                         _______ _______ _______ _____ _____    ______ ____
ROOT
ATOM      1  C   UNL     1       2.169   8.003  19.007  0.00  0.00    +0.000 C 
ENDROOT
BRANCH   1   2
ATOM      2  C   UNL     1       2.136   6.690  19.836  0.00  0.00    +0.000 C 
ATOM      3  O   UNL     1       1.487   6.644  20.883  0.00  0.00    +0.000 OA
ATOM      4  N   UNL     1       2.867   5.561  19.353  0.00  0.00    +0.000 N 
BRANCH   4   5
ATOM      5  C   UNL     1       3.190   5.469  17.895  0.00  0.00    +0.000 C 
ATOM      6  C   UNL     1       3.071   4.028  17.335  0.00  0.00    +0.000 C 
ATOM      7  C   UNL     1       4.312   3.281  17.788  0.00  0.00    +0.000 C 
ATOM      8  S   UNL     1       5.629   4.455  17.566  0.00  0.00    +0.000 S 
ATOM      9  O   UNL     1       6.274   4.189  16.298  0.00  0.00    +0.000 OA
ATOM     10  O   UNL     1       6.390   4.519  18.795  0.00  0.00    +0.000 OA
ATOM     11  C   UNL     1       4.568   5.893  17.364  0.00  0.00    +0.000 C 
ENDBRANCH   4   5
BRANCH   4  12
ATOM     12  C   UNL     1       2.875   4.378  20.279  0.00  0.00    +0.000 C 
BRANCH  12  13
ATOM     13  C   UNL     1       1.520   3.750  20.681  0.00  0.00    +0.000 C 
ATOM     14  C   UNL     1       0.709   3.256  19.489  0.00  0.00    +0.000 C 
ATOM     15  C   UNL     1       1.643   2.673  21.764  0.00  0.00    +0.000 C 
ENDBRANCH  12  13
ENDBRANCH   4  12
ENDBRANCH   1   2
BRANCH   1  16
ATOM     16  O   UNL     1       1.373   9.066  19.537  0.00  0.00    +0.000 OA
BRANCH  16  17
ATOM     17  C   UNL     1       1.127  10.082  18.665  0.00  0.00    +0.000 C 
ATOM     18  O   UNL     1       2.018  10.638  18.020  0.00  0.00    +0.000 OA
BRANCH  17  26
ATOM     19  C   UNL     1      -3.154  12.907  20.410  0.00  0.00    +0.000 C 
ATOM     20  C   UNL     1      -3.317  12.011  19.223  0.00  0.00    +0.000 A 
ATOM     21  C   UNL     1      -4.476  11.883  18.552  0.00  0.00    +0.000 A 
ATOM     22  C   UNL     1      -4.459  10.947  17.394  0.00  0.00    +0.000 A 
ATOM     23  N   UNL     1      -3.436  10.260  16.974  0.00  0.00    +0.000 NA
ATOM     24  C   UNL     1      -2.280  10.420  17.682  0.00  0.00    +0.000 A 
ATOM     25  N   UNL     1      -1.098   9.871  17.491  0.00  0.00    +0.000 NA
ATOM     26  C   UNL     1      -0.317  10.387  18.500  0.00  0.00    +0.000 A 
ATOM     27  N   UNL     1      -0.958  11.249  19.302  0.00  0.00    +0.000 NA
ATOM     28  N   UNL     1      -2.207  11.272  18.791  0.00  0.00    +0.000 N 
ENDBRANCH  17  26
ENDBRANCH  16  17
ENDBRANCH   1  16
TORSDOF 7
ENDMDL
MODEL 8
REMARK VINA RESULT:      -7.5      1.954      3.531
REMARK  Name = 
REMARK  10 active torsions:
REMARK  status: ('A' for Active; 'I' for Inactive)
REMARK    1  A    between atoms: C_1  and  C_2
REMARK    2  A    between atoms: C_8  and  C_9
REMARK    3  A    between atoms: C_9  and  O_11
REMARK    4  A    between atoms: O_11  and  C_12
REMARK    5  A    between atoms: C_12  and  C_13
REMARK    6  A    between atoms: N_15  and  C_16
REMARK    7  A    between atoms: N_15  and  C_20
REMARK    8  A    between atoms: C_16  and  C_17
REMARK    9  A    between atoms: C_17  and  C_18
REMARK   10  A    between atoms: C_17  and  C_19
REMARK                            x       y       z     vdW  Elec       q    Type
REMARK                         _______ _______ _______ _____ _____    ______ ____
ROOT
ATOM      1  C   UNL     1       3.044   7.216  18.848  0.00  0.00    +0.000 C 
ENDROOT
BRANCH   1   2
ATOM      2  C   UNL     1       3.829   6.418  17.772  0.00  0.00    +0.000 C 
ATOM      3  O   UNL     1       4.222   6.990  16.752  0.00  0.00    +0.000 OA
ATOM      4  N   UNL     1       4.075   5.029  17.998  0.00  0.00    +0.000 N 
BRANCH   4   5
ATOM      5  C   UNL     1       4.063   4.503  19.399  0.00  0.00    +0.000 C 
ATOM      6  C   UNL     1       4.493   3.017  19.494  0.00  0.00    +0.000 C 
ATOM      7  C   UNL     1       3.304   2.190  19.038  0.00  0.00    +0.000 C 
ATOM      8  S   UNL     1       1.906   2.994  19.787  0.00  0.00    +0.000 S 
ATOM      9  O   UNL     1       1.568   2.292  21.006  0.00  0.00    +0.000 OA
ATOM     10  O   UNL     1       0.914   3.228  18.758  0.00  0.00    +0.000 OA
ATOM     11  C   UNL     1       2.772   4.505  20.232  0.00  0.00    +0.000 C 
ENDBRANCH   4   5
BRANCH   4  12
ATOM     12  C   UNL     1       4.733   4.315  16.851  0.00  0.00    +0.000 C 
BRANCH  12  13
ATOM     13  C   UNL     1       6.119   4.810  16.375  0.00  0.00    +0.000 C 
ATOM     14  C   UNL     1       7.223   4.581  17.399  0.00  0.00    +0.000 C 
ATOM     15  C   UNL     1       6.514   4.283  14.991  0.00  0.00    +0.000 C 
ENDBRANCH  12  13
ENDBRANCH   4  12
ENDBRANCH   1   2
BRANCH   1  16
ATOM     16  O   UNL     1       1.771   7.708  18.420  0.00  0.00    +0.000 OA
BRANCH  16  17
ATOM     17  C   UNL     1       1.711   9.057  18.246  0.00  0.00    +0.000 C 
ATOM     18  O   UNL     1       2.277   9.635  17.316  0.00  0.00    +0.000 OA
BRANCH  17  26
ATOM     19  C   UNL     1       0.069   9.458  23.393  0.00  0.00    +0.000 C 
ATOM     20  C   UNL     1      -0.492  10.408  22.382  0.00  0.00    +0.000 A 
ATOM     21  C   UNL     1      -1.376  11.373  22.691  0.00  0.00    +0.000 A 
ATOM     22  C   UNL     1      -1.829  12.228  21.558  0.00  0.00    +0.000 A 
ATOM     23  N   UNL     1      -1.444  12.133  20.319  0.00  0.00    +0.000 NA
ATOM     24  C   UNL     1      -0.545  11.141  20.049  0.00  0.00    +0.000 A 
ATOM     25  N   UNL     1       0.022  10.813  18.907  0.00  0.00    +0.000 NA
ATOM     26  C   UNL     1       0.829   9.744  19.224  0.00  0.00    +0.000 A 
ATOM     27  N   UNL     1       0.802   9.402  20.520  0.00  0.00    +0.000 NA
ATOM     28  N   UNL     1      -0.072  10.283  21.050  0.00  0.00    +0.000 N 
ENDBRANCH  17  26
ENDBRANCH  16  17
ENDBRANCH   1  16
TORSDOF 7
ENDMDL
MODEL 9
REMARK VINA RESULT:      -7.4      1.932      2.720
REMARK  Name = 
REMARK  10 active torsions:
REMARK  status: ('A' for Active; 'I' for Inactive)
REMARK    1  A    between atoms: C_1  and  C_2
REMARK    2  A    between atoms: C_8  and  C_9
REMARK    3  A    between atoms: C_9  and  O_11
REMARK    4  A    between atoms: O_11  and  C_12
REMARK    5  A    between atoms: C_12  and  C_13
REMARK    6  A    between atoms: N_15  and  C_16
REMARK    7  A    between atoms: N_15  and  C_20
REMARK    8  A    between atoms: C_16  and  C_17
REMARK    9  A    between atoms: C_17  and  C_18
REMARK   10  A    between atoms: C_17  and  C_19
REMARK                            x       y       z     vdW  Elec       q    Type
REMARK                         _______ _______ _______ _____ _____    ______ ____
ROOT
ATOM      1  C   UNL     1       2.704   7.708  18.408  0.00  0.00    +0.000 C 
ENDROOT
BRANCH   1   2
ATOM      2  C   UNL     1       2.721   6.267  18.988  0.00  0.00    +0.000 C 
ATOM      3  O   UNL     1       1.960   5.971  19.912  0.00  0.00    +0.000 OA
ATOM      4  N   UNL     1       3.629   5.317  18.427  0.00  0.00    +0.000 N 
BRANCH   4   5
ATOM      5  C   UNL     1       4.135   5.524  17.034  0.00  0.00    +0.000 C 
ATOM      6  C   UNL     1       4.914   4.302  16.482  0.00  0.00    +0.000 C 
ATOM      7  C   UNL     1       6.290   4.337  17.123  0.00  0.00    +0.000 C 
ATOM      8  S   UNL     1       6.743   6.055  17.082  0.00  0.00    +0.000 S 
ATOM      9  O   UNL     1       7.585   6.283  15.927  0.00  0.00    +0.000 OA
ATOM     10  O   UNL     1       7.172   6.442  18.409  0.00  0.00    +0.000 OA
ATOM     11  C   UNL     1       5.097   6.676  16.706  0.00  0.00    +0.000 C 
ENDBRANCH   4   5
BRANCH   4  12
ATOM     12  C   UNL     1       3.662   3.990  19.131  0.00  0.00    +0.000 C 
BRANCH  12  13
ATOM     13  C   UNL     1       2.791   2.841  18.570  0.00  0.00    +0.000 C 
ATOM     14  C   UNL     1       3.536   1.515  18.474  0.00  0.00    +0.000 C 
ATOM     15  C   UNL     1       1.449   2.682  19.293  0.00  0.00    +0.000 C 
ENDBRANCH  12  13
ENDBRANCH   4  12
ENDBRANCH   1   2
BRANCH   1  16
ATOM     16  O   UNL     1       1.696   8.562  18.954  0.00  0.00    +0.000 OA
BRANCH  16  17
ATOM     17  C   UNL     1       1.538   9.746  18.300  0.00  0.00    +0.000 C 
ATOM     18  O   UNL     1       2.361  10.175  17.490  0.00  0.00    +0.000 OA
BRANCH  17  26
ATOM     19  C   UNL     1      -3.668  10.367  16.934  0.00  0.00    +0.000 C 
ATOM     20  C   UNL     1      -3.144  11.101  18.128  0.00  0.00    +0.000 A 
ATOM     21  C   UNL     1      -3.909  11.899  18.895  0.00  0.00    +0.000 A 
ATOM     22  C   UNL     1      -3.222  12.551  20.044  0.00  0.00    +0.000 A 
ATOM     23  N   UNL     1      -1.971  12.411  20.373  0.00  0.00    +0.000 NA
ATOM     24  C   UNL     1      -1.231  11.592  19.570  0.00  0.00    +0.000 A 
ATOM     25  N   UNL     1       0.040  11.257  19.659  0.00  0.00    +0.000 NA
ATOM     26  C   UNL     1       0.244  10.416  18.588  0.00  0.00    +0.000 A 
ATOM     27  N   UNL     1      -0.850  10.198  17.846  0.00  0.00    +0.000 NA
ATOM     28  N   UNL     1      -1.791  10.945  18.462  0.00  0.00    +0.000 N 
ENDBRANCH  17  26
ENDBRANCH  16  17
ENDBRANCH   1  16
TORSDOF 7
ENDMDL
