MODEL 1
REMARK VINA RESULT:      -7.8      0.000      0.000
REMARK  Name = 
REMARK  14 active torsions:
REMARK  status: ('A' for Active; 'I' for Inactive)
REMARK    1  A    between atoms: C_1  and  O_2
REMARK    2  A    between atoms: O_2  and  C_3
REMARK    3  A    between atoms: C_3  and  C_5
REMARK    4  A    between atoms: C_5  and  N_6
REMARK    5  A    between atoms: N_6  and  P_7
REMARK    6  A    between atoms: P_7  and  O_9
REMARK    7  A    between atoms: P_7  and  O_26
REMARK    8  A    between atoms: O_9  and  C_10
REMARK    9  A    between atoms: C_10  and  C_11
REMARK   10  A    between atoms: C_11  and  N_12
REMARK   11  A    between atoms: N_12  and  C_13
REMARK   12  A    between atoms: N_12  and  C_14
REMARK   13  A    between atoms: C_21  and  C_22
REMARK   14  A    between atoms: O_26  and  C_27
REMARK                            x       y       z     vdW  Elec       q    Type
REMARK                         _______ _______ _______ _____ _____    ______ ____
ROOT
ATOM      1  O   UNL     1       3.195   6.329  17.667  0.00  0.00    +0.000 OA
ENDROOT
BRANCH   1   2
ATOM      2  P   UNL     1       4.698   5.616  17.782  0.00  0.00    +0.000 P 
ATOM      3  O   UNL     1       5.728   6.685  18.180  0.00  0.00    +0.000 OA
BRANCH   2   4
ATOM      4  N   UNL     1       5.016   6.014  16.076  0.00  0.00    +0.000 NA
ATOM      5  H   UNL     1       4.115   6.278  15.694  0.00  0.00    +0.000 HD
BRANCH   4   6
ATOM      6  C   UNL     1       5.702   5.111  15.167  0.00  0.00    +0.000 C 
BRANCH   6   7
ATOM      7  C   UNL     1       7.205   5.031  15.396  0.00  0.00    +0.000 C 
ATOM      8  O   UNL     1       7.745   4.599  16.407  0.00  0.00    +0.000 OA
BRANCH   7  10
ATOM      9  C   UNL     1       7.440   4.904  13.020  0.00  0.00    +0.000 C 
ATOM     10  O   UNL     1       7.830   5.480  14.269  0.00  0.00    +0.000 OA
ENDBRANCH   7  10
ENDBRANCH   6   7
ENDBRANCH   4   6
ENDBRANCH   2   4
BRANCH   2  11
ATOM     11  O   UNL     1       4.388   5.229  19.439  0.00  0.00    +0.000 OA
BRANCH  11  12
ATOM     12  C   UNL     1       3.340   4.367  19.663  0.00  0.00    +0.000 A 
ATOM     13  C   UNL     1       3.257   3.110  19.055  0.00  0.00    +0.000 A 
ATOM     14  C   UNL     1       2.143   2.300  19.274  0.00  0.00    +0.000 A 
ATOM     15  C   UNL     1       1.124   2.731  20.119  0.00  0.00    +0.000 A 
ATOM     16  C   UNL     1       1.222   3.973  20.752  0.00  0.00    +0.000 A 
ATOM     17  C   UNL     1       2.332   4.789  20.525  0.00  0.00    +0.000 A 
ENDBRANCH  11  12
ENDBRANCH   2  11
ENDBRANCH   1   2
BRANCH   1  18
ATOM     18  C   UNL     1       3.128   7.751  17.853  0.00  0.00    +0.000 C 
BRANCH  18  19
ATOM     19  C   UNL     1       2.028   8.192  18.849  0.00  0.00    +0.000 C 
BRANCH  19  20
ATOM     20  N   UNL     1       1.530   9.560  18.569  0.00  0.00    +0.000 N 
ATOM     21  C   UNL     1       2.484  10.428  17.863  0.00  0.00    +0.000 C 
BRANCH  20  22
ATOM     22  C   UNL     1       0.547  10.175  19.363  0.00  0.00    +0.000 A 
ATOM     23  C   UNL     1       0.710  10.599  20.624  0.00  0.00    +0.000 A 
ATOM     24  C   UNL     1      -0.319  11.360  21.370  0.00  0.00    +0.000 A 
ATOM     25  O   UNL     1      -0.134  11.664  22.544  0.00  0.00    +0.000 OA
ATOM     26  O   UNL     1      -1.448  11.752  20.668  0.00  0.00    +0.000 OA
ATOM     27  C   UNL     1      -1.679  11.269  19.375  0.00  0.00    +0.000 A 
ATOM     28  C   UNL     1      -2.892  11.628  18.784  0.00  0.00    +0.000 A 
ATOM     29  C   UNL     1      -3.217  11.131  17.515  0.00  0.00    +0.000 A 
ATOM     30  C   UNL     1      -4.488  11.527  16.822  0.00  0.00    +0.000 C 
ATOM     31  C   UNL     1      -2.329  10.254  16.884  0.00  0.00    +0.000 A 
ATOM     32  C   UNL     1      -1.111   9.918  17.488  0.00  0.00    +0.000 A 
ATOM     33  C   UNL     1      -0.756  10.451  18.731  0.00  0.00    +0.000 A 
ENDBRANCH  20  22
ENDBRANCH  19  20
ENDBRANCH  18  19
ENDBRANCH   1  18
TORSDOF 11
ENDMDL
MODEL 2
REMARK VINA RESULT:      -7.7      1.119      1.258
REMARK  Name = 
REMARK  14 active torsions:
REMARK  status: ('A' for Active; 'I' for Inactive)
REMARK    1  A    between atoms: C_1  and  O_2
REMARK    2  A    between atoms: O_2  and  C_3
REMARK    3  A    between atoms: C_3  and  C_5
REMARK    4  A    between atoms: C_5  and  N_6
REMARK    5  A    between atoms: N_6  and  P_7
REMARK    6  A    between atoms: P_7  and  O_9
REMARK    7  A    between atoms: P_7  and  O_26
REMARK    8  A    between atoms: O_9  and  C_10
REMARK    9  A    between atoms: C_10  and  C_11
REMARK   10  A    between atoms: C_11  and  N_12
REMARK   11  A    between atoms: N_12  and  C_13
REMARK   12  A    between atoms: N_12  and  C_14
REMARK   13  A    between atoms: C_21  and  C_22
REMARK   14  A    between atoms: O_26  and  C_27
REMARK                            x       y       z     vdW  Elec       q    Type
REMARK                         _______ _______ _______ _____ _____    ______ ____
ROOT
ATOM      1  O   UNL     1       3.624   5.590  19.387  0.00  0.00    +0.000 OA
ENDROOT
BRANCH   1   2
ATOM      2  P   UNL     1       4.975   4.885  18.710  0.00  0.00    +0.000 P 
ATOM      3  O   UNL     1       6.175   5.110  19.645  0.00  0.00    +0.000 OA
BRANCH   2   4
ATOM      4  N   UNL     1       5.374   6.423  17.908  0.00  0.00    +0.000 NA
ATOM      5  H   UNL     1       4.579   6.624  17.312  0.00  0.00    +0.000 HD
BRANCH   4   6
ATOM      6  C   UNL     1       6.614   6.639  17.181  0.00  0.00    +0.000 C 
BRANCH   6   7
ATOM      7  C   UNL     1       6.989   5.495  16.249  0.00  0.00    +0.000 C 
ATOM      8  O   UNL     1       7.771   4.592  16.517  0.00  0.00    +0.000 OA
BRANCH   7  10
ATOM      9  C   UNL     1       5.618   4.477  14.576  0.00  0.00    +0.000 C 
ATOM     10  O   UNL     1       6.274   5.636  15.096  0.00  0.00    +0.000 OA
ENDBRANCH   7  10
ENDBRANCH   6   7
ENDBRANCH   4   6
ENDBRANCH   2   4
BRANCH   2  11
ATOM     11  O   UNL     1       4.587   3.390  19.490  0.00  0.00    +0.000 OA
BRANCH  11  12
ATOM     12  C   UNL     1       3.246   3.105  19.596  0.00  0.00    +0.000 A 
ATOM     13  C   UNL     1       2.465   2.738  18.495  0.00  0.00    +0.000 A 
ATOM     14  C   UNL     1       1.097   2.515  18.650  0.00  0.00    +0.000 A 
ATOM     15  C   UNL     1       0.512   2.634  19.908  0.00  0.00    +0.000 A 
ATOM     16  C   UNL     1       1.296   2.970  21.014  0.00  0.00    +0.000 A 
ATOM     17  C   UNL     1       2.665   3.203  20.857  0.00  0.00    +0.000 A 
ENDBRANCH  11  12
ENDBRANCH   2  11
ENDBRANCH   1   2
BRANCH   1  18
ATOM     18  C   UNL     1       3.153   6.808  18.793  0.00  0.00    +0.000 C 
BRANCH  18  19
ATOM     19  C   UNL     1       2.151   7.583  19.683  0.00  0.00    +0.000 C 
BRANCH  19  20
ATOM     20  N   UNL     1       1.559   8.749  18.983  0.00  0.00    +0.000 N 
ATOM     21  C   UNL     1       2.376   9.284  17.884  0.00  0.00    +0.000 C 
BRANCH  20  22
ATOM     22  C   UNL     1       0.657   9.621  19.616  0.00  0.00    +0.000 A 
ATOM     23  C   UNL     1       0.815  10.167  20.829  0.00  0.00    +0.000 A 
ATOM     24  C   UNL     1      -0.102  11.184  21.393  0.00  0.00    +0.000 A 
ATOM     25  O   UNL     1       0.061  11.599  22.536  0.00  0.00    +0.000 OA
ATOM     26  O   UNL     1      -1.095  11.674  20.558  0.00  0.00    +0.000 OA
ATOM     27  C   UNL     1      -1.328  11.077  19.313  0.00  0.00    +0.000 A 
ATOM     28  C   UNL     1      -2.415  11.563  18.585  0.00  0.00    +0.000 A 
ATOM     29  C   UNL     1      -2.745  10.971  17.358  0.00  0.00    +0.000 A 
ATOM     30  C   UNL     1      -3.876  11.490  16.520  0.00  0.00    +0.000 C 
ATOM     31  C   UNL     1      -1.994   9.881  16.909  0.00  0.00    +0.000 A 
ATOM     32  C   UNL     1      -0.899   9.418  17.649  0.00  0.00    +0.000 A 
ATOM     33  C   UNL     1      -0.531  10.036  18.848  0.00  0.00    +0.000 A 
ENDBRANCH  20  22
ENDBRANCH  19  20
ENDBRANCH  18  19
ENDBRANCH   1  18
TORSDOF 11
ENDMDL
MODEL 3
REMARK VINA RESULT:      -7.7      1.177      1.485
REMARK  Name = 
REMARK  14 active torsions:
REMARK  status: ('A' for Active; 'I' for Inactive)
REMARK    1  A    between atoms: C_1  and  O_2
REMARK    2  A    between atoms: O_2  and  C_3
REMARK    3  A    between atoms: C_3  and  C_5
REMARK    4  A    between atoms: C_5  and  N_6
REMARK    5  A    between atoms: N_6  and  P_7
REMARK    6  A    between atoms: P_7  and  O_9
REMARK    7  A    between atoms: P_7  and  O_26
REMARK    8  A    between atoms: O_9  and  C_10
REMARK    9  A    between atoms: C_10  and  C_11
REMARK   10  A    between atoms: C_11  and  N_12
REMARK   11  A    between atoms: N_12  and  C_13
REMARK   12  A    between atoms: N_12  and  C_14
REMARK   13  A    between atoms: C_21  and  C_22
REMARK   14  A    between atoms: O_26  and  C_27
REMARK                            x       y       z     vdW  Elec       q    Type
REMARK                         _______ _______ _______ _____ _____    ______ ____
ROOT
ATOM      1  O   UNL     1       3.406   7.730  17.901  0.00  0.00    +0.000 OA
ENDROOT
BRANCH   1   2
ATOM      2  P   UNL     1       3.500   6.068  17.987  0.00  0.00    +0.000 P 
ATOM      3  O   UNL     1       4.534   5.683  19.057  0.00  0.00    +0.000 OA
BRANCH   2   4
ATOM      4  N   UNL     1       4.817   6.082  16.789  0.00  0.00    +0.000 NA
ATOM      5  H   UNL     1       4.564   5.371  16.111  0.00  0.00    +0.000 HD
BRANCH   4   6
ATOM      6  C   UNL     1       6.218   5.955  17.151  0.00  0.00    +0.000 C 
BRANCH   6   7
ATOM      7  C   UNL     1       6.867   4.667  16.663  0.00  0.00    +0.000 C 
ATOM      8  O   UNL     1       7.987   4.279  16.970  0.00  0.00    +0.000 OA
BRANCH   7  10
ATOM      9  C   UNL     1       6.265   3.923  14.473  0.00  0.00    +0.000 C 
ATOM     10  O   UNL     1       5.970   4.015  15.869  0.00  0.00    +0.000 OA
ENDBRANCH   7  10
ENDBRANCH   6   7
ENDBRANCH   4   6
ENDBRANCH   2   4
BRANCH   2  11
ATOM     11  O   UNL     1       2.220   6.055  19.151  0.00  0.00    +0.000 OA
BRANCH  11  12
ATOM     12  C   UNL     1       1.972   4.841  19.749  0.00  0.00    +0.000 A 
ATOM     13  C   UNL     1       2.242   4.598  21.099  0.00  0.00    +0.000 A 
ATOM     14  C   UNL     1       2.024   3.331  21.639  0.00  0.00    +0.000 A 
ATOM     15  C   UNL     1       1.513   2.312  20.839  0.00  0.00    +0.000 A 
ATOM     16  C   UNL     1       1.213   2.563  19.498  0.00  0.00    +0.000 A 
ATOM     17  C   UNL     1       1.441   3.829  18.954  0.00  0.00    +0.000 A 
ENDBRANCH  11  12
ENDBRANCH   2  11
ENDBRANCH   1   2
BRANCH   1  18
ATOM     18  C   UNL     1       2.352   8.366  18.638  0.00  0.00    +0.000 C 
BRANCH  18  19
ATOM     19  C   UNL     1       1.351   9.139  17.745  0.00  0.00    +0.000 C 
BRANCH  19  20
ATOM     20  N   UNL     1       1.153  10.537  18.199  0.00  0.00    +0.000 N 
ATOM     21  C   UNL     1       2.331  11.404  18.052  0.00  0.00    +0.000 C 
BRANCH  20  22
ATOM     22  C   UNL     1       0.207  10.876  19.182  0.00  0.00    +0.000 A 
ATOM     23  C   UNL     1       0.470  11.103  20.476  0.00  0.00    +0.000 A 
ATOM     24  C   UNL     1      -0.543  11.588  21.443  0.00  0.00    +0.000 A 
ATOM     25  O   UNL     1      -0.256  11.715  22.629  0.00  0.00    +0.000 OA
ATOM     26  O   UNL     1      -1.785  11.937  20.936  0.00  0.00    +0.000 OA
ATOM     27  C   UNL     1      -2.111  11.648  19.605  0.00  0.00    +0.000 A 
ATOM     28  C   UNL     1      -3.418  11.937  19.209  0.00  0.00    +0.000 A 
ATOM     29  C   UNL     1      -3.833  11.617  17.909  0.00  0.00    +0.000 A 
ATOM     30  C   UNL     1      -5.214  11.951  17.426  0.00  0.00    +0.000 C 
ATOM     31  C   UNL     1      -2.933  10.982  17.049  0.00  0.00    +0.000 A 
ATOM     32  C   UNL     1      -1.622  10.716  17.462  0.00  0.00    +0.000 A 
ATOM     33  C   UNL     1      -1.184  11.078  18.740  0.00  0.00    +0.000 A 
ENDBRANCH  20  22
ENDBRANCH  19  20
ENDBRANCH  18  19
ENDBRANCH   1  18
TORSDOF 11
ENDMDL
MODEL 4
REMARK VINA RESULT:      -7.5      2.065      4.365
REMARK  Name = 
REMARK  14 active torsions:
REMARK  status: ('A' for Active; 'I' for Inactive)
REMARK    1  A    between atoms: C_1  and  O_2
REMARK    2  A    between atoms: O_2  and  C_3
REMARK    3  A    between atoms: C_3  and  C_5
REMARK    4  A    between atoms: C_5  and  N_6
REMARK    5  A    between atoms: N_6  and  P_7
REMARK    6  A    between atoms: P_7  and  O_9
REMARK    7  A    between atoms: P_7  and  O_26
REMARK    8  A    between atoms: O_9  and  C_10
REMARK    9  A    between atoms: C_10  and  C_11
REMARK   10  A    between atoms: C_11  and  N_12
REMARK   11  A    between atoms: N_12  and  C_13
REMARK   12  A    between atoms: N_12  and  C_14
REMARK   13  A    between atoms: C_21  and  C_22
REMARK   14  A    between atoms: O_26  and  C_27
REMARK                            x       y       z     vdW  Elec       q    Type
REMARK                         _______ _______ _______ _____ _____    ______ ____
ROOT
ATOM      1  O   UNL     1       3.304   7.032  18.824  0.00  0.00    +0.000 OA
ENDROOT
BRANCH   1   2
ATOM      2  P   UNL     1       3.219   5.368  18.744  0.00  0.00    +0.000 P 
ATOM      3  O   UNL     1       2.104   4.973  17.763  0.00  0.00    +0.000 OA
BRANCH   2   4
ATOM      4  N   UNL     1       2.005   5.368  20.047  0.00  0.00    +0.000 NA
ATOM      5  H   UNL     1       1.924   6.338  20.332  0.00  0.00    +0.000 HD
BRANCH   4   6
ATOM      6  C   UNL     1       2.096   4.507  21.213  0.00  0.00    +0.000 C 
BRANCH   6   7
ATOM      7  C   UNL     1       2.120   3.021  20.882  0.00  0.00    +0.000 C 
ATOM      8  O   UNL     1       1.268   2.427  20.233  0.00  0.00    +0.000 OA
BRANCH   7  10
ATOM      9  C   UNL     1       4.331   2.205  20.485  0.00  0.00    +0.000 C 
ATOM     10  O   UNL     1       3.267   2.491  21.396  0.00  0.00    +0.000 OA
ENDBRANCH   7  10
ENDBRANCH   6   7
ENDBRANCH   4   6
ENDBRANCH   2   4
BRANCH   2  11
ATOM     11  O   UNL     1       4.398   5.368  17.479  0.00  0.00    +0.000 OA
BRANCH  11  12
ATOM     12  C   UNL     1       5.647   5.827  17.830  0.00  0.00    +0.000 A 
ATOM     13  C   UNL     1       6.389   5.265  18.873  0.00  0.00    +0.000 A 
ATOM     14  C   UNL     1       7.626   5.806  19.223  0.00  0.00    +0.000 A 
ATOM     15  C   UNL     1       8.135   6.892  18.516  0.00  0.00    +0.000 A 
ATOM     16  C   UNL     1       7.409   7.434  17.452  0.00  0.00    +0.000 A 
ATOM     17  C   UNL     1       6.165   6.899  17.109  0.00  0.00    +0.000 A 
ENDBRANCH  11  12
ENDBRANCH   2  11
ENDBRANCH   1   2
BRANCH   1  18
ATOM     18  C   UNL     1       2.101   7.733  19.173  0.00  0.00    +0.000 C 
BRANCH  18  19
ATOM     19  C   UNL     1       1.409   8.411  17.965  0.00  0.00    +0.000 C 
BRANCH  19  20
ATOM     20  N   UNL     1       1.230   9.870  18.163  0.00  0.00    +0.000 N 
ATOM     21  C   UNL     1       2.422  10.680  17.868  0.00  0.00    +0.000 C 
BRANCH  20  22
ATOM     22  C   UNL     1       0.289  10.391  19.066  0.00  0.00    +0.000 A 
ATOM     23  C   UNL     1       0.529  10.730  20.340  0.00  0.00    +0.000 A 
ATOM     24  C   UNL     1      -0.466  11.400  21.209  0.00  0.00    +0.000 A 
ATOM     25  O   UNL     1      -0.207  11.627  22.386  0.00  0.00    +0.000 OA
ATOM     26  O   UNL     1      -1.654  11.801  20.618  0.00  0.00    +0.000 OA
ATOM     27  C   UNL     1      -1.963  11.402  19.312  0.00  0.00    +0.000 A 
ATOM     28  C   UNL     1      -3.225  11.759  18.835  0.00  0.00    +0.000 A 
ATOM     29  C   UNL     1      -3.625  11.341  17.558  0.00  0.00    +0.000 A 
ATOM     30  C   UNL     1      -4.954  11.741  16.986  0.00  0.00    +0.000 C 
ATOM     31  C   UNL     1      -2.759  10.544  16.805  0.00  0.00    +0.000 A 
ATOM     32  C   UNL     1      -1.491  10.209  17.297  0.00  0.00    +0.000 A 
ATOM     33  C   UNL     1      -1.063  10.665  18.548  0.00  0.00    +0.000 A 
ENDBRANCH  20  22
ENDBRANCH  19  20
ENDBRANCH  18  19
ENDBRANCH   1  18
TORSDOF 11
ENDMDL
MODEL 5
REMARK VINA RESULT:      -7.5      2.081      2.903
REMARK  Name = 
REMARK  14 active torsions:
REMARK  status: ('A' for Active; 'I' for Inactive)
REMARK    1  A    between atoms: C_1  and  O_2
REMARK    2  A    between atoms: O_2  and  C_3
REMARK    3  A    between atoms: C_3  and  C_5
REMARK    4  A    between atoms: C_5  and  N_6
REMARK    5  A    between atoms: N_6  and  P_7
REMARK    6  A    between atoms: P_7  and  O_9
REMARK    7  A    between atoms: P_7  and  O_26
REMARK    8  A    between atoms: O_9  and  C_10
REMARK    9  A    between atoms: C_10  and  C_11
REMARK   10  A    between atoms: C_11  and  N_12
REMARK   11  A    between atoms: N_12  and  C_13
REMARK   12  A    between atoms: N_12  and  C_14
REMARK   13  A    between atoms: C_21  and  C_22
REMARK   14  A    between atoms: O_26  and  C_27
REMARK                            x       y       z     vdW  Elec       q    Type
REMARK                         _______ _______ _______ _____ _____    ______ ____
ROOT
ATOM      1  O   UNL     1       3.584   7.415  17.646  0.00  0.00    +0.000 OA
ENDROOT
BRANCH   1   2
ATOM      2  P   UNL     1       3.858   5.803  17.973  0.00  0.00    +0.000 P 
ATOM      3  O   UNL     1       5.172   5.670  18.758  0.00  0.00    +0.000 OA
BRANCH   2   4
ATOM      4  N   UNL     1       4.797   5.659  16.468  0.00  0.00    +0.000 NA
ATOM      5  H   UNL     1       4.763   4.674  16.229  0.00  0.00    +0.000 HD
BRANCH   4   6
ATOM      6  C   UNL     1       6.153   6.163  16.330  0.00  0.00    +0.000 C 
BRANCH   6   7
ATOM      7  C   UNL     1       7.137   5.141  15.776  0.00  0.00    +0.000 C 
ATOM      8  O   UNL     1       7.856   4.415  16.451  0.00  0.00    +0.000 OA
BRANCH   7  10
ATOM      9  C   UNL     1       6.410   4.035  13.786  0.00  0.00    +0.000 C 
ATOM     10  O   UNL     1       7.040   5.153  14.416  0.00  0.00    +0.000 OA
ENDBRANCH   7  10
ENDBRANCH   6   7
ENDBRANCH   4   6
ENDBRANCH   2   4
BRANCH   2  11
ATOM     11  O   UNL     1       2.944   5.943  19.435  0.00  0.00    +0.000 OA
BRANCH  11  12
ATOM     12  C   UNL     1       2.331   4.789  19.867  0.00  0.00    +0.000 A 
ATOM     13  C   UNL     1       1.541   3.997  19.027  0.00  0.00    +0.000 A 
ATOM     14  C   UNL     1       0.898   2.868  19.533  0.00  0.00    +0.000 A 
ATOM     15  C   UNL     1       1.062   2.514  20.869  0.00  0.00    +0.000 A 
ATOM     16  C   UNL     1       1.876   3.287  21.701  0.00  0.00    +0.000 A 
ATOM     17  C   UNL     1       2.513   4.424  21.197  0.00  0.00    +0.000 A 
ENDBRANCH  11  12
ENDBRANCH   2  11
ENDBRANCH   1   2
BRANCH   1  18
ATOM     18  C   UNL     1       2.248   7.904  17.833  0.00  0.00    +0.000 C 
BRANCH  18  19
ATOM     19  C   UNL     1       2.157   9.449  17.886  0.00  0.00    +0.000 C 
BRANCH  19  20
ATOM     20  N   UNL     1       1.285   9.925  18.987  0.00  0.00    +0.000 N 
ATOM     21  C   UNL     1       1.198   9.014  20.139  0.00  0.00    +0.000 C 
BRANCH  20  22
ATOM     22  C   UNL     1       0.212  10.805  18.764  0.00  0.00    +0.000 A 
ATOM     23  C   UNL     1      -1.067  10.451  18.584  0.00  0.00    +0.000 A 
ATOM     24  C   UNL     1      -2.179  11.425  18.485  0.00  0.00    +0.000 A 
ATOM     25  O   UNL     1      -3.321  11.040  18.256  0.00  0.00    +0.000 OA
ATOM     26  O   UNL     1      -1.875  12.757  18.720  0.00  0.00    +0.000 OA
ATOM     27  C   UNL     1      -0.542  13.166  18.842  0.00  0.00    +0.000 A 
ATOM     28  C   UNL     1      -0.322  14.539  18.969  0.00  0.00    +0.000 A 
ATOM     29  C   UNL     1       0.990  15.026  19.035  0.00  0.00    +0.000 A 
ATOM     30  C   UNL     1       1.273  16.488  19.218  0.00  0.00    +0.000 C 
ATOM     31  C   UNL     1       2.052  14.122  18.936  0.00  0.00    +0.000 A 
ATOM     32  C   UNL     1       1.809  12.748  18.824  0.00  0.00    +0.000 A 
ATOM     33  C   UNL     1       0.503  12.249  18.810  0.00  0.00    +0.000 A 
ENDBRANCH  20  22
ENDBRANCH  19  20
ENDBRANCH  18  19
ENDBRANCH   1  18
TORSDOF 11
ENDMDL
MODEL 6
REMARK VINA RESULT:      -7.4      2.100      3.116
REMARK  Name = 
REMARK  14 active torsions:
REMARK  status: ('A' for Active; 'I' for Inactive)
REMARK    1  A    between atoms: C_1  and  O_2
REMARK    2  A    between atoms: O_2  and  C_3
REMARK    3  A    between atoms: C_3  and  C_5
REMARK    4  A    between atoms: C_5  and  N_6
REMARK    5  A    between atoms: N_6  and  P_7
REMARK    6  A    between atoms: P_7  and  O_9
REMARK    7  A    between atoms: P_7  and  O_26
REMARK    8  A    between atoms: O_9  and  C_10
REMARK    9  A    between atoms: C_10  and  C_11
REMARK   10  A    between atoms: C_11  and  N_12
REMARK   11  A    between atoms: N_12  and  C_13
REMARK   12  A    between atoms: N_12  and  C_14
REMARK   13  A    between atoms: C_21  and  C_22
REMARK   14  A    between atoms: O_26  and  C_27
REMARK                            x       y       z     vdW  Elec       q    Type
REMARK                         _______ _______ _______ _____ _____    ______ ____
ROOT
ATOM      1  O   UNL     1       3.594   7.170  17.281  0.00  0.00    +0.000 OA
ENDROOT
BRANCH   1   2
ATOM      2  P   UNL     1       3.586   5.540  17.633  0.00  0.00    +0.000 P 
ATOM      3  O   UNL     1       4.729   5.236  18.614  0.00  0.00    +0.000 OA
BRANCH   2   4
ATOM      4  N   UNL     1       4.721   5.246  16.295  0.00  0.00    +0.000 NA
ATOM      5  H   UNL     1       4.155   4.854  15.550  0.00  0.00    +0.000 HD
BRANCH   4   6
ATOM      6  C   UNL     1       5.947   4.481  16.449  0.00  0.00    +0.000 C 
BRANCH   6   7
ATOM      7  C   UNL     1       7.210   5.272  16.134  0.00  0.00    +0.000 C 
ATOM      8  O   UNL     1       7.707   5.396  15.022  0.00  0.00    +0.000 OA
BRANCH   7  10
ATOM      9  C   UNL     1       7.512   7.255  17.433  0.00  0.00    +0.000 C 
ATOM     10  O   UNL     1       7.654   5.840  17.292  0.00  0.00    +0.000 OA
ENDBRANCH   7  10
ENDBRANCH   6   7
ENDBRANCH   4   6
ENDBRANCH   2   4
BRANCH   2  11
ATOM     11  O   UNL     1       2.482   5.826  18.934  0.00  0.00    +0.000 OA
BRANCH  11  12
ATOM     12  C   UNL     1       2.082   4.709  19.632  0.00  0.00    +0.000 A 
ATOM     13  C   UNL     1       1.338   3.681  19.045  0.00  0.00    +0.000 A 
ATOM     14  C   UNL     1       0.912   2.599  19.814  0.00  0.00    +0.000 A 
ATOM     15  C   UNL     1       1.249   2.529  21.163  0.00  0.00    +0.000 A 
ATOM     16  C   UNL     1       2.019   3.539  21.743  0.00  0.00    +0.000 A 
ATOM     17  C   UNL     1       2.438   4.629  20.975  0.00  0.00    +0.000 A 
ENDBRANCH  11  12
ENDBRANCH   2  11
ENDBRANCH   1   2
BRANCH   1  18
ATOM     18  C   UNL     1       3.069   8.058  18.278  0.00  0.00    +0.000 C 
BRANCH  18  19
ATOM     19  C   UNL     1       1.872   8.905  17.782  0.00  0.00    +0.000 C 
BRANCH  19  20
ATOM     20  N   UNL     1       1.213   9.650  18.883  0.00  0.00    +0.000 N 
ATOM     21  C   UNL     1       1.196   8.948  20.175  0.00  0.00    +0.000 C 
BRANCH  20  22
ATOM     22  C   UNL     1       0.215  10.610  18.643  0.00  0.00    +0.000 A 
ATOM     23  C   UNL     1      -1.084  10.353  18.434  0.00  0.00    +0.000 A 
ATOM     24  C   UNL     1      -2.117  11.408  18.319  0.00  0.00    +0.000 A 
ATOM     25  O   UNL     1      -3.279  11.112  18.064  0.00  0.00    +0.000 OA
ATOM     26  O   UNL     1      -1.719  12.713  18.569  0.00  0.00    +0.000 OA
ATOM     27  C   UNL     1      -0.362  13.021  18.722  0.00  0.00    +0.000 A 
ATOM     28  C   UNL     1      -0.043  14.372  18.863  0.00  0.00    +0.000 A 
ATOM     29  C   UNL     1       1.301  14.759  18.959  0.00  0.00    +0.000 A 
ATOM     30  C   UNL     1       1.688  16.195  19.158  0.00  0.00    +0.000 C 
ATOM     31  C   UNL     1       2.294  13.778  18.876  0.00  0.00    +0.000 A 
ATOM     32  C   UNL     1       1.952  12.427  18.749  0.00  0.00    +0.000 A 
ATOM     33  C   UNL     1       0.612  12.027  18.705  0.00  0.00    +0.000 A 
ENDBRANCH  20  22
ENDBRANCH  19  20
ENDBRANCH  18  19
ENDBRANCH   1  18
TORSDOF 11
ENDMDL
MODEL 7
REMARK VINA RESULT:      -7.4      1.492      1.985
REMARK  Name = 
REMARK  14 active torsions:
REMARK  status: ('A' for Active; 'I' for Inactive)
REMARK    1  A    between atoms: C_1  and  O_2
REMARK    2  A    between atoms: O_2  and  C_3
REMARK    3  A    between atoms: C_3  and  C_5
REMARK    4  A    between atoms: C_5  and  N_6
REMARK    5  A    between atoms: N_6  and  P_7
REMARK    6  A    between atoms: P_7  and  O_9
REMARK    7  A    between atoms: P_7  and  O_26
REMARK    8  A    between atoms: O_9  and  C_10
REMARK    9  A    between atoms: C_10  and  C_11
REMARK   10  A    between atoms: C_11  and  N_12
REMARK   11  A    between atoms: N_12  and  C_13
REMARK   12  A    between atoms: N_12  and  C_14
REMARK   13  A    between atoms: C_21  and  C_22
REMARK   14  A    between atoms: O_26  and  C_27
REMARK                            x       y       z     vdW  Elec       q    Type
REMARK                         _______ _______ _______ _____ _____    ______ ____
ROOT
ATOM      1  O   UNL     1       3.744   7.454  17.929  0.00  0.00    +0.000 OA
ENDROOT
BRANCH   1   2
ATOM      2  P   UNL     1       3.692   5.788  17.919  0.00  0.00    +0.000 P 
ATOM      3  O   UNL     1       4.484   5.257  19.125  0.00  0.00    +0.000 OA
BRANCH   2   4
ATOM      4  N   UNL     1       5.198   5.747  16.972  0.00  0.00    +0.000 NA
ATOM      5  H   UNL     1       5.786   5.066  17.441  0.00  0.00    +0.000 HD
BRANCH   4   6
ATOM      6  C   UNL     1       5.965   6.939  16.653  0.00  0.00    +0.000 C 
BRANCH   6   7
ATOM      7  C   UNL     1       7.268   7.060  17.432  0.00  0.00    +0.000 C 
ATOM      8  O   UNL     1       7.884   8.101  17.621  0.00  0.00    +0.000 OA
BRANCH   7  10
ATOM      9  C   UNL     1       7.925   5.713  19.294  0.00  0.00    +0.000 C 
ATOM     10  O   UNL     1       7.594   5.823  17.908  0.00  0.00    +0.000 OA
ENDBRANCH   7  10
ENDBRANCH   6   7
ENDBRANCH   4   6
ENDBRANCH   2   4
BRANCH   2  11
ATOM     11  O   UNL     1       2.227   5.828  18.840  0.00  0.00    +0.000 OA
BRANCH  11  12
ATOM     12  C   UNL     1       1.963   4.703  19.586  0.00  0.00    +0.000 A 
ATOM     13  C   UNL     1       2.197   4.642  20.964  0.00  0.00    +0.000 A 
ATOM     14  C   UNL     1       1.964   3.457  21.662  0.00  0.00    +0.000 A 
ATOM     15  C   UNL     1       1.475   2.340  20.990  0.00  0.00    +0.000 A 
ATOM     16  C   UNL     1       1.211   2.409  19.620  0.00  0.00    +0.000 A 
ATOM     17  C   UNL     1       1.453   3.593  18.919  0.00  0.00    +0.000 A 
ENDBRANCH  11  12
ENDBRANCH   2  11
ENDBRANCH   1   2
BRANCH   1  18
ATOM     18  C   UNL     1       2.526   8.151  17.627  0.00  0.00    +0.000 C 
BRANCH  18  19
ATOM     19  C   UNL     1       1.860   8.798  18.866  0.00  0.00    +0.000 C 
BRANCH  19  20
ATOM     20  N   UNL     1       1.350  10.162  18.583  0.00  0.00    +0.000 N 
ATOM     21  C   UNL     1       2.300  11.041  17.887  0.00  0.00    +0.000 C 
BRANCH  20  22
ATOM     22  C   UNL     1       0.353  10.764  19.369  0.00  0.00    +0.000 A 
ATOM     23  C   UNL     1       0.535  11.321  20.574  0.00  0.00    +0.000 A 
ATOM     24  C   UNL     1      -0.522  12.060  21.302  0.00  0.00    +0.000 A 
ATOM     25  O   UNL     1      -0.312  12.493  22.430  0.00  0.00    +0.000 OA
ATOM     26  O   UNL     1      -1.715  12.283  20.630  0.00  0.00    +0.000 OA
ATOM     27  C   UNL     1      -1.961  11.657  19.402  0.00  0.00    +0.000 A 
ATOM     28  C   UNL     1      -3.227  11.851  18.848  0.00  0.00    +0.000 A 
ATOM     29  C   UNL     1      -3.565  11.205  17.651  0.00  0.00    +0.000 A 
ATOM     30  C   UNL     1      -4.897  11.421  16.995  0.00  0.00    +0.000 C 
ATOM     31  C   UNL     1      -2.631  10.351  17.057  0.00  0.00    +0.000 A 
ATOM     32  C   UNL     1      -1.361  10.182  17.621  0.00  0.00    +0.000 A 
ATOM     33  C   UNL     1      -0.998  10.863  18.788  0.00  0.00    +0.000 A 
ENDBRANCH  20  22
ENDBRANCH  19  20
ENDBRANCH  18  19
ENDBRANCH   1  18
TORSDOF 11
ENDMDL
MODEL 8
REMARK VINA RESULT:      -7.4      2.069      4.363
REMARK  Name = 
REMARK  14 active torsions:
REMARK  status: ('A' for Active; 'I' for Inactive)
REMARK    1  A    between atoms: C_1  and  O_2
REMARK    2  A    between atoms: O_2  and  C_3
REMARK    3  A    between atoms: C_3  and  C_5
REMARK    4  A    between atoms: C_5  and  N_6
REMARK    5  A    between atoms: N_6  and  P_7
REMARK    6  A    between atoms: P_7  and  O_9
REMARK    7  A    between atoms: P_7  and  O_26
REMARK    8  A    between atoms: O_9  and  C_10
REMARK    9  A    between atoms: C_10  and  C_11
REMARK   10  A    between atoms: C_11  and  N_12
REMARK   11  A    between atoms: N_12  and  C_13
REMARK   12  A    between atoms: N_12  and  C_14
REMARK   13  A    between atoms: C_21  and  C_22
REMARK   14  A    between atoms: O_26  and  C_27
REMARK                            x       y       z     vdW  Elec       q    Type
REMARK                         _______ _______ _______ _____ _____    ______ ____
ROOT
ATOM      1  O   UNL     1       2.196   6.823  17.691  0.00  0.00    +0.000 OA
ENDROOT
BRANCH   1   2
ATOM      2  P   UNL     1       3.128   5.524  18.164  0.00  0.00    +0.000 P 
ATOM      3  O   UNL     1       2.775   4.313  17.286  0.00  0.00    +0.000 OA
BRANCH   2   4
ATOM      4  N   UNL     1       1.848   5.018  19.292  0.00  0.00    +0.000 NA
ATOM      5  H   UNL     1       1.066   5.635  19.100  0.00  0.00    +0.000 HD
BRANCH   4   6
ATOM      6  C   UNL     1       2.055   4.902  20.725  0.00  0.00    +0.000 C 
BRANCH   6   7
ATOM      7  C   UNL     1       2.282   3.473  21.201  0.00  0.00    +0.000 C 
ATOM      8  O   UNL     1       2.077   3.066  22.338  0.00  0.00    +0.000 OA
BRANCH   7  10
ATOM      9  C   UNL     1       1.774   1.827  19.544  0.00  0.00    +0.000 C 
ATOM     10  O   UNL     1       2.707   2.734  20.137  0.00  0.00    +0.000 OA
ENDBRANCH   7  10
ENDBRANCH   6   7
ENDBRANCH   4   6
ENDBRANCH   2   4
BRANCH   2  11
ATOM     11  O   UNL     1       4.372   6.017  17.067  0.00  0.00    +0.000 OA
BRANCH  11  12
ATOM     12  C   UNL     1       5.604   6.251  17.632  0.00  0.00    +0.000 A 
ATOM     13  C   UNL     1       6.486   7.218  17.140  0.00  0.00    +0.000 A 
ATOM     14  C   UNL     1       7.746   7.374  17.717  0.00  0.00    +0.000 A 
ATOM     15  C   UNL     1       8.118   6.583  18.801  0.00  0.00    +0.000 A 
ATOM     16  C   UNL     1       7.225   5.639  19.314  0.00  0.00    +0.000 A 
ATOM     17  C   UNL     1       5.967   5.475  18.730  0.00  0.00    +0.000 A 
ENDBRANCH  11  12
ENDBRANCH   2  11
ENDBRANCH   1   2
BRANCH   1  18
ATOM     18  C   UNL     1       2.570   8.115  18.190  0.00  0.00    +0.000 C 
BRANCH  18  19
ATOM     19  C   UNL     1       1.601   8.669  19.263  0.00  0.00    +0.000 C 
BRANCH  19  20
ATOM     20  N   UNL     1       1.124  10.036  18.941  0.00  0.00    +0.000 N 
ATOM     21  C   UNL     1       2.077  10.854  18.175  0.00  0.00    +0.000 C 
BRANCH  20  22
ATOM     22  C   UNL     1       0.175  10.703  19.734  0.00  0.00    +0.000 A 
ATOM     23  C   UNL     1       0.396  11.221  20.950  0.00  0.00    +0.000 A 
ATOM     24  C   UNL     1      -0.601  12.031  21.687  0.00  0.00    +0.000 A 
ATOM     25  O   UNL     1      -0.362  12.424  22.824  0.00  0.00    +0.000 OA
ATOM     26  O   UNL     1      -1.768  12.362  21.015  0.00  0.00    +0.000 OA
ATOM     27  C   UNL     1      -2.058  11.781  19.775  0.00  0.00    +0.000 A 
ATOM     28  C   UNL     1      -3.302  12.088  19.220  0.00  0.00    +0.000 A 
ATOM     29  C   UNL     1      -3.684  11.493  18.010  0.00  0.00    +0.000 A 
ATOM     30  C   UNL     1      -4.991  11.829  17.354  0.00  0.00    +0.000 C 
ATOM     31  C   UNL     1      -2.820  10.577  17.404  0.00  0.00    +0.000 A 
ATOM     32  C   UNL     1      -1.571  10.295  17.970  0.00  0.00    +0.000 A 
ATOM     33  C   UNL     1      -1.159  10.922  19.150  0.00  0.00    +0.000 A 
ENDBRANCH  20  22
ENDBRANCH  19  20
ENDBRANCH  18  19
ENDBRANCH   1  18
TORSDOF 11
ENDMDL
MODEL 9
REMARK VINA RESULT:      -7.4      0.877      1.456
REMARK  Name = 
REMARK  14 active torsions:
REMARK  status: ('A' for Active; 'I' for Inactive)
REMARK    1  A    between atoms: C_1  and  O_2
REMARK    2  A    between atoms: O_2  and  C_3
REMARK    3  A    between atoms: C_3  and  C_5
REMARK    4  A    between atoms: C_5  and  N_6
REMARK    5  A    between atoms: N_6  and  P_7
REMARK    6  A    between atoms: P_7  and  O_9
REMARK    7  A    between atoms: P_7  and  O_26
REMARK    8  A    between atoms: O_9  and  C_10
REMARK    9  A    between atoms: C_10  and  C_11
REMARK   10  A    between atoms: C_11  and  N_12
REMARK   11  A    between atoms: N_12  and  C_13
REMARK   12  A    between atoms: N_12  and  C_14
REMARK   13  A    between atoms: C_21  and  C_22
REMARK   14  A    between atoms: O_26  and  C_27
REMARK                            x       y       z     vdW  Elec       q    Type
REMARK                         _______ _______ _______ _____ _____    ______ ____
ROOT
ATOM      1  O   UNL     1       3.519   7.670  17.674  0.00  0.00    +0.000 OA
ENDROOT
BRANCH   1   2
ATOM      2  P   UNL     1       4.122   6.115  17.699  0.00  0.00    +0.000 P 
ATOM      3  O   UNL     1       5.431   6.101  18.505  0.00  0.00    +0.000 OA
BRANCH   2   4
ATOM      4  N   UNL     1       5.080   6.464  16.240  0.00  0.00    +0.000 NA
ATOM      5  H   UNL     1       4.663   7.299  15.844  0.00  0.00    +0.000 HD
BRANCH   4   6
ATOM      6  C   UNL     1       5.323   5.481  15.199  0.00  0.00    +0.000 C 
BRANCH   6   7
ATOM      7  C   UNL     1       6.799   5.207  14.941  0.00  0.00    +0.000 C 
ATOM      8  O   UNL     1       7.272   4.828  13.877  0.00  0.00    +0.000 OA
BRANCH   7  10
ATOM      9  C   UNL     1       7.712   4.434  17.011  0.00  0.00    +0.000 C 
ATOM     10  O   UNL     1       7.489   5.498  16.082  0.00  0.00    +0.000 OA
ENDBRANCH   7  10
ENDBRANCH   6   7
ENDBRANCH   4   6
ENDBRANCH   2   4
BRANCH   2  11
ATOM     11  O   UNL     1       3.190   5.776  19.117  0.00  0.00    +0.000 OA
BRANCH  11  12
ATOM     12  C   UNL     1       2.439   4.624  19.073  0.00  0.00    +0.000 A 
ATOM     13  C   UNL     1       1.442   4.340  20.012  0.00  0.00    +0.000 A 
ATOM     14  C   UNL     1       0.750   3.131  19.953  0.00  0.00    +0.000 A 
ATOM     15  C   UNL     1       1.035   2.215  18.944  0.00  0.00    +0.000 A 
ATOM     16  C   UNL     1       2.009   2.511  17.988  0.00  0.00    +0.000 A 
ATOM     17  C   UNL     1       2.709   3.718  18.052  0.00  0.00    +0.000 A 
ENDBRANCH  11  12
ENDBRANCH   2  11
ENDBRANCH   1   2
BRANCH   1  18
ATOM     18  C   UNL     1       2.119   7.834  17.940  0.00  0.00    +0.000 C 
BRANCH  18  19
ATOM     19  C   UNL     1       1.825   8.692  19.195  0.00  0.00    +0.000 C 
BRANCH  19  20
ATOM     20  N   UNL     1       1.224  10.004  18.854  0.00  0.00    +0.000 N 
ATOM     21  C   UNL     1       2.093  10.890  18.063  0.00  0.00    +0.000 C 
BRANCH  20  22
ATOM     22  C   UNL     1       0.227  10.598  19.645  0.00  0.00    +0.000 A 
ATOM     23  C   UNL     1       0.383  11.042  20.900  0.00  0.00    +0.000 A 
ATOM     24  C   UNL     1      -0.664  11.781  21.642  0.00  0.00    +0.000 A 
ATOM     25  O   UNL     1      -0.483  12.105  22.811  0.00  0.00    +0.000 OA
ATOM     26  O   UNL     1      -1.808  12.130  20.942  0.00  0.00    +0.000 OA
ATOM     27  C   UNL     1      -2.031  11.624  19.655  0.00  0.00    +0.000 A 
ATOM     28  C   UNL     1      -3.257  11.939  19.067  0.00  0.00    +0.000 A 
ATOM     29  C   UNL     1      -3.573  11.416  17.806  0.00  0.00    +0.000 A 
ATOM     30  C   UNL     1      -4.859  11.765  17.115  0.00  0.00    +0.000 C 
ATOM     31  C   UNL     1      -2.662  10.559  17.181  0.00  0.00    +0.000 A 
ATOM     32  C   UNL     1      -1.432  10.268  17.783  0.00  0.00    +0.000 A 
ATOM     33  C   UNL     1      -1.086  10.827  19.017  0.00  0.00    +0.000 A 
ENDBRANCH  20  22
ENDBRANCH  19  20
ENDBRANCH  18  19
ENDBRANCH   1  18
TORSDOF 11
ENDMDL
