MODEL 1
REMARK VINA RESULT:      -8.2      0.000      0.000
REMARK  Name = 
REMARK  7 active torsions:
REMARK  status: ('A' for Active; 'I' for Inactive)
REMARK    1  A    between atoms: C_1  and  C_2
REMARK    2  A    between atoms: C_2  and  C_3
REMARK    3  A    between atoms: C_2  and  C_4
REMARK    4  A    between atoms: C_4  and  C_5
REMARK    5  A    between atoms: C_5  and  N_6
REMARK    6  A    between atoms: C_11  and  C_12
REMARK    7  A    between atoms: N_14  and  C_15
REMARK                            x       y       z     vdW  Elec       q    Type
REMARK                         _______ _______ _______ _____ _____    ______ ____
ROOT
ATOM      1  N   UNL     1       6.596   4.777  16.137  0.00  0.00    +0.000 N 
ATOM      2  N   UNL     1       7.193   5.899  15.677  0.00  0.00    +0.000 NA
ATOM      3  N   UNL     1       7.637   6.557  16.647  0.00  0.00    +0.000 NA
ATOM      4  C   UNL     1       7.383   5.883  17.820  0.00  0.00    +0.000 C 
ATOM      5  O   UNL     1       7.717   6.246  18.947  0.00  0.00    +0.000 OA
ATOM      6  C   UNL     1       6.634   4.621  17.575  0.00  0.00    +0.000 C 
ENDROOT
BRANCH   6   7
ATOM      7  C   UNL     1       5.254   4.610  18.211  0.00  0.00    +0.000 C 
ATOM      8  O   UNL     1       4.608   5.653  18.341  0.00  0.00    +0.000 OA
ATOM      9  N   UNL     1       4.772   3.345  18.540  0.00  0.00    +0.000 N 
ATOM     10  H   UNL     1       5.442   2.578  18.554  0.00  0.00    +0.000 HD
BRANCH   9  11
ATOM     11  C   UNL     1       3.500   3.074  19.102  0.00  0.00    +0.000 A 
ATOM     12  C   UNL     1       2.327   2.964  18.358  0.00  0.00    +0.000 A 
ATOM     13  C   UNL     1       1.108   2.759  18.997  0.00  0.00    +0.000 A 
ATOM     14  C   UNL     1       1.097   2.650  20.375  0.00  0.00    +0.000 A 
ATOM     15  N   UNL     1       2.211   2.705  21.136  0.00  0.00    +0.000 NA
ATOM     16  C   UNL     1       3.382   2.912  20.482  0.00  0.00    +0.000 A 
ENDBRANCH   9  11
ENDBRANCH   6   7
BRANCH   1  17
ATOM     17  C   UNL     1       6.213   3.705  15.236  0.00  0.00    +0.000 C 
BRANCH  17  18
ATOM     18  C   UNL     1       5.603   4.250  13.946  0.00  0.00    +0.000 C 
BRANCH  18  20
ATOM     19  C   UNL     1       4.721   3.335  11.789  0.00  0.00    +0.000 C 
ATOM     20  C   UNL     1       5.958   3.442  12.686  0.00  0.00    +0.000 C 
ATOM     21  C   UNL     1       7.114   4.057  11.898  0.00  0.00    +0.000 C 
ENDBRANCH  18  20
ENDBRANCH  17  18
ENDBRANCH   1  17
TORSDOF 5
ENDMDL
MODEL 2
REMARK VINA RESULT:      -8.1      0.740      1.110
REMARK  Name = 
REMARK  7 active torsions:
REMARK  status: ('A' for Active; 'I' for Inactive)
REMARK    1  A    between atoms: C_1  and  C_2
REMARK    2  A    between atoms: C_2  and  C_3
REMARK    3  A    between atoms: C_2  and  C_4
REMARK    4  A    between atoms: C_4  and  C_5
REMARK    5  A    between atoms: C_5  and  N_6
REMARK    6  A    between atoms: C_11  and  C_12
REMARK    7  A    between atoms: N_14  and  C_15
REMARK                            x       y       z     vdW  Elec       q    Type
REMARK                         _______ _______ _______ _____ _____    ______ ____
ROOT
ATOM      1  N   UNL     1       6.650   4.775  16.074  0.00  0.00    +0.000 N 
ATOM      2  N   UNL     1       7.293   5.872  15.617  0.00  0.00    +0.000 NA
ATOM      3  N   UNL     1       7.693   6.552  16.592  0.00  0.00    +0.000 NA
ATOM      4  C   UNL     1       7.360   5.917  17.767  0.00  0.00    +0.000 C 
ATOM      5  O   UNL     1       7.636   6.308  18.901  0.00  0.00    +0.000 OA
ATOM      6  C   UNL     1       6.602   4.662  17.516  0.00  0.00    +0.000 C 
ENDROOT
BRANCH   6   7
ATOM      7  C   UNL     1       5.188   4.693  18.071  0.00  0.00    +0.000 C 
ATOM      8  O   UNL     1       4.559   5.753  18.143  0.00  0.00    +0.000 OA
ATOM      9  N   UNL     1       4.660   3.446  18.397  0.00  0.00    +0.000 N 
ATOM     10  H   UNL     1       5.311   2.665  18.466  0.00  0.00    +0.000 HD
BRANCH   9  11
ATOM     11  C   UNL     1       3.353   3.214  18.891  0.00  0.00    +0.000 A 
ATOM     12  C   UNL     1       3.033   3.149  20.246  0.00  0.00    +0.000 A 
ATOM     13  C   UNL     1       1.733   2.853  20.646  0.00  0.00    +0.000 A 
ATOM     14  C   UNL     1       0.774   2.648  19.671  0.00  0.00    +0.000 A 
ATOM     15  N   UNL     1       1.025   2.746  18.348  0.00  0.00    +0.000 NA
ATOM     16  C   UNL     1       2.304   3.029  17.992  0.00  0.00    +0.000 A 
ENDBRANCH   9  11
ENDBRANCH   6   7
BRANCH   1  17
ATOM     17  C   UNL     1       6.298   3.684  15.184  0.00  0.00    +0.000 C 
BRANCH  17  18
ATOM     18  C   UNL     1       5.570   4.189  13.939  0.00  0.00    +0.000 C 
BRANCH  18  20
ATOM     19  C   UNL     1       4.659   3.371  11.756  0.00  0.00    +0.000 C 
ATOM     20  C   UNL     1       5.899   3.413  12.654  0.00  0.00    +0.000 C 
ATOM     21  C   UNL     1       7.072   4.019  11.883  0.00  0.00    +0.000 C 
ENDBRANCH  18  20
ENDBRANCH  17  18
ENDBRANCH   1  17
TORSDOF 5
ENDMDL
MODEL 3
REMARK VINA RESULT:      -8.0      1.072      1.448
REMARK  Name = 
REMARK  7 active torsions:
REMARK  status: ('A' for Active; 'I' for Inactive)
REMARK    1  A    between atoms: C_1  and  C_2
REMARK    2  A    between atoms: C_2  and  C_3
REMARK    3  A    between atoms: C_2  and  C_4
REMARK    4  A    between atoms: C_4  and  C_5
REMARK    5  A    between atoms: C_5  and  N_6
REMARK    6  A    between atoms: C_11  and  C_12
REMARK    7  A    between atoms: N_14  and  C_15
REMARK                            x       y       z     vdW  Elec       q    Type
REMARK                         _______ _______ _______ _____ _____    ______ ____
ROOT
ATOM      1  N   UNL     1       6.116   4.472  14.916  0.00  0.00    +0.000 N 
ATOM      2  N   UNL     1       6.948   5.509  14.672  0.00  0.00    +0.000 NA
ATOM      3  N   UNL     1       7.609   5.760  15.708  0.00  0.00    +0.000 NA
ATOM      4  C   UNL     1       7.269   4.870  16.702  0.00  0.00    +0.000 C 
ATOM      5  O   UNL     1       7.757   4.827  17.830  0.00  0.00    +0.000 OA
ATOM      6  C   UNL     1       6.207   3.928  16.253  0.00  0.00    +0.000 C 
ENDROOT
BRANCH   6   7
ATOM      7  C   UNL     1       4.915   4.061  17.042  0.00  0.00    +0.000 C 
ATOM      8  O   UNL     1       4.251   5.101  16.999  0.00  0.00    +0.000 OA
ATOM      9  N   UNL     1       4.523   2.910  17.720  0.00  0.00    +0.000 N 
ATOM     10  H   UNL     1       5.218   2.173  17.833  0.00  0.00    +0.000 HD
BRANCH   9  11
ATOM     11  C   UNL     1       3.339   2.774  18.486  0.00  0.00    +0.000 A 
ATOM     12  C   UNL     1       2.103   2.413  17.952  0.00  0.00    +0.000 A 
ATOM     13  C   UNL     1       0.976   2.364  18.766  0.00  0.00    +0.000 A 
ATOM     14  C   UNL     1       1.118   2.662  20.108  0.00  0.00    +0.000 A 
ATOM     15  N   UNL     1       2.300   2.974  20.680  0.00  0.00    +0.000 NA
ATOM     16  C   UNL     1       3.379   3.018  19.858  0.00  0.00    +0.000 A 
ENDBRANCH   9  11
ENDBRANCH   6   7
BRANCH   1  17
ATOM     17  C   UNL     1       5.413   3.802  13.836  0.00  0.00    +0.000 C 
BRANCH  17  18
ATOM     18  C   UNL     1       6.330   3.557  12.639  0.00  0.00    +0.000 C 
BRANCH  18  20
ATOM     19  C   UNL     1       5.914   1.433  11.381  0.00  0.00    +0.000 C 
ATOM     20  C   UNL     1       5.628   2.937  11.419  0.00  0.00    +0.000 C 
ATOM     21  C   UNL     1       4.118   3.174  11.425  0.00  0.00    +0.000 C 
ENDBRANCH  18  20
ENDBRANCH  17  18
ENDBRANCH   1  17
TORSDOF 5
ENDMDL
MODEL 4
REMARK VINA RESULT:      -7.8      1.415      1.705
REMARK  Name = 
REMARK  7 active torsions:
REMARK  status: ('A' for Active; 'I' for Inactive)
REMARK    1  A    between atoms: C_1  and  C_2
REMARK    2  A    between atoms: C_2  and  C_3
REMARK    3  A    between atoms: C_2  and  C_4
REMARK    4  A    between atoms: C_4  and  C_5
REMARK    5  A    between atoms: C_5  and  N_6
REMARK    6  A    between atoms: C_11  and  C_12
REMARK    7  A    between atoms: N_14  and  C_15
REMARK                            x       y       z     vdW  Elec       q    Type
REMARK                         _______ _______ _______ _____ _____    ______ ____
ROOT
ATOM      1  N   UNL     1       6.041   4.735  15.269  0.00  0.00    +0.000 N 
ATOM      2  N   UNL     1       6.870   5.802  15.258  0.00  0.00    +0.000 NA
ATOM      3  N   UNL     1       7.523   5.828  16.327  0.00  0.00    +0.000 NA
ATOM      4  C   UNL     1       7.181   4.746  17.106  0.00  0.00    +0.000 C 
ATOM      5  O   UNL     1       7.663   4.465  18.202  0.00  0.00    +0.000 OA
ATOM      6  C   UNL     1       6.126   3.918  16.460  0.00  0.00    +0.000 C 
ENDROOT
BRANCH   6   7
ATOM      7  C   UNL     1       4.828   3.876  17.250  0.00  0.00    +0.000 C 
ATOM      8  O   UNL     1       3.746   3.708  16.681  0.00  0.00    +0.000 OA
ATOM      9  N   UNL     1       4.982   3.956  18.632  0.00  0.00    +0.000 N 
ATOM     10  H   UNL     1       5.886   4.265  18.986  0.00  0.00    +0.000 HD
BRANCH   9  11
ATOM     11  C   UNL     1       3.929   3.897  19.577  0.00  0.00    +0.000 A 
ATOM     12  C   UNL     1       3.106   4.976  19.895  0.00  0.00    +0.000 A 
ATOM     13  C   UNL     1       2.134   4.850  20.883  0.00  0.00    +0.000 A 
ATOM     14  C   UNL     1       1.997   3.630  21.520  0.00  0.00    +0.000 A 
ATOM     15  N   UNL     1       2.739   2.544  21.216  0.00  0.00    +0.000 NA
ATOM     16  C   UNL     1       3.681   2.703  20.253  0.00  0.00    +0.000 A 
ENDBRANCH   9  11
ENDBRANCH   6   7
BRANCH   1  17
ATOM     17  C   UNL     1       5.347   4.309  14.067  0.00  0.00    +0.000 C 
BRANCH  17  18
ATOM     18  C   UNL     1       6.243   3.444  13.181  0.00  0.00    +0.000 C 
BRANCH  18  20
ATOM     19  C   UNL     1       5.945   1.694  11.416  0.00  0.00    +0.000 C 
ATOM     20  C   UNL     1       5.664   3.153  11.786  0.00  0.00    +0.000 C 
ATOM     21  C   UNL     1       4.162   3.425  11.703  0.00  0.00    +0.000 C 
ENDBRANCH  18  20
ENDBRANCH  17  18
ENDBRANCH   1  17
TORSDOF 5
ENDMDL
MODEL 5
REMARK VINA RESULT:      -7.8      1.324      1.496
REMARK  Name = 
REMARK  7 active torsions:
REMARK  status: ('A' for Active; 'I' for Inactive)
REMARK    1  A    between atoms: C_1  and  C_2
REMARK    2  A    between atoms: C_2  and  C_3
REMARK    3  A    between atoms: C_2  and  C_4
REMARK    4  A    between atoms: C_4  and  C_5
REMARK    5  A    between atoms: C_5  and  N_6
REMARK    6  A    between atoms: C_11  and  C_12
REMARK    7  A    between atoms: N_14  and  C_15
REMARK                            x       y       z     vdW  Elec       q    Type
REMARK                         _______ _______ _______ _____ _____    ______ ____
ROOT
ATOM      1  N   UNL     1       6.383   4.868  16.138  0.00  0.00    +0.000 N 
ATOM      2  N   UNL     1       6.563   6.111  15.640  0.00  0.00    +0.000 NA
ATOM      3  N   UNL     1       7.051   6.846  16.530  0.00  0.00    +0.000 NA
ATOM      4  C   UNL     1       7.255   6.112  17.677  0.00  0.00    +0.000 C 
ATOM      5  O   UNL     1       7.748   6.531  18.723  0.00  0.00    +0.000 OA
ATOM      6  C   UNL     1       6.799   4.705  17.515  0.00  0.00    +0.000 C 
ENDROOT
BRANCH   6   7
ATOM      7  C   UNL     1       5.655   4.334  18.444  0.00  0.00    +0.000 C 
ATOM      8  O   UNL     1       5.864   3.709  19.487  0.00  0.00    +0.000 OA
ATOM      9  N   UNL     1       4.408   4.823  18.061  0.00  0.00    +0.000 N 
ATOM     10  H   UNL     1       4.314   5.171  17.108  0.00  0.00    +0.000 HD
BRANCH   9  11
ATOM     11  C   UNL     1       3.203   4.646  18.783  0.00  0.00    +0.000 A 
ATOM     12  C   UNL     1       2.845   5.402  19.899  0.00  0.00    +0.000 A 
ATOM     13  C   UNL     1       1.670   5.120  20.589  0.00  0.00    +0.000 A 
ATOM     14  C   UNL     1       0.866   4.093  20.130  0.00  0.00    +0.000 A 
ATOM     15  N   UNL     1       1.147   3.363  19.030  0.00  0.00    +0.000 NA
ATOM     16  C   UNL     1       2.303   3.659  18.384  0.00  0.00    +0.000 A 
ENDBRANCH   9  11
ENDBRANCH   6   7
BRANCH   1  17
ATOM     17  C   UNL     1       6.069   3.747  15.270  0.00  0.00    +0.000 C 
BRANCH  17  18
ATOM     18  C   UNL     1       5.449   4.216  13.954  0.00  0.00    +0.000 C 
BRANCH  18  20
ATOM     19  C   UNL     1       4.714   3.273  11.755  0.00  0.00    +0.000 C 
ATOM     20  C   UNL     1       5.894   3.412  12.722  0.00  0.00    +0.000 C 
ATOM     21  C   UNL     1       7.080   4.049  11.998  0.00  0.00    +0.000 C 
ENDBRANCH  18  20
ENDBRANCH  17  18
ENDBRANCH   1  17
TORSDOF 5
ENDMDL
MODEL 6
REMARK VINA RESULT:      -7.8      1.496      1.736
REMARK  Name = 
REMARK  7 active torsions:
REMARK  status: ('A' for Active; 'I' for Inactive)
REMARK    1  A    between atoms: C_1  and  C_2
REMARK    2  A    between atoms: C_2  and  C_3
REMARK    3  A    between atoms: C_2  and  C_4
REMARK    4  A    between atoms: C_4  and  C_5
REMARK    5  A    between atoms: C_5  and  N_6
REMARK    6  A    between atoms: C_11  and  C_12
REMARK    7  A    between atoms: N_14  and  C_15
REMARK                            x       y       z     vdW  Elec       q    Type
REMARK                         _______ _______ _______ _____ _____    ______ ____
ROOT
ATOM      1  N   UNL     1       5.989   4.649  15.111  0.00  0.00    +0.000 N 
ATOM      2  N   UNL     1       6.842   5.694  15.033  0.00  0.00    +0.000 NA
ATOM      3  N   UNL     1       7.549   5.728  16.067  0.00  0.00    +0.000 NA
ATOM      4  C   UNL     1       7.219   4.673  16.889  0.00  0.00    +0.000 C 
ATOM      5  O   UNL     1       7.748   4.406  17.967  0.00  0.00    +0.000 OA
ATOM      6  C   UNL     1       6.113   3.859  16.317  0.00  0.00    +0.000 C 
ENDROOT
BRANCH   6   7
ATOM      7  C   UNL     1       4.856   3.869  17.171  0.00  0.00    +0.000 C 
ATOM      8  O   UNL     1       3.737   3.867  16.650  0.00  0.00    +0.000 OA
ATOM      9  N   UNL     1       5.080   3.797  18.543  0.00  0.00    +0.000 N 
ATOM     10  H   UNL     1       6.027   3.978  18.873  0.00  0.00    +0.000 HD
BRANCH   9  11
ATOM     11  C   UNL     1       4.072   3.750  19.536  0.00  0.00    +0.000 A 
ATOM     12  C   UNL     1       3.682   2.586  20.196  0.00  0.00    +0.000 A 
ATOM     13  C   UNL     1       2.638   2.617  21.115  0.00  0.00    +0.000 A 
ATOM     14  C   UNL     1       2.016   3.826  21.365  0.00  0.00    +0.000 A 
ATOM     15  N   UNL     1       2.386   4.988  20.785  0.00  0.00    +0.000 NA
ATOM     16  C   UNL     1       3.404   4.922  19.890  0.00  0.00    +0.000 A 
ENDBRANCH   9  11
ENDBRANCH   6   7
BRANCH   1  17
ATOM     17  C   UNL     1       5.225   4.212  13.956  0.00  0.00    +0.000 C 
BRANCH  17  18
ATOM     18  C   UNL     1       6.128   3.590  12.892  0.00  0.00    +0.000 C 
BRANCH  18  20
ATOM     19  C   UNL     1       4.339   3.155  11.196  0.00  0.00    +0.000 C 
ATOM     20  C   UNL     1       5.446   2.511  12.035  0.00  0.00    +0.000 C 
ATOM     21  C   UNL     1       6.426   1.779  11.118  0.00  0.00    +0.000 C 
ENDBRANCH  18  20
ENDBRANCH  17  18
ENDBRANCH   1  17
TORSDOF 5
ENDMDL
MODEL 7
REMARK VINA RESULT:      -7.7      1.130      1.581
REMARK  Name = 
REMARK  7 active torsions:
REMARK  status: ('A' for Active; 'I' for Inactive)
REMARK    1  A    between atoms: C_1  and  C_2
REMARK    2  A    between atoms: C_2  and  C_3
REMARK    3  A    between atoms: C_2  and  C_4
REMARK    4  A    between atoms: C_4  and  C_5
REMARK    5  A    between atoms: C_5  and  N_6
REMARK    6  A    between atoms: C_11  and  C_12
REMARK    7  A    between atoms: N_14  and  C_15
REMARK                            x       y       z     vdW  Elec       q    Type
REMARK                         _______ _______ _______ _____ _____    ______ ____
ROOT
ATOM      1  N   UNL     1       6.279   4.650  15.398  0.00  0.00    +0.000 N 
ATOM      2  N   UNL     1       7.145   5.678  15.254  0.00  0.00    +0.000 NA
ATOM      3  N   UNL     1       7.680   5.925  16.360  0.00  0.00    +0.000 NA
ATOM      4  C   UNL     1       7.216   5.041  17.308  0.00  0.00    +0.000 C 
ATOM      5  O   UNL     1       7.567   4.997  18.486  0.00  0.00    +0.000 OA
ATOM      6  C   UNL     1       6.206   4.108  16.738  0.00  0.00    +0.000 C 
ENDROOT
BRANCH   6   7
ATOM      7  C   UNL     1       4.831   4.256  17.368  0.00  0.00    +0.000 C 
ATOM      8  O   UNL     1       4.153   5.270  17.179  0.00  0.00    +0.000 OA
ATOM      9  N   UNL     1       4.390   3.143  18.079  0.00  0.00    +0.000 N 
ATOM     10  H   UNL     1       5.084   2.436  18.320  0.00  0.00    +0.000 HD
BRANCH   9  11
ATOM     11  C   UNL     1       3.131   3.024  18.717  0.00  0.00    +0.000 A 
ATOM     12  C   UNL     1       2.905   3.338  20.057  0.00  0.00    +0.000 A 
ATOM     13  C   UNL     1       1.650   3.133  20.622  0.00  0.00    +0.000 A 
ATOM     14  C   UNL     1       0.641   2.631  19.821  0.00  0.00    +0.000 A 
ATOM     15  N   UNL     1       0.799   2.354  18.510  0.00  0.00    +0.000 NA
ATOM     16  C   UNL     1       2.036   2.560  17.991  0.00  0.00    +0.000 A 
ENDBRANCH   9  11
ENDBRANCH   6   7
BRANCH   1  17
ATOM     17  C   UNL     1       5.702   3.984  14.244  0.00  0.00    +0.000 C 
BRANCH  17  18
ATOM     18  C   UNL     1       6.692   3.921  13.082  0.00  0.00    +0.000 C 
BRANCH  18  20
ATOM     19  C   UNL     1       6.724   2.015  11.459  0.00  0.00    +0.000 C 
ATOM     20  C   UNL     1       6.098   3.377  11.772  0.00  0.00    +0.000 C 
ATOM     21  C   UNL     1       4.577   3.244  11.825  0.00  0.00    +0.000 C 
ENDBRANCH  18  20
ENDBRANCH  17  18
ENDBRANCH   1  17
TORSDOF 5
ENDMDL
MODEL 8
REMARK VINA RESULT:      -7.6      1.094      1.283
REMARK  Name = 
REMARK  7 active torsions:
REMARK  status: ('A' for Active; 'I' for Inactive)
REMARK    1  A    between atoms: C_1  and  C_2
REMARK    2  A    between atoms: C_2  and  C_3
REMARK    3  A    between atoms: C_2  and  C_4
REMARK    4  A    between atoms: C_4  and  C_5
REMARK    5  A    between atoms: C_5  and  N_6
REMARK    6  A    between atoms: C_11  and  C_12
REMARK    7  A    between atoms: N_14  and  C_15
REMARK                            x       y       z     vdW  Elec       q    Type
REMARK                         _______ _______ _______ _____ _____    ______ ____
ROOT
ATOM      1  N   UNL     1       6.182   5.986  16.930  0.00  0.00    +0.000 N 
ATOM      2  N   UNL     1       7.059   7.012  17.000  0.00  0.00    +0.000 NA
ATOM      3  N   UNL     1       7.771   6.877  18.022  0.00  0.00    +0.000 NA
ATOM      4  C   UNL     1       7.423   5.719  18.680  0.00  0.00    +0.000 C 
ATOM      5  O   UNL     1       7.952   5.283  19.701  0.00  0.00    +0.000 OA
ATOM      6  C   UNL     1       6.295   5.023  18.003  0.00  0.00    +0.000 C 
ENDROOT
BRANCH   6   7
ATOM      7  C   UNL     1       5.044   4.933  18.860  0.00  0.00    +0.000 C 
ATOM      8  O   UNL     1       4.517   5.950  19.319  0.00  0.00    +0.000 OA
ATOM      9  N   UNL     1       4.521   3.650  19.000  0.00  0.00    +0.000 N 
ATOM     10  H   UNL     1       5.119   2.869  18.733  0.00  0.00    +0.000 HD
BRANCH   9  11
ATOM     11  C   UNL     1       3.342   3.319  19.713  0.00  0.00    +0.000 A 
ATOM     12  C   UNL     1       2.055   3.458  19.197  0.00  0.00    +0.000 A 
ATOM     13  C   UNL     1       0.948   3.169  19.988  0.00  0.00    +0.000 A 
ATOM     14  C   UNL     1       1.159   2.727  21.281  0.00  0.00    +0.000 A 
ATOM     15  N   UNL     1       2.386   2.534  21.811  0.00  0.00    +0.000 NA
ATOM     16  C   UNL     1       3.444   2.831  21.015  0.00  0.00    +0.000 A 
ENDBRANCH   9  11
ENDBRANCH   6   7
BRANCH   1  17
ATOM     17  C   UNL     1       5.402   5.744  15.729  0.00  0.00    +0.000 C 
BRANCH  17  18
ATOM     18  C   UNL     1       5.405   4.263  15.350  0.00  0.00    +0.000 C 
BRANCH  18  20
ATOM     19  C   UNL     1       5.501   3.608  12.936  0.00  0.00    +0.000 C 
ATOM     20  C   UNL     1       6.339   3.910  14.182  0.00  0.00    +0.000 C 
ATOM     21  C   UNL     1       7.341   5.022  13.870  0.00  0.00    +0.000 C 
ENDBRANCH  18  20
ENDBRANCH  17  18
ENDBRANCH   1  17
TORSDOF 5
ENDMDL
MODEL 9
REMARK VINA RESULT:      -7.6      1.291      1.301
REMARK  Name = 
REMARK  7 active torsions:
REMARK  status: ('A' for Active; 'I' for Inactive)
REMARK    1  A    between atoms: C_1  and  C_2
REMARK    2  A    between atoms: C_2  and  C_3
REMARK    3  A    between atoms: C_2  and  C_4
REMARK    4  A    between atoms: C_4  and  C_5
REMARK    5  A    between atoms: C_5  and  N_6
REMARK    6  A    between atoms: C_11  and  C_12
REMARK    7  A    between atoms: N_14  and  C_15
REMARK                            x       y       z     vdW  Elec       q    Type
REMARK                         _______ _______ _______ _____ _____    ______ ____
ROOT
ATOM      1  N   UNL     1       6.421   4.880  16.171  0.00  0.00    +0.000 N 
ATOM      2  N   UNL     1       6.583   6.132  15.688  0.00  0.00    +0.000 NA
ATOM      3  N   UNL     1       7.057   6.863  16.589  0.00  0.00    +0.000 NA
ATOM      4  C   UNL     1       7.269   6.119  17.727  0.00  0.00    +0.000 C 
ATOM      5  O   UNL     1       7.753   6.532  18.780  0.00  0.00    +0.000 OA
ATOM      6  C   UNL     1       6.834   4.707  17.546  0.00  0.00    +0.000 C 
ENDROOT
BRANCH   6   7
ATOM      7  C   UNL     1       5.694   4.308  18.467  0.00  0.00    +0.000 C 
ATOM      8  O   UNL     1       5.903   3.631  19.478  0.00  0.00    +0.000 OA
ATOM      9  N   UNL     1       4.451   4.831  18.120  0.00  0.00    +0.000 N 
ATOM     10  H   UNL     1       4.353   5.226  17.186  0.00  0.00    +0.000 HD
BRANCH   9  11
ATOM     11  C   UNL     1       3.249   4.636  18.844  0.00  0.00    +0.000 A 
ATOM     12  C   UNL     1       2.359   3.590  18.608  0.00  0.00    +0.000 A 
ATOM     13  C   UNL     1       1.168   3.507  19.323  0.00  0.00    +0.000 A 
ATOM     14  C   UNL     1       0.905   4.473  20.278  0.00  0.00    +0.000 A 
ATOM     15  N   UNL     1       1.755   5.479  20.573  0.00  0.00    +0.000 NA
ATOM     16  C   UNL     1       2.904   5.533  19.854  0.00  0.00    +0.000 A 
ENDBRANCH   9  11
ENDBRANCH   6   7
BRANCH   1  17
ATOM     17  C   UNL     1       6.126   3.766  15.288  0.00  0.00    +0.000 C 
BRANCH  17  18
ATOM     18  C   UNL     1       5.482   4.239  13.986  0.00  0.00    +0.000 C 
BRANCH  18  20
ATOM     19  C   UNL     1       4.706   3.348  11.779  0.00  0.00    +0.000 C 
ATOM     20  C   UNL     1       5.892   3.429  12.745  0.00  0.00    +0.000 C 
ATOM     21  C   UNL     1       7.102   4.022  12.025  0.00  0.00    +0.000 C 
ENDBRANCH  18  20
ENDBRANCH  17  18
ENDBRANCH   1  17
TORSDOF 5
ENDMDL
