MODEL 1
REMARK VINA RESULT:      -8.5      0.000      0.000
REMARK  Name = 
REMARK  5 active torsions:
REMARK  status: ('A' for Active; 'I' for Inactive)
REMARK    1  A    between atoms: C_2  and  C_3
REMARK    2  A    between atoms: C_2  and  C_20
REMARK    3  A    between atoms: C_4  and  C_5
REMARK    4  A    between atoms: C_8  and  N_9
REMARK    5  A    between atoms: C_10  and  C_12
REMARK                            x       y       z     vdW  Elec       q    Type
REMARK                         _______ _______ _______ _____ _____    ______ ____
ROOT
ATOM      1  C   UNL     1       6.404   5.699  18.298  0.00  0.00    +0.000 A 
ATOM      2  C   UNL     1       7.601   5.933  18.981  0.00  0.00    +0.000 A 
ATOM      3  C   UNL     1       8.318   7.112  18.783  0.00  0.00    +0.000 A 
ATOM      4  C   UNL     1       7.872   8.083  17.886  0.00  0.00    +0.000 A 
ATOM      5  C   UNL     1       6.664   7.866  17.212  0.00  0.00    +0.000 A 
ATOM      6  C   UNL     1       5.947   6.672  17.402  0.00  0.00    +0.000 A 
ENDROOT
BRANCH   4   7
ATOM      7  N   UNL     1       8.584   9.280  17.643  0.00  0.00    +0.000 N 
ATOM      8  C   UNL     1       9.061  10.135  18.624  0.00  0.00    +0.000 C 
ATOM      9  O   UNL     1       9.049   9.917  19.832  0.00  0.00    +0.000 OA
ATOM     10  H   UNL     1       8.763   9.499  16.674  0.00  0.00    +0.000 HD
BRANCH   8  11
ATOM     11  C   UNL     1       9.631  11.438  18.177  0.00  0.00    +0.000 A 
ATOM     12  C   UNL     1       8.796  12.565  18.276  0.00  0.00    +0.000 A 
ATOM     13  C   UNL     1       9.245  13.820  17.865  0.00  0.00    +0.000 A 
ATOM     14  C   UNL     1      10.533  13.961  17.358  0.00  0.00    +0.000 A 
ATOM     15  C   UNL     1      11.375  12.851  17.273  0.00  0.00    +0.000 A 
ATOM     16  C   UNL     1      10.932  11.590  17.687  0.00  0.00    +0.000 A 
ENDBRANCH   8  11
ENDBRANCH   4   7
BRANCH   1  18
ATOM     17  C   UNL     1       4.475   4.213  17.925  0.00  0.00    +0.000 C 
ATOM     18  C   UNL     1       5.685   4.429  18.464  0.00  0.00    +0.000 C 
BRANCH  17  20
ATOM     19  O   UNL     1       3.835   1.966  17.481  0.00  0.00    +0.000 OA
ATOM     20  C   UNL     1       3.735   2.954  18.197  0.00  0.00    +0.000 C 
BRANCH  20  21
ATOM     21  C   UNL     1       2.913   2.908  19.425  0.00  0.00    +0.000 A 
ATOM     22  C   UNL     1       1.560   3.251  19.369  0.00  0.00    +0.000 A 
ATOM     23  C   UNL     1       0.800   3.218  20.536  0.00  0.00    +0.000 A 
ATOM     24  C   UNL     1       1.424   2.852  21.720  0.00  0.00    +0.000 A 
ATOM     25  N   UNL     1       2.733   2.523  21.808  0.00  0.00    +0.000 NA
ATOM     26  C   UNL     1       3.450   2.567  20.659  0.00  0.00    +0.000 A 
ENDBRANCH  20  21
ENDBRANCH  17  20
ENDBRANCH   1  18
TORSDOF 5
ENDMDL
MODEL 2
REMARK VINA RESULT:      -8.4      0.199      1.375
REMARK  Name = 
REMARK  5 active torsions:
REMARK  status: ('A' for Active; 'I' for Inactive)
REMARK    1  A    between atoms: C_2  and  C_3
REMARK    2  A    between atoms: C_2  and  C_20
REMARK    3  A    between atoms: C_4  and  C_5
REMARK    4  A    between atoms: C_8  and  N_9
REMARK    5  A    between atoms: C_10  and  C_12
REMARK                            x       y       z     vdW  Elec       q    Type
REMARK                         _______ _______ _______ _____ _____    ______ ____
ROOT
ATOM      1  C   UNL     1       6.330   5.640  18.138  0.00  0.00    +0.000 A 
ATOM      2  C   UNL     1       5.831   6.569  17.221  0.00  0.00    +0.000 A 
ATOM      3  C   UNL     1       6.494   7.774  16.993  0.00  0.00    +0.000 A 
ATOM      4  C   UNL     1       7.661   8.095  17.685  0.00  0.00    +0.000 A 
ATOM      5  C   UNL     1       8.179   7.162  18.592  0.00  0.00    +0.000 A 
ATOM      6  C   UNL     1       7.505   5.953  18.831  0.00  0.00    +0.000 A 
ENDROOT
BRANCH   4   7
ATOM      7  N   UNL     1       8.347   9.317  17.496  0.00  0.00    +0.000 N 
ATOM      8  C   UNL     1       8.961  10.048  18.501  0.00  0.00    +0.000 C 
ATOM      9  O   UNL     1       9.108   9.685  19.665  0.00  0.00    +0.000 OA
ATOM     10  H   UNL     1       8.397   9.654  16.546  0.00  0.00    +0.000 HD
BRANCH   8  11
ATOM     11  C   UNL     1       9.480  11.400  18.143  0.00  0.00    +0.000 A 
ATOM     12  C   UNL     1      10.836  11.486  17.783  0.00  0.00    +0.000 A 
ATOM     13  C   UNL     1      11.406  12.714  17.448  0.00  0.00    +0.000 A 
ATOM     14  C   UNL     1      10.624  13.865  17.466  0.00  0.00    +0.000 A 
ATOM     15  C   UNL     1       9.273  13.787  17.805  0.00  0.00    +0.000 A 
ATOM     16  C   UNL     1       8.694  12.557  18.138  0.00  0.00    +0.000 A 
ENDBRANCH   8  11
ENDBRANCH   4   7
BRANCH   1  18
ATOM     17  C   UNL     1       4.464   4.072  17.775  0.00  0.00    +0.000 C 
ATOM     18  C   UNL     1       5.595   4.399  18.420  0.00  0.00    +0.000 C 
BRANCH  17  20
ATOM     19  O   UNL     1       3.738   1.823  17.504  0.00  0.00    +0.000 OA
ATOM     20  C   UNL     1       3.696   2.859  18.156  0.00  0.00    +0.000 C 
BRANCH  20  21
ATOM     21  C   UNL     1       2.917   2.922  19.411  0.00  0.00    +0.000 A 
ATOM     22  C   UNL     1       1.612   3.417  19.396  0.00  0.00    +0.000 A 
ATOM     23  C   UNL     1       0.895   3.485  20.589  0.00  0.00    +0.000 A 
ATOM     24  C   UNL     1       1.514   3.062  21.756  0.00  0.00    +0.000 A 
ATOM     25  N   UNL     1       2.779   2.586  21.805  0.00  0.00    +0.000 NA
ATOM     26  C   UNL     1       3.455   2.534  20.632  0.00  0.00    +0.000 A 
ENDBRANCH  20  21
ENDBRANCH  17  20
ENDBRANCH   1  18
TORSDOF 5
ENDMDL
MODEL 3
REMARK VINA RESULT:      -8.4      7.058      8.983
REMARK  Name = 
REMARK  5 active torsions:
REMARK  status: ('A' for Active; 'I' for Inactive)
REMARK    1  A    between atoms: C_2  and  C_3
REMARK    2  A    between atoms: C_2  and  C_20
REMARK    3  A    between atoms: C_4  and  C_5
REMARK    4  A    between atoms: C_8  and  N_9
REMARK    5  A    between atoms: C_10  and  C_12
REMARK                            x       y       z     vdW  Elec       q    Type
REMARK                         _______ _______ _______ _____ _____    ______ ____
ROOT
ATOM      1  C   UNL     1       1.797   8.362  19.078  0.00  0.00    +0.000 A 
ATOM      2  C   UNL     1       1.581   8.134  20.440  0.00  0.00    +0.000 A 
ATOM      3  C   UNL     1       0.713   8.944  21.171  0.00  0.00    +0.000 A 
ATOM      4  C   UNL     1       0.050  10.014  20.570  0.00  0.00    +0.000 A 
ATOM      5  C   UNL     1       0.246  10.238  19.201  0.00  0.00    +0.000 A 
ATOM      6  C   UNL     1       1.129   9.429  18.467  0.00  0.00    +0.000 A 
ENDROOT
BRANCH   4   7
ATOM      7  N   UNL     1      -0.819  10.871  21.284  0.00  0.00    +0.000 N 
ATOM      8  C   UNL     1      -0.435  12.036  21.929  0.00  0.00    +0.000 C 
ATOM      9  O   UNL     1       0.675  12.556  21.869  0.00  0.00    +0.000 OA
ATOM     10  H   UNL     1      -1.792  10.603  21.296  0.00  0.00    +0.000 HD
BRANCH   8  11
ATOM     11  C   UNL     1      -1.454  12.713  22.781  0.00  0.00    +0.000 A 
ATOM     12  C   UNL     1      -2.581  11.956  23.148  0.00  0.00    +0.000 A 
ATOM     13  C   UNL     1      -3.590  12.518  23.930  0.00  0.00    +0.000 A 
ATOM     14  C   UNL     1      -3.479  13.837  24.357  0.00  0.00    +0.000 A 
ATOM     15  C   UNL     1      -2.356  14.590  24.013  0.00  0.00    +0.000 A 
ATOM     16  C   UNL     1      -1.338  14.032  23.231  0.00  0.00    +0.000 A 
ENDBRANCH   8  11
ENDBRANCH   4   7
BRANCH   1  18
ATOM     17  C   UNL     1       2.838   6.212  18.475  0.00  0.00    +0.000 C 
ATOM     18  C   UNL     1       2.759   7.543  18.327  0.00  0.00    +0.000 C 
BRANCH  17  20
ATOM     19  O   UNL     1       3.629   4.637  16.877  0.00  0.00    +0.000 OA
ATOM     20  C   UNL     1       3.889   5.431  17.773  0.00  0.00    +0.000 C 
BRANCH  20  21
ATOM     21  C   UNL     1       5.293   5.699  18.151  0.00  0.00    +0.000 A 
ATOM     22  C   UNL     1       6.106   6.461  17.311  0.00  0.00    +0.000 A 
ATOM     23  C   UNL     1       7.431   6.693  17.672  0.00  0.00    +0.000 A 
ATOM     24  C   UNL     1       7.898   6.145  18.858  0.00  0.00    +0.000 A 
ATOM     25  N   UNL     1       7.138   5.395  19.689  0.00  0.00    +0.000 NA
ATOM     26  C   UNL     1       5.854   5.182  19.312  0.00  0.00    +0.000 A 
ENDBRANCH  20  21
ENDBRANCH  17  20
ENDBRANCH   1  18
TORSDOF 5
ENDMDL
MODEL 4
REMARK VINA RESULT:      -8.3      6.352      8.516
REMARK  Name = 
REMARK  5 active torsions:
REMARK  status: ('A' for Active; 'I' for Inactive)
REMARK    1  A    between atoms: C_2  and  C_3
REMARK    2  A    between atoms: C_2  and  C_20
REMARK    3  A    between atoms: C_4  and  C_5
REMARK    4  A    between atoms: C_8  and  N_9
REMARK    5  A    between atoms: C_10  and  C_12
REMARK                            x       y       z     vdW  Elec       q    Type
REMARK                         _______ _______ _______ _____ _____    ______ ____
ROOT
ATOM      1  C   UNL     1       2.838   7.458  18.619  0.00  0.00    +0.000 A 
ATOM      2  C   UNL     1       2.274   7.299  19.889  0.00  0.00    +0.000 A 
ATOM      3  C   UNL     1       1.279   8.163  20.342  0.00  0.00    +0.000 A 
ATOM      4  C   UNL     1       0.829   9.221  19.551  0.00  0.00    +0.000 A 
ATOM      5  C   UNL     1       1.374   9.376  18.270  0.00  0.00    +0.000 A 
ATOM      6  C   UNL     1       2.386   8.512  17.818  0.00  0.00    +0.000 A 
ENDROOT
BRANCH   4   7
ATOM      7  N   UNL     1      -0.162  10.130  19.987  0.00  0.00    +0.000 N 
ATOM      8  C   UNL     1       0.024  11.106  20.953  0.00  0.00    +0.000 C 
ATOM      9  O   UNL     1       1.095  11.405  21.474  0.00  0.00    +0.000 OA
ATOM     10  H   UNL     1      -1.060  10.056  19.532  0.00  0.00    +0.000 HD
BRANCH   8  11
ATOM     11  C   UNL     1      -1.183  11.853  21.411  0.00  0.00    +0.000 A 
ATOM     12  C   UNL     1      -1.581  11.663  22.746  0.00  0.00    +0.000 A 
ATOM     13  C   UNL     1      -2.707  12.312  23.251  0.00  0.00    +0.000 A 
ATOM     14  C   UNL     1      -3.442  13.160  22.428  0.00  0.00    +0.000 A 
ATOM     15  C   UNL     1      -3.045  13.368  21.106  0.00  0.00    +0.000 A 
ATOM     16  C   UNL     1      -1.913  12.723  20.595  0.00  0.00    +0.000 A 
ENDBRANCH   8  11
ENDBRANCH   4   7
BRANCH   1  18
ATOM     17  C   UNL     1       4.225   5.430  18.790  0.00  0.00    +0.000 C 
ATOM     18  C   UNL     1       3.929   6.582  18.171  0.00  0.00    +0.000 C 
BRANCH  17  20
ATOM     19  O   UNL     1       5.957   3.834  19.124  0.00  0.00    +0.000 OA
ATOM     20  C   UNL     1       5.398   4.620  18.370  0.00  0.00    +0.000 C 
BRANCH  20  21
ATOM     21  C   UNL     1       5.833   4.746  16.963  0.00  0.00    +0.000 A 
ATOM     22  C   UNL     1       5.058   4.192  15.943  0.00  0.00    +0.000 A 
ATOM     23  C   UNL     1       5.488   4.304  14.622  0.00  0.00    +0.000 A 
ATOM     24  C   UNL     1       6.685   4.959  14.371  0.00  0.00    +0.000 A 
ATOM     25  N   UNL     1       7.462   5.498  15.338  0.00  0.00    +0.000 NA
ATOM     26  C   UNL     1       7.023   5.372  16.613  0.00  0.00    +0.000 A 
ENDBRANCH  20  21
ENDBRANCH  17  20
ENDBRANCH   1  18
TORSDOF 5
ENDMDL
MODEL 5
REMARK VINA RESULT:      -8.3      6.514      8.312
REMARK  Name = 
REMARK  5 active torsions:
REMARK  status: ('A' for Active; 'I' for Inactive)
REMARK    1  A    between atoms: C_2  and  C_3
REMARK    2  A    between atoms: C_2  and  C_20
REMARK    3  A    between atoms: C_4  and  C_5
REMARK    4  A    between atoms: C_8  and  N_9
REMARK    5  A    between atoms: C_10  and  C_12
REMARK                            x       y       z     vdW  Elec       q    Type
REMARK                         _______ _______ _______ _____ _____    ______ ____
ROOT
ATOM      1  C   UNL     1       2.609   7.311  18.759  0.00  0.00    +0.000 A 
ATOM      2  C   UNL     1       2.246   8.304  17.845  0.00  0.00    +0.000 A 
ATOM      3  C   UNL     1       1.394   9.343  18.219  0.00  0.00    +0.000 A 
ATOM      4  C   UNL     1       0.867   9.411  19.508  0.00  0.00    +0.000 A 
ATOM      5  C   UNL     1       1.242   8.432  20.437  0.00  0.00    +0.000 A 
ATOM      6  C   UNL     1       2.090   7.379  20.057  0.00  0.00    +0.000 A 
ENDROOT
BRANCH   4   7
ATOM      7  N   UNL     1      -0.017  10.437  19.916  0.00  0.00    +0.000 N 
ATOM      8  C   UNL     1       0.296  11.447  20.812  0.00  0.00    +0.000 C 
ATOM      9  O   UNL     1       1.410  11.673  21.278  0.00  0.00    +0.000 OA
ATOM     10  H   UNL     1      -0.934  10.422  19.496  0.00  0.00    +0.000 HD
BRANCH   8  11
ATOM     11  C   UNL     1      -0.816  12.333  21.259  0.00  0.00    +0.000 A 
ATOM     12  C   UNL     1      -1.057  12.404  22.642  0.00  0.00    +0.000 A 
ATOM     13  C   UNL     1      -2.089  13.197  23.144  0.00  0.00    +0.000 A 
ATOM     14  C   UNL     1      -2.884  13.930  22.269  0.00  0.00    +0.000 A 
ATOM     15  C   UNL     1      -2.641  13.881  20.896  0.00  0.00    +0.000 A 
ATOM     16  C   UNL     1      -1.606  13.089  20.386  0.00  0.00    +0.000 A 
ENDBRANCH   8  11
ENDBRANCH   4   7
BRANCH   1  18
ATOM     17  C   UNL     1       4.328   5.596  19.176  0.00  0.00    +0.000 C 
ATOM     18  C   UNL     1       3.458   6.186  18.342  0.00  0.00    +0.000 C 
BRANCH  17  20
ATOM     19  O   UNL     1       5.486   3.526  19.352  0.00  0.00    +0.000 OA
ATOM     20  C   UNL     1       5.240   4.528  18.692  0.00  0.00    +0.000 C 
BRANCH  20  21
ATOM     21  C   UNL     1       5.796   4.683  17.331  0.00  0.00    +0.000 A 
ATOM     22  C   UNL     1       5.283   3.922  16.279  0.00  0.00    +0.000 A 
ATOM     23  C   UNL     1       5.828   4.067  15.005  0.00  0.00    +0.000 A 
ATOM     24  C   UNL     1       6.873   4.962  14.831  0.00  0.00    +0.000 A 
ATOM     25  N   UNL     1       7.398   5.706  15.831  0.00  0.00    +0.000 NA
ATOM     26  C   UNL     1       6.852   5.544  17.061  0.00  0.00    +0.000 A 
ENDBRANCH  20  21
ENDBRANCH  17  20
ENDBRANCH   1  18
TORSDOF 5
ENDMDL
MODEL 6
REMARK VINA RESULT:      -8.1      6.965      9.002
REMARK  Name = 
REMARK  5 active torsions:
REMARK  status: ('A' for Active; 'I' for Inactive)
REMARK    1  A    between atoms: C_2  and  C_3
REMARK    2  A    between atoms: C_2  and  C_20
REMARK    3  A    between atoms: C_4  and  C_5
REMARK    4  A    between atoms: C_8  and  N_9
REMARK    5  A    between atoms: C_10  and  C_12
REMARK                            x       y       z     vdW  Elec       q    Type
REMARK                         _______ _______ _______ _____ _____    ______ ____
ROOT
ATOM      1  C   UNL     1       1.844   8.289  19.100  0.00  0.00    +0.000 A 
ATOM      2  C   UNL     1       1.605   8.027  20.453  0.00  0.00    +0.000 A 
ATOM      3  C   UNL     1       0.749   8.837  21.197  0.00  0.00    +0.000 A 
ATOM      4  C   UNL     1       0.120   9.940  20.620  0.00  0.00    +0.000 A 
ATOM      5  C   UNL     1       0.338  10.199  19.261  0.00  0.00    +0.000 A 
ATOM      6  C   UNL     1       1.210   9.390  18.513  0.00  0.00    +0.000 A 
ENDROOT
BRANCH   4   7
ATOM      7  N   UNL     1      -0.737  10.796  21.349  0.00  0.00    +0.000 N 
ATOM      8  C   UNL     1      -0.368  12.017  21.892  0.00  0.00    +0.000 C 
ATOM      9  O   UNL     1       0.705  12.586  21.714  0.00  0.00    +0.000 OA
ATOM     10  H   UNL     1      -1.691  10.483  21.453  0.00  0.00    +0.000 HD
BRANCH   8  11
ATOM     11  C   UNL     1      -1.355  12.696  22.780  0.00  0.00    +0.000 A 
ATOM     12  C   UNL     1      -2.546  12.002  23.057  0.00  0.00    +0.000 A 
ATOM     13  C   UNL     1      -3.529  12.571  23.865  0.00  0.00    +0.000 A 
ATOM     14  C   UNL     1      -3.328  13.835  24.410  0.00  0.00    +0.000 A 
ATOM     15  C   UNL     1      -2.141  14.525  24.156  0.00  0.00    +0.000 A 
ATOM     16  C   UNL     1      -1.150  13.958  23.348  0.00  0.00    +0.000 A 
ENDBRANCH   8  11
ENDBRANCH   4   7
BRANCH   1  18
ATOM     17  C   UNL     1       2.812   6.130  18.414  0.00  0.00    +0.000 C 
ATOM     18  C   UNL     1       2.795   7.470  18.337  0.00  0.00    +0.000 C 
BRANCH  17  20
ATOM     19  O   UNL     1       3.576   4.391  16.982  0.00  0.00    +0.000 OA
ATOM     20  C   UNL     1       3.852   5.341  17.705  0.00  0.00    +0.000 C 
BRANCH  20  21
ATOM     21  C   UNL     1       5.253   5.791  17.848  0.00  0.00    +0.000 A 
ATOM     22  C   UNL     1       6.013   5.364  18.938  0.00  0.00    +0.000 A 
ATOM     23  C   UNL     1       7.327   5.808  19.068  0.00  0.00    +0.000 A 
ATOM     24  C   UNL     1       7.830   6.671  18.106  0.00  0.00    +0.000 A 
ATOM     25  N   UNL     1       7.117   7.110  17.044  0.00  0.00    +0.000 NA
ATOM     26  C   UNL     1       5.841   6.666  16.944  0.00  0.00    +0.000 A 
ENDBRANCH  20  21
ENDBRANCH  17  20
ENDBRANCH   1  18
TORSDOF 5
ENDMDL
MODEL 7
REMARK VINA RESULT:      -8.1      6.421      8.353
REMARK  Name = 
REMARK  5 active torsions:
REMARK  status: ('A' for Active; 'I' for Inactive)
REMARK    1  A    between atoms: C_2  and  C_3
REMARK    2  A    between atoms: C_2  and  C_20
REMARK    3  A    between atoms: C_4  and  C_5
REMARK    4  A    between atoms: C_8  and  N_9
REMARK    5  A    between atoms: C_10  and  C_12
REMARK                            x       y       z     vdW  Elec       q    Type
REMARK                         _______ _______ _______ _____ _____    ______ ____
ROOT
ATOM      1  C   UNL     1       2.679   7.322  18.762  0.00  0.00    +0.000 A 
ATOM      2  C   UNL     1       2.272   8.342  17.897  0.00  0.00    +0.000 A 
ATOM      3  C   UNL     1       1.375   9.322  18.320  0.00  0.00    +0.000 A 
ATOM      4  C   UNL     1       0.846   9.303  19.610  0.00  0.00    +0.000 A 
ATOM      5  C   UNL     1       1.263   8.297  20.490  0.00  0.00    +0.000 A 
ATOM      6  C   UNL     1       2.158   7.302  20.060  0.00  0.00    +0.000 A 
ENDROOT
BRANCH   4   7
ATOM      7  N   UNL     1      -0.083  10.267  20.067  0.00  0.00    +0.000 N 
ATOM      8  C   UNL     1       0.188  11.250  21.005  0.00  0.00    +0.000 C 
ATOM      9  O   UNL     1       1.292  11.507  21.477  0.00  0.00    +0.000 OA
ATOM     10  H   UNL     1      -1.001  10.228  19.650  0.00  0.00    +0.000 HD
BRANCH   8  11
ATOM     11  C   UNL     1      -0.963  12.063  21.495  0.00  0.00    +0.000 A 
ATOM     12  C   UNL     1      -1.915  12.458  20.539  0.00  0.00    +0.000 A 
ATOM     13  C   UNL     1      -3.014  13.232  20.909  0.00  0.00    +0.000 A 
ATOM     14  C   UNL     1      -3.174  13.614  22.238  0.00  0.00    +0.000 A 
ATOM     15  C   UNL     1      -2.243  13.211  23.197  0.00  0.00    +0.000 A 
ATOM     16  C   UNL     1      -1.140  12.431  22.832  0.00  0.00    +0.000 A 
ENDBRANCH   8  11
ENDBRANCH   4   7
BRANCH   1  18
ATOM     17  C   UNL     1       3.192   4.974  18.219  0.00  0.00    +0.000 C 
ATOM     18  C   UNL     1       3.577   6.258  18.292  0.00  0.00    +0.000 C 
BRANCH  17  20
ATOM     19  O   UNL     1       4.074   2.766  18.259  0.00  0.00    +0.000 OA
ATOM     20  C   UNL     1       4.156   3.912  17.834  0.00  0.00    +0.000 C 
BRANCH  20  21
ATOM     21  C   UNL     1       5.198   4.272  16.850  0.00  0.00    +0.000 A 
ATOM     22  C   UNL     1       4.874   4.356  15.494  0.00  0.00    +0.000 A 
ATOM     23  C   UNL     1       5.869   4.681  14.575  0.00  0.00    +0.000 A 
ATOM     24  C   UNL     1       7.155   4.903  15.045  0.00  0.00    +0.000 A 
ATOM     25  N   UNL     1       7.502   4.820  16.350  0.00  0.00    +0.000 NA
ATOM     26  C   UNL     1       6.517   4.498  17.222  0.00  0.00    +0.000 A 
ENDBRANCH  20  21
ENDBRANCH  17  20
ENDBRANCH   1  18
TORSDOF 5
ENDMDL
MODEL 8
REMARK VINA RESULT:      -8.1      7.102      9.190
REMARK  Name = 
REMARK  5 active torsions:
REMARK  status: ('A' for Active; 'I' for Inactive)
REMARK    1  A    between atoms: C_2  and  C_3
REMARK    2  A    between atoms: C_2  and  C_20
REMARK    3  A    between atoms: C_4  and  C_5
REMARK    4  A    between atoms: C_8  and  N_9
REMARK    5  A    between atoms: C_10  and  C_12
REMARK                            x       y       z     vdW  Elec       q    Type
REMARK                         _______ _______ _______ _____ _____    ______ ____
ROOT
ATOM      1  C   UNL     1       1.753   8.478  19.120  0.00  0.00    +0.000 A 
ATOM      2  C   UNL     1       1.069   9.529  18.503  0.00  0.00    +0.000 A 
ATOM      3  C   UNL     1       0.203  10.344  19.231  0.00  0.00    +0.000 A 
ATOM      4  C   UNL     1      -0.019  10.123  20.590  0.00  0.00    +0.000 A 
ATOM      5  C   UNL     1       0.677   9.085  21.221  0.00  0.00    +0.000 A 
ATOM      6  C   UNL     1       1.541   8.256  20.485  0.00  0.00    +0.000 A 
ENDROOT
BRANCH   4   7
ATOM      7  N   UNL     1      -0.907  10.914  21.355  0.00  0.00    +0.000 N 
ATOM      8  C   UNL     1      -0.566  12.089  22.006  0.00  0.00    +0.000 C 
ATOM      9  O   UNL     1       0.509  12.675  21.911  0.00  0.00    +0.000 OA
ATOM     10  H   UNL     1      -1.861  10.589  21.400  0.00  0.00    +0.000 HD
BRANCH   8  11
ATOM     11  C   UNL     1      -1.587  12.691  22.910  0.00  0.00    +0.000 A 
ATOM     12  C   UNL     1      -1.302  13.964  23.435  0.00  0.00    +0.000 A 
ATOM     13  C   UNL     1      -2.196  14.592  24.301  0.00  0.00    +0.000 A 
ATOM     14  C   UNL     1      -3.386  13.957  24.645  0.00  0.00    +0.000 A 
ATOM     15  C   UNL     1      -3.686  12.702  24.115  0.00  0.00    +0.000 A 
ATOM     16  C   UNL     1      -2.794  12.067  23.243  0.00  0.00    +0.000 A 
ENDBRANCH   8  11
ENDBRANCH   4   7
BRANCH   1  18
ATOM     17  C   UNL     1       2.808   6.299  18.666  0.00  0.00    +0.000 C 
ATOM     18  C   UNL     1       2.617   7.585  18.336  0.00  0.00    +0.000 C 
BRANCH  17  20
ATOM     19  O   UNL     1       3.404   4.511  17.215  0.00  0.00    +0.000 OA
ATOM     20  C   UNL     1       3.766   5.454  17.907  0.00  0.00    +0.000 C 
BRANCH  20  21
ATOM     21  C   UNL     1       5.192   5.838  17.961  0.00  0.00    +0.000 A 
ATOM     22  C   UNL     1       5.990   5.405  19.021  0.00  0.00    +0.000 A 
ATOM     23  C   UNL     1       7.329   5.788  19.068  0.00  0.00    +0.000 A 
ATOM     24  C   UNL     1       7.819   6.599  18.054  0.00  0.00    +0.000 A 
ATOM     25  N   UNL     1       7.070   7.041  17.019  0.00  0.00    +0.000 NA
ATOM     26  C   UNL     1       5.771   6.658  17.000  0.00  0.00    +0.000 A 
ENDBRANCH  20  21
ENDBRANCH  17  20
ENDBRANCH   1  18
TORSDOF 5
ENDMDL
MODEL 9
REMARK VINA RESULT:      -8.1      1.190      1.957
REMARK  Name = 
REMARK  5 active torsions:
REMARK  status: ('A' for Active; 'I' for Inactive)
REMARK    1  A    between atoms: C_2  and  C_3
REMARK    2  A    between atoms: C_2  and  C_20
REMARK    3  A    between atoms: C_4  and  C_5
REMARK    4  A    between atoms: C_8  and  N_9
REMARK    5  A    between atoms: C_10  and  C_12
REMARK                            x       y       z     vdW  Elec       q    Type
REMARK                         _______ _______ _______ _____ _____    ______ ____
ROOT
ATOM      1  C   UNL     1       6.303   5.771  18.122  0.00  0.00    +0.000 A 
ATOM      2  C   UNL     1       5.815   6.755  17.258  0.00  0.00    +0.000 A 
ATOM      3  C   UNL     1       6.526   7.935  17.044  0.00  0.00    +0.000 A 
ATOM      4  C   UNL     1       7.735   8.174  17.698  0.00  0.00    +0.000 A 
ATOM      5  C   UNL     1       8.242   7.185  18.550  0.00  0.00    +0.000 A 
ATOM      6  C   UNL     1       7.519   6.002  18.775  0.00  0.00    +0.000 A 
ENDROOT
BRANCH   4   7
ATOM      7  N   UNL     1       8.472   9.368  17.522  0.00  0.00    +0.000 N 
ATOM      8  C   UNL     1       9.003  10.133  18.549  0.00  0.00    +0.000 C 
ATOM      9  O   UNL     1       9.020   9.826  19.737  0.00  0.00    +0.000 OA
ATOM     10  H   UNL     1       8.628   9.655  16.567  0.00  0.00    +0.000 HD
BRANCH   8  11
ATOM     11  C   UNL     1       9.595  11.452  18.182  0.00  0.00    +0.000 A 
ATOM     12  C   UNL     1      10.980  11.483  17.941  0.00  0.00    +0.000 A 
ATOM     13  C   UNL     1      11.616  12.678  17.608  0.00  0.00    +0.000 A 
ATOM     14  C   UNL     1      10.874  13.851  17.507  0.00  0.00    +0.000 A 
ATOM     15  C   UNL     1       9.497  13.827  17.727  0.00  0.00    +0.000 A 
ATOM     16  C   UNL     1       8.851  12.630  18.059  0.00  0.00    +0.000 A 
ENDBRANCH   8  11
ENDBRANCH   4   7
BRANCH   1  18
ATOM     17  C   UNL     1       5.215   4.161  19.637  0.00  0.00    +0.000 C 
ATOM     18  C   UNL     1       5.520   4.557  18.391  0.00  0.00    +0.000 C 
BRANCH  17  20
ATOM     19  O   UNL     1       5.066   1.899  20.356  0.00  0.00    +0.000 OA
ATOM     20  C   UNL     1       4.508   2.876  19.874  0.00  0.00    +0.000 C 
BRANCH  20  21
ATOM     21  C   UNL     1       3.062   2.837  19.568  0.00  0.00    +0.000 A 
ATOM     22  C   UNL     1       2.147   3.403  20.457  0.00  0.00    +0.000 A 
ATOM     23  C   UNL     1       0.786   3.345  20.165  0.00  0.00    +0.000 A 
ATOM     24  C   UNL     1       0.390   2.714  18.994  0.00  0.00    +0.000 A 
ATOM     25  N   UNL     1       1.250   2.149  18.117  0.00  0.00    +0.000 NA
ATOM     26  C   UNL     1       2.567   2.216  18.428  0.00  0.00    +0.000 A 
ENDBRANCH  20  21
ENDBRANCH  17  20
ENDBRANCH   1  18
TORSDOF 5
ENDMDL
