MODEL 1
REMARK VINA RESULT:      -8.0      0.000      0.000
REMARK  Name = 
REMARK  5 active torsions:
REMARK  status: ('A' for Active; 'I' for Inactive)
REMARK    1  A    between atoms: C_1  and  C_2
REMARK    2  A    between atoms: C_2  and  O_3
REMARK    3  A    between atoms: O_3  and  N_4
REMARK    4  A    between atoms: C_5  and  C_7
REMARK    5  A    between atoms: N_9  and  C_10
REMARK                            x       y       z     vdW  Elec       q    Type
REMARK                         _______ _______ _______ _____ _____    ______ ____
ROOT
ATOM      1  C   UNL     1       6.017   4.344  16.341  0.00  0.00    +0.000 C 
ATOM      2  O   UNL     1       6.712   4.349  17.349  0.00  0.00    +0.000 OA
ATOM      3  N   UNL     1       4.651   4.178  16.246  0.00  0.00    +0.000 N 
ATOM      4  H   UNL     1       4.304   3.952  15.312  0.00  0.00    +0.000 HD
ENDROOT
BRANCH   3   5
ATOM      5  C   UNL     1       3.761   4.061  17.338  0.00  0.00    +0.000 A 
ATOM      6  C   UNL     1       3.300   2.842  17.858  0.00  0.00    +0.000 A 
ATOM      7  F   UNL     1       3.809   1.673  17.451  0.00  0.00    +0.000 F 
ATOM      8  C   UNL     1       2.365   2.816  18.890  0.00  0.00    +0.000 A 
ATOM      9  F   UNL     1       1.928   1.639  19.360  0.00  0.00    +0.000 F 
ATOM     10  C   UNL     1       1.894   3.998  19.438  0.00  0.00    +0.000 A 
ATOM     11  F   UNL     1       0.984   3.966  20.419  0.00  0.00    +0.000 F 
ATOM     12  C   UNL     1       2.382   5.211  18.977  0.00  0.00    +0.000 A 
ATOM     13  F   UNL     1       1.948   6.357  19.520  0.00  0.00    +0.000 F 
ATOM     14  C   UNL     1       3.315   5.241  17.944  0.00  0.00    +0.000 A 
ATOM     15  F   UNL     1       3.771   6.424  17.500  0.00  0.00    +0.000 F 
ENDBRANCH   3   5
BRANCH   1  17
ATOM     16  N   UNL     1       6.179   3.597  14.072  0.00  0.00    +0.000 N 
ATOM     17  C   UNL     1       6.720   4.463  14.986  0.00  0.00    +0.000 C 
ATOM     18  O   UNL     1       7.640   5.255  14.845  0.00  0.00    +0.000 OA
ATOM     19  H   UNL     1       5.253   3.213  14.255  0.00  0.00    +0.000 HD
BRANCH  16  20
ATOM     20  O   UNL     1       6.564   3.746  12.726  0.00  0.00    +0.000 OA
BRANCH  20  22
ATOM     21  C   UNL     1       4.492   3.293  11.614  0.00  0.00    +0.000 C 
ATOM     22  C   UNL     1       5.860   2.757  11.972  0.00  0.00    +0.000 C 
ENDBRANCH  20  22
ENDBRANCH  16  20
ENDBRANCH   1  17
TORSDOF 4
ENDMDL
MODEL 2
REMARK VINA RESULT:      -7.9      1.627      2.986
REMARK  Name = 
REMARK  5 active torsions:
REMARK  status: ('A' for Active; 'I' for Inactive)
REMARK    1  A    between atoms: C_1  and  C_2
REMARK    2  A    between atoms: C_2  and  O_3
REMARK    3  A    between atoms: O_3  and  N_4
REMARK    4  A    between atoms: C_5  and  C_7
REMARK    5  A    between atoms: N_9  and  C_10
REMARK                            x       y       z     vdW  Elec       q    Type
REMARK                         _______ _______ _______ _____ _____    ______ ____
ROOT
ATOM      1  C   UNL     1       6.180   4.527  18.230  0.00  0.00    +0.000 C 
ATOM      2  O   UNL     1       6.541   4.740  19.380  0.00  0.00    +0.000 OA
ATOM      3  N   UNL     1       4.931   4.148  17.782  0.00  0.00    +0.000 N 
ATOM      4  H   UNL     1       4.904   3.777  16.831  0.00  0.00    +0.000 HD
ENDROOT
BRANCH   3   5
ATOM      5  C   UNL     1       3.777   4.013  18.588  0.00  0.00    +0.000 A 
ATOM      6  C   UNL     1       3.233   5.040  19.372  0.00  0.00    +0.000 A 
ATOM      7  F   UNL     1       3.683   6.299  19.284  0.00  0.00    +0.000 F 
ATOM      8  C   UNL     1       2.135   4.802  20.196  0.00  0.00    +0.000 A 
ATOM      9  F   UNL     1       1.641   5.797  20.947  0.00  0.00    +0.000 F 
ATOM     10  C   UNL     1       1.547   3.548  20.234  0.00  0.00    +0.000 A 
ATOM     11  F   UNL     1       0.502   3.322  21.039  0.00  0.00    +0.000 F 
ATOM     12  C   UNL     1       2.036   2.536  19.422  0.00  0.00    +0.000 A 
ATOM     13  F   UNL     1       1.455   1.328  19.436  0.00  0.00    +0.000 F 
ATOM     14  C   UNL     1       3.134   2.770  18.599  0.00  0.00    +0.000 A 
ATOM     15  F   UNL     1       3.604   1.777  17.826  0.00  0.00    +0.000 F 
ENDBRANCH   3   5
BRANCH   1  17
ATOM     16  N   UNL     1       6.706   5.147  15.977  0.00  0.00    +0.000 N 
ATOM     17  C   UNL     1       7.234   4.609  17.123  0.00  0.00    +0.000 C 
ATOM     18  O   UNL     1       8.370   4.212  17.333  0.00  0.00    +0.000 OA
ATOM     19  H   UNL     1       5.840   5.679  16.045  0.00  0.00    +0.000 HD
BRANCH  16  20
ATOM     20  O   UNL     1       7.601   5.495  14.949  0.00  0.00    +0.000 OA
BRANCH  20  22
ATOM     21  C   UNL     1       5.838   4.164  14.023  0.00  0.00    +0.000 C 
ATOM     22  C   UNL     1       7.193   4.790  13.775  0.00  0.00    +0.000 C 
ENDBRANCH  20  22
ENDBRANCH  16  20
ENDBRANCH   1  17
TORSDOF 4
ENDMDL
MODEL 3
REMARK VINA RESULT:      -7.8      1.552      1.791
REMARK  Name = 
REMARK  5 active torsions:
REMARK  status: ('A' for Active; 'I' for Inactive)
REMARK    1  A    between atoms: C_1  and  C_2
REMARK    2  A    between atoms: C_2  and  O_3
REMARK    3  A    between atoms: O_3  and  N_4
REMARK    4  A    between atoms: C_5  and  C_7
REMARK    5  A    between atoms: N_9  and  C_10
REMARK                            x       y       z     vdW  Elec       q    Type
REMARK                         _______ _______ _______ _____ _____    ______ ____
ROOT
ATOM      1  C   UNL     1       5.529   4.773  16.756  0.00  0.00    +0.000 C 
ATOM      2  O   UNL     1       4.710   5.587  16.351  0.00  0.00    +0.000 OA
ATOM      3  N   UNL     1       5.400   3.875  17.796  0.00  0.00    +0.000 N 
ATOM      4  H   UNL     1       6.275   3.471  18.132  0.00  0.00    +0.000 HD
ENDROOT
BRANCH   3   5
ATOM      5  C   UNL     1       4.228   3.668  18.559  0.00  0.00    +0.000 A 
ATOM      6  C   UNL     1       3.373   2.565  18.416  0.00  0.00    +0.000 A 
ATOM      7  F   UNL     1       3.702   1.523  17.640  0.00  0.00    +0.000 F 
ATOM      8  C   UNL     1       2.198   2.473  19.157  0.00  0.00    +0.000 A 
ATOM      9  F   UNL     1       1.390   1.416  18.992  0.00  0.00    +0.000 F 
ATOM     10  C   UNL     1       1.867   3.462  20.069  0.00  0.00    +0.000 A 
ATOM     11  F   UNL     1       0.728   3.375  20.768  0.00  0.00    +0.000 F 
ATOM     12  C   UNL     1       2.728   4.530  20.267  0.00  0.00    +0.000 A 
ATOM     13  F   UNL     1       2.425   5.476  21.166  0.00  0.00    +0.000 F 
ATOM     14  C   UNL     1       3.903   4.626  19.526  0.00  0.00    +0.000 A 
ATOM     15  F   UNL     1       4.722   5.672  19.720  0.00  0.00    +0.000 F 
ENDBRANCH   3   5
BRANCH   1  17
ATOM     16  N   UNL     1       6.841   5.172  14.792  0.00  0.00    +0.000 N 
ATOM     17  C   UNL     1       6.912   4.762  16.099  0.00  0.00    +0.000 C 
ATOM     18  O   UNL     1       7.889   4.411  16.743  0.00  0.00    +0.000 OA
ATOM     19  H   UNL     1       6.018   5.691  14.490  0.00  0.00    +0.000 HD
BRANCH  16  20
ATOM     20  O   UNL     1       8.052   5.431  14.125  0.00  0.00    +0.000 OA
BRANCH  20  22
ATOM     21  C   UNL     1       6.925   4.058  12.518  0.00  0.00    +0.000 C 
ATOM     22  C   UNL     1       7.808   5.268  12.726  0.00  0.00    +0.000 C 
ENDBRANCH  20  22
ENDBRANCH  16  20
ENDBRANCH   1  17
TORSDOF 4
ENDMDL
MODEL 4
REMARK VINA RESULT:      -7.8      0.822      2.513
REMARK  Name = 
REMARK  5 active torsions:
REMARK  status: ('A' for Active; 'I' for Inactive)
REMARK    1  A    between atoms: C_1  and  C_2
REMARK    2  A    between atoms: C_2  and  O_3
REMARK    3  A    between atoms: O_3  and  N_4
REMARK    4  A    between atoms: C_5  and  C_7
REMARK    5  A    between atoms: N_9  and  C_10
REMARK                            x       y       z     vdW  Elec       q    Type
REMARK                         _______ _______ _______ _____ _____    ______ ____
ROOT
ATOM      1  C   UNL     1       6.319   4.620  16.140  0.00  0.00    +0.000 C 
ATOM      2  O   UNL     1       7.107   4.446  17.060  0.00  0.00    +0.000 OA
ATOM      3  N   UNL     1       4.947   4.756  16.205  0.00  0.00    +0.000 N 
ATOM      4  H   UNL     1       4.456   4.636  15.317  0.00  0.00    +0.000 HD
ENDROOT
BRANCH   3   5
ATOM      5  C   UNL     1       4.183   4.804  17.393  0.00  0.00    +0.000 A 
ATOM      6  C   UNL     1       3.767   5.988  18.020  0.00  0.00    +0.000 A 
ATOM      7  F   UNL     1       3.929   7.182  17.435  0.00  0.00    +0.000 F 
ATOM      8  C   UNL     1       3.078   5.949  19.230  0.00  0.00    +0.000 A 
ATOM      9  F   UNL     1       2.703   7.094  19.818  0.00  0.00    +0.000 F 
ATOM     10  C   UNL     1       2.772   4.734  19.823  0.00  0.00    +0.000 A 
ATOM     11  F   UNL     1       2.123   4.704  20.993  0.00  0.00    +0.000 F 
ATOM     12  C   UNL     1       3.124   3.553  19.188  0.00  0.00    +0.000 A 
ATOM     13  F   UNL     1       2.808   2.375  19.744  0.00  0.00    +0.000 F 
ATOM     14  C   UNL     1       3.814   3.588  17.979  0.00  0.00    +0.000 A 
ATOM     15  F   UNL     1       4.158   2.436  17.381  0.00  0.00    +0.000 F 
ENDBRANCH   3   5
BRANCH   1  17
ATOM     16  N   UNL     1       6.260   3.663  13.945  0.00  0.00    +0.000 N 
ATOM     17  C   UNL     1       6.873   4.621  14.713  0.00  0.00    +0.000 C 
ATOM     18  O   UNL     1       7.752   5.409  14.401  0.00  0.00    +0.000 OA
ATOM     19  H   UNL     1       5.369   3.285  14.261  0.00  0.00    +0.000 HD
BRANCH  16  20
ATOM     20  O   UNL     1       6.499   3.691  12.559  0.00  0.00    +0.000 OA
BRANCH  20  22
ATOM     21  C   UNL     1       4.387   3.303  11.497  0.00  0.00    +0.000 C 
ATOM     22  C   UNL     1       5.681   2.678  11.968  0.00  0.00    +0.000 C 
ENDBRANCH  20  22
ENDBRANCH  16  20
ENDBRANCH   1  17
TORSDOF 4
ENDMDL
MODEL 5
REMARK VINA RESULT:      -7.8      1.566      1.795
REMARK  Name = 
REMARK  5 active torsions:
REMARK  status: ('A' for Active; 'I' for Inactive)
REMARK    1  A    between atoms: C_1  and  C_2
REMARK    2  A    between atoms: C_2  and  O_3
REMARK    3  A    between atoms: O_3  and  N_4
REMARK    4  A    between atoms: C_5  and  C_7
REMARK    5  A    between atoms: N_9  and  C_10
REMARK                            x       y       z     vdW  Elec       q    Type
REMARK                         _______ _______ _______ _____ _____    ______ ____
ROOT
ATOM      1  C   UNL     1       6.108   5.139  17.895  0.00  0.00    +0.000 C 
ATOM      2  O   UNL     1       6.670   4.651  18.866  0.00  0.00    +0.000 OA
ATOM      3  N   UNL     1       4.763   5.124  17.589  0.00  0.00    +0.000 N 
ATOM      4  H   UNL     1       4.534   5.358  16.621  0.00  0.00    +0.000 HD
ENDROOT
BRANCH   3   5
ATOM      5  C   UNL     1       3.741   4.596  18.410  0.00  0.00    +0.000 A 
ATOM      6  C   UNL     1       3.357   3.247  18.428  0.00  0.00    +0.000 A 
ATOM      7  F   UNL     1       4.058   2.312  17.772  0.00  0.00    +0.000 F 
ATOM      8  C   UNL     1       2.289   2.820  19.214  0.00  0.00    +0.000 A 
ATOM      9  F   UNL     1       1.931   1.528  19.203  0.00  0.00    +0.000 F 
ATOM     10  C   UNL     1       1.602   3.722  20.011  0.00  0.00    +0.000 A 
ATOM     11  F   UNL     1       0.568   3.309  20.752  0.00  0.00    +0.000 F 
ATOM     12  C   UNL     1       2.005   5.048  20.051  0.00  0.00    +0.000 A 
ATOM     13  F   UNL     1       1.361   5.919  20.839  0.00  0.00    +0.000 F 
ATOM     14  C   UNL     1       3.071   5.478  19.265  0.00  0.00    +0.000 A 
ATOM     15  F   UNL     1       3.443   6.768  19.305  0.00  0.00    +0.000 F 
ENDBRANCH   3   5
BRANCH   1  17
ATOM     16  N   UNL     1       7.224   4.933  15.786  0.00  0.00    +0.000 N 
ATOM     17  C   UNL     1       6.978   5.798  16.821  0.00  0.00    +0.000 C 
ATOM     18  O   UNL     1       7.358   6.950  16.967  0.00  0.00    +0.000 OA
ATOM     19  H   UNL     1       6.618   4.122  15.677  0.00  0.00    +0.000 HD
BRANCH  16  20
ATOM     20  O   UNL     1       7.817   5.461  14.624  0.00  0.00    +0.000 OA
BRANCH  20  22
ATOM     21  C   UNL     1       6.066   3.955  13.988  0.00  0.00    +0.000 C 
ATOM     22  C   UNL     1       7.240   4.780  13.508  0.00  0.00    +0.000 C 
ENDBRANCH  20  22
ENDBRANCH  16  20
ENDBRANCH   1  17
TORSDOF 4
ENDMDL
MODEL 6
REMARK VINA RESULT:      -7.8      1.700      3.006
REMARK  Name = 
REMARK  5 active torsions:
REMARK  status: ('A' for Active; 'I' for Inactive)
REMARK    1  A    between atoms: C_1  and  C_2
REMARK    2  A    between atoms: C_2  and  O_3
REMARK    3  A    between atoms: O_3  and  N_4
REMARK    4  A    between atoms: C_5  and  C_7
REMARK    5  A    between atoms: N_9  and  C_10
REMARK                            x       y       z     vdW  Elec       q    Type
REMARK                         _______ _______ _______ _____ _____    ______ ____
ROOT
ATOM      1  C   UNL     1       6.032   5.623  18.034  0.00  0.00    +0.000 C 
ATOM      2  O   UNL     1       6.495   5.520  19.162  0.00  0.00    +0.000 OA
ATOM      3  N   UNL     1       4.768   5.286  17.595  0.00  0.00    +0.000 N 
ATOM      4  H   UNL     1       4.666   5.208  16.581  0.00  0.00    +0.000 HD
ENDROOT
BRANCH   3   5
ATOM      5  C   UNL     1       3.713   4.821  18.413  0.00  0.00    +0.000 A 
ATOM      6  C   UNL     1       2.939   5.638  19.249  0.00  0.00    +0.000 A 
ATOM      7  F   UNL     1       3.040   6.974  19.208  0.00  0.00    +0.000 F 
ATOM      8  C   UNL     1       1.965   5.089  20.079  0.00  0.00    +0.000 A 
ATOM      9  F   UNL     1       1.247   5.890  20.881  0.00  0.00    +0.000 F 
ATOM     10  C   UNL     1       1.729   3.724  20.073  0.00  0.00    +0.000 A 
ATOM     11  F   UNL     1       0.802   3.201  20.884  0.00  0.00    +0.000 F 
ATOM     12  C   UNL     1       2.444   2.907  19.211  0.00  0.00    +0.000 A 
ATOM     13  F   UNL     1       2.202   1.590  19.183  0.00  0.00    +0.000 F 
ATOM     14  C   UNL     1       3.420   3.453  18.380  0.00  0.00    +0.000 A 
ATOM     15  F   UNL     1       4.112   2.648  17.558  0.00  0.00    +0.000 F 
ENDBRANCH   3   5
BRANCH   1  17
ATOM     16  N   UNL     1       7.185   5.132  15.993  0.00  0.00    +0.000 N 
ATOM     17  C   UNL     1       6.961   6.117  16.921  0.00  0.00    +0.000 C 
ATOM     18  O   UNL     1       7.398   7.257  16.953  0.00  0.00    +0.000 OA
ATOM     19  H   UNL     1       6.540   4.345  15.954  0.00  0.00    +0.000 HD
BRANCH  16  20
ATOM     20  O   UNL     1       7.832   5.500  14.798  0.00  0.00    +0.000 OA
BRANCH  20  22
ATOM     21  C   UNL     1       6.024   4.012  14.294  0.00  0.00    +0.000 C 
ATOM     22  C   UNL     1       7.201   4.781  13.736  0.00  0.00    +0.000 C 
ENDBRANCH  20  22
ENDBRANCH  16  20
ENDBRANCH   1  17
TORSDOF 4
ENDMDL
MODEL 7
REMARK VINA RESULT:      -7.8      1.559      2.875
REMARK  Name = 
REMARK  5 active torsions:
REMARK  status: ('A' for Active; 'I' for Inactive)
REMARK    1  A    between atoms: C_1  and  C_2
REMARK    2  A    between atoms: C_2  and  O_3
REMARK    3  A    between atoms: O_3  and  N_4
REMARK    4  A    between atoms: C_5  and  C_7
REMARK    5  A    between atoms: N_9  and  C_10
REMARK                            x       y       z     vdW  Elec       q    Type
REMARK                         _______ _______ _______ _____ _____    ______ ____
ROOT
ATOM      1  C   UNL     1       5.496   4.818  16.805  0.00  0.00    +0.000 C 
ATOM      2  O   UNL     1       4.688   5.638  16.389  0.00  0.00    +0.000 OA
ATOM      3  N   UNL     1       5.366   3.958  17.876  0.00  0.00    +0.000 N 
ATOM      4  H   UNL     1       6.238   3.545  18.210  0.00  0.00    +0.000 HD
ENDROOT
BRANCH   3   5
ATOM      5  C   UNL     1       4.204   3.802  18.666  0.00  0.00    +0.000 A 
ATOM      6  C   UNL     1       3.755   4.739  19.608  0.00  0.00    +0.000 A 
ATOM      7  F   UNL     1       4.318   5.950  19.712  0.00  0.00    +0.000 F 
ATOM      8  C   UNL     1       2.640   4.475  20.400  0.00  0.00    +0.000 A 
ATOM      9  F   UNL     1       2.238   5.380  21.304  0.00  0.00    +0.000 F 
ATOM     10  C   UNL     1       1.940   3.288  20.250  0.00  0.00    +0.000 A 
ATOM     11  F   UNL     1       0.878   3.034  21.024  0.00  0.00    +0.000 F 
ATOM     12  C   UNL     1       2.335   2.376  19.283  0.00  0.00    +0.000 A 
ATOM     13  F   UNL     1       1.647   1.238  19.117  0.00  0.00    +0.000 F 
ATOM     14  C   UNL     1       3.451   2.636  18.492  0.00  0.00    +0.000 A 
ATOM     15  F   UNL     1       3.828   1.738  17.567  0.00  0.00    +0.000 F 
ENDBRANCH   3   5
BRANCH   1  17
ATOM     16  N   UNL     1       6.793   5.188  14.825  0.00  0.00    +0.000 N 
ATOM     17  C   UNL     1       6.866   4.755  16.125  0.00  0.00    +0.000 C 
ATOM     18  O   UNL     1       7.837   4.350  16.746  0.00  0.00    +0.000 OA
ATOM     19  H   UNL     1       5.990   5.748  14.545  0.00  0.00    +0.000 HD
BRANCH  16  20
ATOM     20  O   UNL     1       8.004   5.402  14.141  0.00  0.00    +0.000 OA
BRANCH  20  22
ATOM     21  C   UNL     1       6.820   4.005  12.597  0.00  0.00    +0.000 C 
ATOM     22  C   UNL     1       7.748   5.189  12.751  0.00  0.00    +0.000 C 
ENDBRANCH  20  22
ENDBRANCH  16  20
ENDBRANCH   1  17
TORSDOF 4
ENDMDL
MODEL 8
REMARK VINA RESULT:      -7.6      1.426      1.474
REMARK  Name = 
REMARK  5 active torsions:
REMARK  status: ('A' for Active; 'I' for Inactive)
REMARK    1  A    between atoms: C_1  and  C_2
REMARK    2  A    between atoms: C_2  and  O_3
REMARK    3  A    between atoms: O_3  and  N_4
REMARK    4  A    between atoms: C_5  and  C_7
REMARK    5  A    between atoms: N_9  and  C_10
REMARK                            x       y       z     vdW  Elec       q    Type
REMARK                         _______ _______ _______ _____ _____    ______ ____
ROOT
ATOM      1  C   UNL     1       5.079   4.676  16.476  0.00  0.00    +0.000 C 
ATOM      2  O   UNL     1       4.544   5.777  16.481  0.00  0.00    +0.000 OA
ATOM      3  N   UNL     1       4.767   3.571  17.239  0.00  0.00    +0.000 N 
ATOM      4  H   UNL     1       5.486   2.845  17.268  0.00  0.00    +0.000 HD
ENDROOT
BRANCH   3   5
ATOM      5  C   UNL     1       3.683   3.476  18.141  0.00  0.00    +0.000 A 
ATOM      6  C   UNL     1       2.538   2.696  17.926  0.00  0.00    +0.000 A 
ATOM      7  F   UNL     1       2.462   1.836  16.901  0.00  0.00    +0.000 F 
ATOM      8  C   UNL     1       1.480   2.716  18.831  0.00  0.00    +0.000 A 
ATOM      9  F   UNL     1       0.390   1.972  18.596  0.00  0.00    +0.000 F 
ATOM     10  C   UNL     1       1.554   3.492  19.977  0.00  0.00    +0.000 A 
ATOM     11  F   UNL     1       0.529   3.519  20.836  0.00  0.00    +0.000 F 
ATOM     12  C   UNL     1       2.702   4.225  20.236  0.00  0.00    +0.000 A 
ATOM     13  F   UNL     1       2.790   4.958  21.355  0.00  0.00    +0.000 F 
ATOM     14  C   UNL     1       3.761   4.209  19.331  0.00  0.00    +0.000 A 
ATOM     15  F   UNL     1       4.862   4.933  19.590  0.00  0.00    +0.000 F 
ENDBRANCH   3   5
BRANCH   1  17
ATOM     16  N   UNL     1       5.920   4.214  14.281  0.00  0.00    +0.000 N 
ATOM     17  C   UNL     1       6.300   4.479  15.572  0.00  0.00    +0.000 C 
ATOM     18  O   UNL     1       7.424   4.560  16.041  0.00  0.00    +0.000 OA
ATOM     19  H   UNL     1       4.973   4.454  13.994  0.00  0.00    +0.000 HD
BRANCH  16  20
ATOM     20  O   UNL     1       6.921   4.232  13.292  0.00  0.00    +0.000 OA
BRANCH  20  22
ATOM     21  C   UNL     1       4.961   3.461  12.151  0.00  0.00    +0.000 C 
ATOM     22  C   UNL     1       6.471   3.403  12.219  0.00  0.00    +0.000 C 
ENDBRANCH  20  22
ENDBRANCH  16  20
ENDBRANCH   1  17
TORSDOF 4
ENDMDL
MODEL 9
REMARK VINA RESULT:      -7.5      2.037      2.508
REMARK  Name = 
REMARK  5 active torsions:
REMARK  status: ('A' for Active; 'I' for Inactive)
REMARK    1  A    between atoms: C_1  and  C_2
REMARK    2  A    between atoms: C_2  and  O_3
REMARK    3  A    between atoms: O_3  and  N_4
REMARK    4  A    between atoms: C_5  and  C_7
REMARK    5  A    between atoms: N_9  and  C_10
REMARK                            x       y       z     vdW  Elec       q    Type
REMARK                         _______ _______ _______ _____ _____    ______ ____
ROOT
ATOM      1  C   UNL     1       5.736   4.640  17.411  0.00  0.00    +0.000 C 
ATOM      2  O   UNL     1       5.429   5.701  17.936  0.00  0.00    +0.000 OA
ATOM      3  N   UNL     1       5.144   3.404  17.570  0.00  0.00    +0.000 N 
ATOM      4  H   UNL     1       5.701   2.610  17.249  0.00  0.00    +0.000 HD
ENDROOT
BRANCH   3   5
ATOM      5  C   UNL     1       3.982   3.144  18.332  0.00  0.00    +0.000 A 
ATOM      6  C   UNL     1       2.674   3.196  17.826  0.00  0.00    +0.000 A 
ATOM      7  F   UNL     1       2.438   3.340  16.516  0.00  0.00    +0.000 F 
ATOM      8  C   UNL     1       1.579   2.998  18.663  0.00  0.00    +0.000 A 
ATOM      9  F   UNL     1       0.338   3.067  18.160  0.00  0.00    +0.000 F 
ATOM     10  C   UNL     1       1.766   2.720  20.008  0.00  0.00    +0.000 A 
ATOM     11  F   UNL     1       0.709   2.546  20.809  0.00  0.00    +0.000 F 
ATOM     12  C   UNL     1       3.052   2.607  20.512  0.00  0.00    +0.000 A 
ATOM     13  F   UNL     1       3.239   2.314  21.807  0.00  0.00    +0.000 F 
ATOM     14  C   UNL     1       4.150   2.806  19.679  0.00  0.00    +0.000 A 
ATOM     15  F   UNL     1       5.390   2.704  20.185  0.00  0.00    +0.000 F 
ENDBRANCH   3   5
BRANCH   1  17
ATOM     16  N   UNL     1       6.684   5.110  15.262  0.00  0.00    +0.000 N 
ATOM     17  C   UNL     1       6.974   4.620  16.510  0.00  0.00    +0.000 C 
ATOM     18  O   UNL     1       8.035   4.196  16.941  0.00  0.00    +0.000 OA
ATOM     19  H   UNL     1       5.845   5.675  15.145  0.00  0.00    +0.000 HD
BRANCH  16  20
ATOM     20  O   UNL     1       7.764   5.365  14.396  0.00  0.00    +0.000 OA
BRANCH  20  22
ATOM     21  C   UNL     1       6.244   3.883  13.287  0.00  0.00    +0.000 C 
ATOM     22  C   UNL     1       7.424   4.814  13.122  0.00  0.00    +0.000 C 
ENDBRANCH  20  22
ENDBRANCH  16  20
ENDBRANCH   1  17
TORSDOF 4
ENDMDL
