MODEL 1
REMARK VINA RESULT:      -8.5      0.000      0.000
REMARK  Name = 
REMARK  9 active torsions:
REMARK  status: ('A' for Active; 'I' for Inactive)
REMARK    1  A    between atoms: C_1  and  C_2
REMARK    2  A    between atoms: C_4  and  O_5
REMARK    3  A    between atoms: O_5  and  C_6
REMARK    4  A    between atoms: C_11  and  C_12
REMARK    5  A    between atoms: C_12  and  O_13
REMARK    6  A    between atoms: O_13  and  C_14
REMARK    7  A    between atoms: C_18  and  C_19
REMARK    8  A    between atoms: C_19  and  O_21
REMARK    9  A    between atoms: N_23  and  C_24
REMARK                            x       y       z     vdW  Elec       q    Type
REMARK                         _______ _______ _______ _____ _____    ______ ____
ROOT
ATOM      1  C   UNL     1       2.293   7.843  19.318  0.00  0.00    +0.000 A 
ATOM      2  C   UNL     1       2.446   8.480  18.071  0.00  0.00    +0.000 A 
ATOM      3  C   UNL     1       1.797   9.695  17.811  0.00  0.00    +0.000 A 
ATOM      4  C   UNL     1       1.008  10.241  18.816  0.00  0.00    +0.000 A 
ATOM      5  N   UNL     1       0.298  11.374  18.769  0.00  0.00    +0.000 NA
ATOM      6  C   UNL     1      -0.297  11.446  19.987  0.00  0.00    +0.000 A 
ATOM      7  N   UNL     1       0.022  10.371  20.786  0.00  0.00    +0.000 N 
ATOM      8  C   UNL     1      -0.411  10.015  22.147  0.00  0.00    +0.000 C 
ATOM      9  C   UNL     1       0.849   9.641  20.023  0.00  0.00    +0.000 A 
ATOM     10  C   UNL     1       1.476   8.432  20.323  0.00  0.00    +0.000 A 
ENDROOT
BRANCH   1  11
ATOM     11  O   UNL     1       2.923   6.663  19.539  0.00  0.00    +0.000 OA
BRANCH  11  15
ATOM     12  C   UNL     1       1.285   2.555  21.576  0.00  0.00    +0.000 C 
ATOM     13  C   UNL     1       1.504   3.373  20.328  0.00  0.00    +0.000 A 
ATOM     14  C   UNL     1       2.095   4.621  20.474  0.00  0.00    +0.000 A 
ATOM     15  C   UNL     1       2.355   5.446  19.367  0.00  0.00    +0.000 A 
ATOM     16  C   UNL     1       2.027   4.998  18.085  0.00  0.00    +0.000 A 
ATOM     17  C   UNL     1       1.418   3.753  17.918  0.00  0.00    +0.000 A 
ATOM     18  C   UNL     1       1.153   2.936  19.032  0.00  0.00    +0.000 A 
ATOM     19  F   UNL     1       0.553   1.737  18.836  0.00  0.00    +0.000 F 
ENDBRANCH  11  15
ENDBRANCH   1  11
BRANCH   6  20
ATOM     20  C   UNL     1      -1.234  12.560  20.314  0.00  0.00    +0.000 C 
BRANCH  20  21
ATOM     21  O   UNL     1      -2.546  12.116  20.378  0.00  0.00    +0.000 OA
BRANCH  21  22
ATOM     22  C   UNL     1      -3.370  11.977  19.301  0.00  0.00    +0.000 A 
ATOM     23  C   UNL     1      -4.680  12.460  19.367  0.00  0.00    +0.000 A 
ATOM     24  C   UNL     1      -5.544  12.328  18.277  0.00  0.00    +0.000 A 
ATOM     25  C   UNL     1      -5.110  11.704  17.105  0.00  0.00    +0.000 A 
ATOM     26  C   UNL     1      -3.796  11.199  17.006  0.00  0.00    +0.000 A 
ATOM     27  C   UNL     1      -2.941  11.347  18.111  0.00  0.00    +0.000 A 
BRANCH  26  28
ATOM     28  C   UNL     1      -3.343  10.514  15.756  0.00  0.00    +0.000 C 
ATOM     29  O   UNL     1      -2.704   9.472  15.840  0.00  0.00    +0.000 OA
BRANCH  28  30
ATOM     30  O   UNL     1      -3.592  11.002  14.519  0.00  0.00    +0.000 OA
ATOM     31  H   UNL     1      -3.574  11.938  14.277  0.00  0.00    +0.000 HD
ENDBRANCH  28  30
ENDBRANCH  26  28
ENDBRANCH  21  22
ENDBRANCH  20  21
ENDBRANCH   6  20
TORSDOF 7
ENDMDL
MODEL 2
REMARK VINA RESULT:      -8.3      2.954      4.314
REMARK  Name = 
REMARK  9 active torsions:
REMARK  status: ('A' for Active; 'I' for Inactive)
REMARK    1  A    between atoms: C_1  and  C_2
REMARK    2  A    between atoms: C_4  and  O_5
REMARK    3  A    between atoms: O_5  and  C_6
REMARK    4  A    between atoms: C_11  and  C_12
REMARK    5  A    between atoms: C_12  and  O_13
REMARK    6  A    between atoms: O_13  and  C_14
REMARK    7  A    between atoms: C_18  and  C_19
REMARK    8  A    between atoms: C_19  and  O_21
REMARK    9  A    between atoms: N_23  and  C_24
REMARK                            x       y       z     vdW  Elec       q    Type
REMARK                         _______ _______ _______ _____ _____    ______ ____
ROOT
ATOM      1  C   UNL     1       2.604   7.378  19.001  0.00  0.00    +0.000 A 
ATOM      2  C   UNL     1       2.743   8.186  17.856  0.00  0.00    +0.000 A 
ATOM      3  C   UNL     1       2.059   9.406  17.760  0.00  0.00    +0.000 A 
ATOM      4  C   UNL     1       1.248   9.783  18.824  0.00  0.00    +0.000 A 
ATOM      5  N   UNL     1       0.503  10.890  18.928  0.00  0.00    +0.000 NA
ATOM      6  C   UNL     1      -0.100  10.774  20.138  0.00  0.00    +0.000 A 
ATOM      7  N   UNL     1       0.248   9.609  20.784  0.00  0.00    +0.000 N 
ATOM      8  C   UNL     1      -0.180   9.055  22.078  0.00  0.00    +0.000 C 
ATOM      9  C   UNL     1       1.102   9.018  19.935  0.00  0.00    +0.000 A 
ATOM     10  C   UNL     1       1.765   7.798  20.070  0.00  0.00    +0.000 A 
ENDROOT
BRANCH   1  11
ATOM     11  O   UNL     1       3.270   6.199  19.062  0.00  0.00    +0.000 OA
BRANCH  11  15
ATOM     12  C   UNL     1       1.279   2.641  21.725  0.00  0.00    +0.000 C 
ATOM     13  C   UNL     1       1.653   3.174  20.365  0.00  0.00    +0.000 A 
ATOM     14  C   UNL     1       2.275   4.415  20.309  0.00  0.00    +0.000 A 
ATOM     15  C   UNL     1       2.675   4.983  19.088  0.00  0.00    +0.000 A 
ATOM     16  C   UNL     1       2.459   4.281  17.900  0.00  0.00    +0.000 A 
ATOM     17  C   UNL     1       1.822   3.038  17.933  0.00  0.00    +0.000 A 
ATOM     18  C   UNL     1       1.416   2.480  19.158  0.00  0.00    +0.000 A 
ATOM     19  F   UNL     1       0.792   1.277  19.153  0.00  0.00    +0.000 F 
ENDBRANCH  11  15
ENDBRANCH   1  11
BRANCH   6  20
ATOM     20  C   UNL     1      -1.073  11.803  20.608  0.00  0.00    +0.000 C 
BRANCH  20  21
ATOM     21  O   UNL     1      -0.588  12.495  21.706  0.00  0.00    +0.000 OA
BRANCH  21  22
ATOM     22  C   UNL     1      -1.366  13.119  22.635  0.00  0.00    +0.000 A 
ATOM     23  C   UNL     1      -0.948  14.334  23.184  0.00  0.00    +0.000 A 
ATOM     24  C   UNL     1      -1.728  14.992  24.138  0.00  0.00    +0.000 A 
ATOM     25  C   UNL     1      -2.939  14.439  24.562  0.00  0.00    +0.000 A 
ATOM     26  C   UNL     1      -3.389  13.209  24.034  0.00  0.00    +0.000 A 
ATOM     27  C   UNL     1      -2.593  12.567  23.071  0.00  0.00    +0.000 A 
BRANCH  26  28
ATOM     28  C   UNL     1      -4.676  12.612  24.505  0.00  0.00    +0.000 C 
ATOM     29  O   UNL     1      -5.605  12.488  23.716  0.00  0.00    +0.000 OA
BRANCH  28  30
ATOM     30  O   UNL     1      -4.877  12.209  25.782  0.00  0.00    +0.000 OA
ATOM     31  H   UNL     1      -4.246  11.700  26.308  0.00  0.00    +0.000 HD
ENDBRANCH  28  30
ENDBRANCH  26  28
ENDBRANCH  21  22
ENDBRANCH  20  21
ENDBRANCH   6  20
TORSDOF 7
ENDMDL
MODEL 3
REMARK VINA RESULT:      -8.2      2.657      3.709
REMARK  Name = 
REMARK  9 active torsions:
REMARK  status: ('A' for Active; 'I' for Inactive)
REMARK    1  A    between atoms: C_1  and  C_2
REMARK    2  A    between atoms: C_4  and  O_5
REMARK    3  A    between atoms: O_5  and  C_6
REMARK    4  A    between atoms: C_11  and  C_12
REMARK    5  A    between atoms: C_12  and  O_13
REMARK    6  A    between atoms: O_13  and  C_14
REMARK    7  A    between atoms: C_18  and  C_19
REMARK    8  A    between atoms: C_19  and  O_21
REMARK    9  A    between atoms: N_23  and  C_24
REMARK                            x       y       z     vdW  Elec       q    Type
REMARK                         _______ _______ _______ _____ _____    ______ ____
ROOT
ATOM      1  C   UNL     1       2.285   7.831  19.215  0.00  0.00    +0.000 A 
ATOM      2  C   UNL     1       2.186   8.612  18.048  0.00  0.00    +0.000 A 
ATOM      3  C   UNL     1       1.502   9.836  18.068  0.00  0.00    +0.000 A 
ATOM      4  C   UNL     1       0.933  10.244  19.268  0.00  0.00    +0.000 A 
ATOM      5  N   UNL     1       0.231  11.359  19.499  0.00  0.00    +0.000 NA
ATOM      6  C   UNL     1      -0.106  11.277  20.811  0.00  0.00    +0.000 A 
ATOM      7  N   UNL     1       0.364  10.122  21.397  0.00  0.00    +0.000 N 
ATOM      8  C   UNL     1       0.213   9.601  22.765  0.00  0.00    +0.000 C 
ATOM      9  C   UNL     1       1.019   9.504  20.403  0.00  0.00    +0.000 A 
ATOM     10  C   UNL     1       1.689   8.282  20.426  0.00  0.00    +0.000 A 
ENDROOT
BRANCH   1  11
ATOM     11  O   UNL     1       2.943   6.646  19.164  0.00  0.00    +0.000 OA
BRANCH  11  15
ATOM     12  C   UNL     1       1.258   2.713  21.486  0.00  0.00    +0.000 C 
ATOM     13  C   UNL     1       1.465   3.449  20.186  0.00  0.00    +0.000 A 
ATOM     14  C   UNL     1       2.090   4.687  20.242  0.00  0.00    +0.000 A 
ATOM     15  C   UNL     1       2.341   5.437  19.081  0.00  0.00    +0.000 A 
ATOM     16  C   UNL     1       1.968   4.922  17.836  0.00  0.00    +0.000 A 
ATOM     17  C   UNL     1       1.324   3.685  17.760  0.00  0.00    +0.000 A 
ATOM     18  C   UNL     1       1.068   2.945  18.928  0.00  0.00    +0.000 A 
ATOM     19  F   UNL     1       0.433   1.752  18.820  0.00  0.00    +0.000 F 
ENDBRANCH  11  15
ENDBRANCH   1  11
BRANCH   6  20
ATOM     20  C   UNL     1      -0.954  12.325  21.449  0.00  0.00    +0.000 C 
BRANCH  20  21
ATOM     21  O   UNL     1      -2.303  12.068  21.261  0.00  0.00    +0.000 OA
BRANCH  21  22
ATOM     22  C   UNL     1      -3.285  12.394  22.149  0.00  0.00    +0.000 A 
ATOM     23  C   UNL     1      -3.080  12.184  23.514  0.00  0.00    +0.000 A 
ATOM     24  C   UNL     1      -4.072  12.510  24.443  0.00  0.00    +0.000 A 
ATOM     25  C   UNL     1      -5.290  13.045  24.016  0.00  0.00    +0.000 A 
ATOM     26  C   UNL     1      -5.534  13.263  22.643  0.00  0.00    +0.000 A 
ATOM     27  C   UNL     1      -4.522  12.935  21.726  0.00  0.00    +0.000 A 
BRANCH  26  28
ATOM     28  C   UNL     1      -6.847  13.817  22.189  0.00  0.00    +0.000 C 
ATOM     29  O   UNL     1      -6.971  14.195  21.029  0.00  0.00    +0.000 OA
BRANCH  28  30
ATOM     30  O   UNL     1      -7.916  13.941  23.009  0.00  0.00    +0.000 OA
ATOM     31  H   UNL     1      -8.799  13.595  22.824  0.00  0.00    +0.000 HD
ENDBRANCH  28  30
ENDBRANCH  26  28
ENDBRANCH  21  22
ENDBRANCH  20  21
ENDBRANCH   6  20
TORSDOF 7
ENDMDL
MODEL 4
REMARK VINA RESULT:      -8.2      2.935      4.032
REMARK  Name = 
REMARK  9 active torsions:
REMARK  status: ('A' for Active; 'I' for Inactive)
REMARK    1  A    between atoms: C_1  and  C_2
REMARK    2  A    between atoms: C_4  and  O_5
REMARK    3  A    between atoms: O_5  and  C_6
REMARK    4  A    between atoms: C_11  and  C_12
REMARK    5  A    between atoms: C_12  and  O_13
REMARK    6  A    between atoms: O_13  and  C_14
REMARK    7  A    between atoms: C_18  and  C_19
REMARK    8  A    between atoms: C_19  and  O_21
REMARK    9  A    between atoms: N_23  and  C_24
REMARK                            x       y       z     vdW  Elec       q    Type
REMARK                         _______ _______ _______ _____ _____    ______ ____
ROOT
ATOM      1  C   UNL     1       2.334   7.775  19.208  0.00  0.00    +0.000 A 
ATOM      2  C   UNL     1       2.396   8.415  17.956  0.00  0.00    +0.000 A 
ATOM      3  C   UNL     1       1.743   9.638  17.750  0.00  0.00    +0.000 A 
ATOM      4  C   UNL     1       1.040  10.188  18.815  0.00  0.00    +0.000 A 
ATOM      5  N   UNL     1       0.340  11.329  18.827  0.00  0.00    +0.000 NA
ATOM      6  C   UNL     1      -0.157  11.403  20.087  0.00  0.00    +0.000 A 
ATOM      7  N   UNL     1       0.211  10.321  20.856  0.00  0.00    +0.000 N 
ATOM      8  C   UNL     1      -0.118   9.965  22.246  0.00  0.00    +0.000 C 
ATOM      9  C   UNL     1       0.969   9.586  20.029  0.00  0.00    +0.000 A 
ATOM     10  C   UNL     1       1.604   8.370  20.276  0.00  0.00    +0.000 A 
ENDROOT
BRANCH   1  11
ATOM     11  O   UNL     1       2.966   6.587  19.377  0.00  0.00    +0.000 OA
BRANCH  11  15
ATOM     12  C   UNL     1       1.259   2.600  21.588  0.00  0.00    +0.000 C 
ATOM     13  C   UNL     1       1.484   3.363  20.307  0.00  0.00    +0.000 A 
ATOM     14  C   UNL     1       2.103   4.603  20.399  0.00  0.00    +0.000 A 
ATOM     15  C   UNL     1       2.370   5.378  19.258  0.00  0.00    +0.000 A 
ATOM     16  C   UNL     1       2.021   4.887  17.997  0.00  0.00    +0.000 A 
ATOM     17  C   UNL     1       1.385   3.649  17.885  0.00  0.00    +0.000 A 
ATOM     18  C   UNL     1       1.112   2.883  19.032  0.00  0.00    +0.000 A 
ATOM     19  F   UNL     1       0.484   1.691  18.889  0.00  0.00    +0.000 F 
ENDBRANCH  11  15
ENDBRANCH   1  11
BRANCH   6  20
ATOM     20  C   UNL     1      -1.054  12.525  20.489  0.00  0.00    +0.000 C 
BRANCH  20  21
ATOM     21  O   UNL     1      -0.328  13.641  20.875  0.00  0.00    +0.000 OA
BRANCH  21  22
ATOM     22  C   UNL     1      -0.039  14.697  20.063  0.00  0.00    +0.000 A 
ATOM     23  C   UNL     1      -1.016  15.666  19.817  0.00  0.00    +0.000 A 
ATOM     24  C   UNL     1      -0.744  16.757  18.987  0.00  0.00    +0.000 A 
ATOM     25  C   UNL     1       0.510  16.892  18.387  0.00  0.00    +0.000 A 
ATOM     26  C   UNL     1       1.518  15.928  18.609  0.00  0.00    +0.000 A 
ATOM     27  C   UNL     1       1.227  14.842  19.451  0.00  0.00    +0.000 A 
BRANCH  26  28
ATOM     28  C   UNL     1       2.852  16.067  17.948  0.00  0.00    +0.000 C 
ATOM     29  O   UNL     1       3.424  17.151  17.970  0.00  0.00    +0.000 OA
BRANCH  28  30
ATOM     30  O   UNL     1       3.464  15.046  17.304  0.00  0.00    +0.000 OA
ATOM     31  H   UNL     1       3.009  14.306  16.879  0.00  0.00    +0.000 HD
ENDBRANCH  28  30
ENDBRANCH  26  28
ENDBRANCH  21  22
ENDBRANCH  20  21
ENDBRANCH   6  20
TORSDOF 7
ENDMDL
MODEL 5
REMARK VINA RESULT:      -8.2      2.027      3.684
REMARK  Name = 
REMARK  9 active torsions:
REMARK  status: ('A' for Active; 'I' for Inactive)
REMARK    1  A    between atoms: C_1  and  C_2
REMARK    2  A    between atoms: C_4  and  O_5
REMARK    3  A    between atoms: O_5  and  C_6
REMARK    4  A    between atoms: C_11  and  C_12
REMARK    5  A    between atoms: C_12  and  O_13
REMARK    6  A    between atoms: O_13  and  C_14
REMARK    7  A    between atoms: C_18  and  C_19
REMARK    8  A    between atoms: C_19  and  O_21
REMARK    9  A    between atoms: N_23  and  C_24
REMARK                            x       y       z     vdW  Elec       q    Type
REMARK                         _______ _______ _______ _____ _____    ______ ____
ROOT
ATOM      1  C   UNL     1       1.976   7.983  19.597  0.00  0.00    +0.000 A 
ATOM      2  C   UNL     1       1.881   8.539  18.307  0.00  0.00    +0.000 A 
ATOM      3  C   UNL     1       1.120   9.696  18.086  0.00  0.00    +0.000 A 
ATOM      4  C   UNL     1       0.471  10.265  19.174  0.00  0.00    +0.000 A 
ATOM      5  N   UNL     1      -0.311  11.352  19.179  0.00  0.00    +0.000 NA
ATOM      6  C   UNL     1      -0.703  11.476  20.472  0.00  0.00    +0.000 A 
ATOM      7  N   UNL     1      -0.188  10.478  21.270  0.00  0.00    +0.000 N 
ATOM      8  C   UNL     1      -0.369  10.195  22.703  0.00  0.00    +0.000 C 
ATOM      9  C   UNL     1       0.551   9.744  20.424  0.00  0.00    +0.000 A 
ATOM     10  C   UNL     1       1.296   8.596  20.687  0.00  0.00    +0.000 A 
ENDROOT
BRANCH   1  11
ATOM     11  O   UNL     1       2.710   6.858  19.780  0.00  0.00    +0.000 OA
BRANCH  11  15
ATOM     12  C   UNL     1       2.756   2.844  17.026  0.00  0.00    +0.000 C 
ATOM     13  C   UNL     1       2.241   3.558  18.250  0.00  0.00    +0.000 A 
ATOM     14  C   UNL     1       2.689   4.853  18.475  0.00  0.00    +0.000 A 
ATOM     15  C   UNL     1       2.250   5.601  19.580  0.00  0.00    +0.000 A 
ATOM     16  C   UNL     1       1.330   5.040  20.469  0.00  0.00    +0.000 A 
ATOM     17  C   UNL     1       0.879   3.733  20.269  0.00  0.00    +0.000 A 
ATOM     18  C   UNL     1       1.329   2.987  19.165  0.00  0.00    +0.000 A 
ATOM     19  F   UNL     1       0.879   1.718  19.006  0.00  0.00    +0.000 F 
ENDBRANCH  11  15
ENDBRANCH   1  11
BRANCH   6  20
ATOM     20  C   UNL     1      -1.646  12.556  20.884  0.00  0.00    +0.000 C 
BRANCH  20  21
ATOM     21  O   UNL     1      -2.743  12.620  20.039  0.00  0.00    +0.000 OA
BRANCH  21  22
ATOM     22  C   UNL     1      -4.042  12.611  20.453  0.00  0.00    +0.000 A 
ATOM     23  C   UNL     1      -5.064  12.430  19.518  0.00  0.00    +0.000 A 
ATOM     24  C   UNL     1      -6.403  12.418  19.919  0.00  0.00    +0.000 A 
ATOM     25  C   UNL     1      -6.738  12.593  21.263  0.00  0.00    +0.000 A 
ATOM     26  C   UNL     1      -5.732  12.786  22.234  0.00  0.00    +0.000 A 
ATOM     27  C   UNL     1      -4.392  12.788  21.812  0.00  0.00    +0.000 A 
BRANCH  26  28
ATOM     28  C   UNL     1      -6.097  12.993  23.669  0.00  0.00    +0.000 C 
ATOM     29  O   UNL     1      -6.162  12.025  24.418  0.00  0.00    +0.000 OA
BRANCH  28  30
ATOM     30  O   UNL     1      -6.380  14.210  24.188  0.00  0.00    +0.000 OA
ATOM     31  H   UNL     1      -6.010  15.046  23.876  0.00  0.00    +0.000 HD
ENDBRANCH  28  30
ENDBRANCH  26  28
ENDBRANCH  21  22
ENDBRANCH  20  21
ENDBRANCH   6  20
TORSDOF 7
ENDMDL
MODEL 6
REMARK VINA RESULT:      -8.2      3.626      5.154
REMARK  Name = 
REMARK  9 active torsions:
REMARK  status: ('A' for Active; 'I' for Inactive)
REMARK    1  A    between atoms: C_1  and  C_2
REMARK    2  A    between atoms: C_4  and  O_5
REMARK    3  A    between atoms: O_5  and  C_6
REMARK    4  A    between atoms: C_11  and  C_12
REMARK    5  A    between atoms: C_12  and  O_13
REMARK    6  A    between atoms: O_13  and  C_14
REMARK    7  A    between atoms: C_18  and  C_19
REMARK    8  A    between atoms: C_19  and  O_21
REMARK    9  A    between atoms: N_23  and  C_24
REMARK                            x       y       z     vdW  Elec       q    Type
REMARK                         _______ _______ _______ _____ _____    ______ ____
ROOT
ATOM      1  C   UNL     1       3.745   4.107  18.217  0.00  0.00    +0.000 A 
ATOM      2  C   UNL     1       3.362   3.532  19.444  0.00  0.00    +0.000 A 
ATOM      3  C   UNL     1       2.662   4.288  20.395  0.00  0.00    +0.000 A 
ATOM      4  C   UNL     1       2.363   5.609  20.085  0.00  0.00    +0.000 A 
ATOM      5  N   UNL     1       1.721   6.500  20.849  0.00  0.00    +0.000 NA
ATOM      6  C   UNL     1       1.699   7.630  20.099  0.00  0.00    +0.000 A 
ATOM      7  N   UNL     1       2.328   7.461  18.885  0.00  0.00    +0.000 N 
ATOM      8  C   UNL     1       2.575   8.405  17.783  0.00  0.00    +0.000 C 
ATOM      9  C   UNL     1       2.722   6.179  18.907  0.00  0.00    +0.000 A 
ATOM     10  C   UNL     1       3.420   5.464  17.935  0.00  0.00    +0.000 A 
ENDROOT
BRANCH   1  11
ATOM     11  O   UNL     1       4.431   3.356  17.320  0.00  0.00    +0.000 OA
BRANCH  11  15
ATOM     12  C   UNL     1       5.928   3.587  12.693  0.00  0.00    +0.000 C 
ATOM     13  C   UNL     1       6.109   4.019  14.127  0.00  0.00    +0.000 A 
ATOM     14  C   UNL     1       5.218   3.518  15.066  0.00  0.00    +0.000 A 
ATOM     15  C   UNL     1       5.319   3.851  16.427  0.00  0.00    +0.000 A 
ATOM     16  C   UNL     1       6.350   4.693  16.853  0.00  0.00    +0.000 A 
ATOM     17  C   UNL     1       7.248   5.219  15.922  0.00  0.00    +0.000 A 
ATOM     18  C   UNL     1       7.134   4.889  14.560  0.00  0.00    +0.000 A 
ATOM     19  F   UNL     1       8.016   5.424  13.681  0.00  0.00    +0.000 F 
ENDBRANCH  11  15
ENDBRANCH   1  11
BRANCH   6  20
ATOM     20  C   UNL     1       1.108   8.891  20.634  0.00  0.00    +0.000 C 
BRANCH  20  21
ATOM     21  O   UNL     1       0.974   9.849  19.642  0.00  0.00    +0.000 OA
BRANCH  21  22
ATOM     22  C   UNL     1      -0.193  10.475  19.320  0.00  0.00    +0.000 A 
ATOM     23  C   UNL     1      -0.799  11.326  20.248  0.00  0.00    +0.000 A 
ATOM     24  C   UNL     1      -1.996  11.979  19.941  0.00  0.00    +0.000 A 
ATOM     25  C   UNL     1      -2.609  11.782  18.701  0.00  0.00    +0.000 A 
ATOM     26  C   UNL     1      -2.028  10.923  17.743  0.00  0.00    +0.000 A 
ATOM     27  C   UNL     1      -0.821  10.282  18.068  0.00  0.00    +0.000 A 
BRANCH  26  28
ATOM     28  C   UNL     1      -2.698  10.701  16.425  0.00  0.00    +0.000 C 
ATOM     29  O   UNL     1      -2.563   9.624  15.856  0.00  0.00    +0.000 OA
BRANCH  28  30
ATOM     30  O   UNL     1      -3.444  11.648  15.810  0.00  0.00    +0.000 OA
ATOM     31  H   UNL     1      -3.650  11.666  14.866  0.00  0.00    +0.000 HD
ENDBRANCH  28  30
ENDBRANCH  26  28
ENDBRANCH  21  22
ENDBRANCH  20  21
ENDBRANCH   6  20
TORSDOF 7
ENDMDL
MODEL 7
REMARK VINA RESULT:      -8.1      3.306      4.867
REMARK  Name = 
REMARK  9 active torsions:
REMARK  status: ('A' for Active; 'I' for Inactive)
REMARK    1  A    between atoms: C_1  and  C_2
REMARK    2  A    between atoms: C_4  and  O_5
REMARK    3  A    between atoms: O_5  and  C_6
REMARK    4  A    between atoms: C_11  and  C_12
REMARK    5  A    between atoms: C_12  and  O_13
REMARK    6  A    between atoms: O_13  and  C_14
REMARK    7  A    between atoms: C_18  and  C_19
REMARK    8  A    between atoms: C_19  and  O_21
REMARK    9  A    between atoms: N_23  and  C_24
REMARK                            x       y       z     vdW  Elec       q    Type
REMARK                         _______ _______ _______ _____ _____    ______ ____
ROOT
ATOM      1  C   UNL     1       2.365   7.401  19.398  0.00  0.00    +0.000 A 
ATOM      2  C   UNL     1       2.483   7.975  18.118  0.00  0.00    +0.000 A 
ATOM      3  C   UNL     1       1.837   9.182  17.818  0.00  0.00    +0.000 A 
ATOM      4  C   UNL     1       1.085   9.784  18.819  0.00  0.00    +0.000 A 
ATOM      5  N   UNL     1       0.383  10.921  18.739  0.00  0.00    +0.000 NA
ATOM      6  C   UNL     1      -0.171  11.059  19.970  0.00  0.00    +0.000 A 
ATOM      7  N   UNL     1       0.164  10.021  20.811  0.00  0.00    +0.000 N 
ATOM      8  C   UNL     1      -0.227   9.738  22.201  0.00  0.00    +0.000 C 
ATOM      9  C   UNL     1       0.960   9.247  20.059  0.00  0.00    +0.000 A 
ATOM     10  C   UNL     1       1.586   8.048  20.399  0.00  0.00    +0.000 A 
ENDROOT
BRANCH   1  11
ATOM     11  O   UNL     1       2.992   6.228  19.658  0.00  0.00    +0.000 OA
BRANCH  11  15
ATOM     12  C   UNL     1       7.289   5.047  17.696  0.00  0.00    +0.000 C 
ATOM     13  C   UNL     1       5.793   4.858  17.726  0.00  0.00    +0.000 A 
ATOM     14  C   UNL     1       5.070   5.599  18.651  0.00  0.00    +0.000 A 
ATOM     15  C   UNL     1       3.671   5.501  18.740  0.00  0.00    +0.000 A 
ATOM     16  C   UNL     1       2.985   4.653  17.867  0.00  0.00    +0.000 A 
ATOM     17  C   UNL     1       3.695   3.888  16.939  0.00  0.00    +0.000 A 
ATOM     18  C   UNL     1       5.096   3.984  16.863  0.00  0.00    +0.000 A 
ATOM     19  F   UNL     1       5.755   3.221  15.957  0.00  0.00    +0.000 F 
ENDBRANCH  11  15
ENDBRANCH   1  11
BRANCH   6  20
ATOM     20  C   UNL     1      -1.088  12.197  20.271  0.00  0.00    +0.000 C 
BRANCH  20  21
ATOM     21  O   UNL     1      -0.556  13.034  21.239  0.00  0.00    +0.000 OA
BRANCH  21  22
ATOM     22  C   UNL     1      -1.233  13.484  22.332  0.00  0.00    +0.000 A 
ATOM     23  C   UNL     1      -0.728  14.563  23.063  0.00  0.00    +0.000 A 
ATOM     24  C   UNL     1      -1.404  15.041  24.188  0.00  0.00    +0.000 A 
ATOM     25  C   UNL     1      -2.596  14.440  24.604  0.00  0.00    +0.000 A 
ATOM     26  C   UNL     1      -3.130  13.344  23.893  0.00  0.00    +0.000 A 
ATOM     27  C   UNL     1      -2.439  12.883  22.761  0.00  0.00    +0.000 A 
BRANCH  26  28
ATOM     28  C   UNL     1      -4.396  12.692  24.353  0.00  0.00    +0.000 C 
ATOM     29  O   UNL     1      -5.226  12.340  23.523  0.00  0.00    +0.000 OA
BRANCH  28  30
ATOM     30  O   UNL     1      -4.683  12.484  25.659  0.00  0.00    +0.000 OA
ATOM     31  H   UNL     1      -4.036  12.483  26.376  0.00  0.00    +0.000 HD
ENDBRANCH  28  30
ENDBRANCH  26  28
ENDBRANCH  21  22
ENDBRANCH  20  21
ENDBRANCH   6  20
TORSDOF 7
ENDMDL
MODEL 8
REMARK VINA RESULT:      -8.0      4.030      9.234
REMARK  Name = 
REMARK  9 active torsions:
REMARK  status: ('A' for Active; 'I' for Inactive)
REMARK    1  A    between atoms: C_1  and  C_2
REMARK    2  A    between atoms: C_4  and  O_5
REMARK    3  A    between atoms: O_5  and  C_6
REMARK    4  A    between atoms: C_11  and  C_12
REMARK    5  A    between atoms: C_12  and  O_13
REMARK    6  A    between atoms: O_13  and  C_14
REMARK    7  A    between atoms: C_18  and  C_19
REMARK    8  A    between atoms: C_19  and  O_21
REMARK    9  A    between atoms: N_23  and  C_24
REMARK                            x       y       z     vdW  Elec       q    Type
REMARK                         _______ _______ _______ _____ _____    ______ ____
ROOT
ATOM      1  C   UNL     1      -0.735  11.352  22.385  0.00  0.00    +0.000 A 
ATOM      2  C   UNL     1      -0.806  10.108  23.041  0.00  0.00    +0.000 A 
ATOM      3  C   UNL     1      -0.175   8.981  22.496  0.00  0.00    +0.000 A 
ATOM      4  C   UNL     1       0.513   9.135  21.300  0.00  0.00    +0.000 A 
ATOM      5  N   UNL     1       1.166   8.193  20.609  0.00  0.00    +0.000 NA
ATOM      6  C   UNL     1       1.647   8.848  19.522  0.00  0.00    +0.000 A 
ATOM      7  N   UNL     1       1.294  10.179  19.519  0.00  0.00    +0.000 N 
ATOM      8  C   UNL     1       1.558  11.248  18.542  0.00  0.00    +0.000 C 
ATOM      9  C   UNL     1       0.593  10.325  20.653  0.00  0.00    +0.000 A 
ATOM     10  C   UNL     1      -0.019  11.471  21.160  0.00  0.00    +0.000 A 
ENDROOT
BRANCH   1  11
ATOM     11  O   UNL     1      -1.363  12.424  22.928  0.00  0.00    +0.000 OA
BRANCH  11  15
ATOM     12  C   UNL     1      -5.384  13.165  20.286  0.00  0.00    +0.000 C 
ATOM     13  C   UNL     1      -4.753  12.976  21.643  0.00  0.00    +0.000 A 
ATOM     14  C   UNL     1      -3.379  12.785  21.691  0.00  0.00    +0.000 A 
ATOM     15  C   UNL     1      -2.702  12.618  22.911  0.00  0.00    +0.000 A 
ATOM     16  C   UNL     1      -3.422  12.661  24.108  0.00  0.00    +0.000 A 
ATOM     17  C   UNL     1      -4.807  12.837  24.080  0.00  0.00    +0.000 A 
ATOM     18  C   UNL     1      -5.479  12.994  22.855  0.00  0.00    +0.000 A 
ATOM     19  F   UNL     1      -6.825  13.153  22.863  0.00  0.00    +0.000 F 
ENDBRANCH  11  15
ENDBRANCH   1  11
BRANCH   6  20
ATOM     20  C   UNL     1       2.400   8.118  18.461  0.00  0.00    +0.000 C 
BRANCH  20  21
ATOM     21  O   UNL     1       2.584   6.785  18.796  0.00  0.00    +0.000 OA
BRANCH  21  22
ATOM     22  C   UNL     1       3.328   5.900  18.075  0.00  0.00    +0.000 A 
ATOM     23  C   UNL     1       2.812   4.633  17.793  0.00  0.00    +0.000 A 
ATOM     24  C   UNL     1       3.557   3.708  17.056  0.00  0.00    +0.000 A 
ATOM     25  C   UNL     1       4.833   4.037  16.594  0.00  0.00    +0.000 A 
ATOM     26  C   UNL     1       5.388   5.306  16.866  0.00  0.00    +0.000 A 
ATOM     27  C   UNL     1       4.622   6.224  17.603  0.00  0.00    +0.000 A 
BRANCH  26  28
ATOM     28  C   UNL     1       6.763   5.648  16.386  0.00  0.00    +0.000 C 
ATOM     29  O   UNL     1       7.372   4.844  15.689  0.00  0.00    +0.000 OA
BRANCH  28  30
ATOM     30  O   UNL     1       7.385   6.808  16.698  0.00  0.00    +0.000 OA
ATOM     31  H   UNL     1       7.105   7.417  17.394  0.00  0.00    +0.000 HD
ENDBRANCH  28  30
ENDBRANCH  26  28
ENDBRANCH  21  22
ENDBRANCH  20  21
ENDBRANCH   6  20
TORSDOF 7
ENDMDL
MODEL 9
REMARK VINA RESULT:      -8.0      4.115      5.657
REMARK  Name = 
REMARK  9 active torsions:
REMARK  status: ('A' for Active; 'I' for Inactive)
REMARK    1  A    between atoms: C_1  and  C_2
REMARK    2  A    between atoms: C_4  and  O_5
REMARK    3  A    between atoms: O_5  and  C_6
REMARK    4  A    between atoms: C_11  and  C_12
REMARK    5  A    between atoms: C_12  and  O_13
REMARK    6  A    between atoms: O_13  and  C_14
REMARK    7  A    between atoms: C_18  and  C_19
REMARK    8  A    between atoms: C_19  and  O_21
REMARK    9  A    between atoms: N_23  and  C_24
REMARK                            x       y       z     vdW  Elec       q    Type
REMARK                         _______ _______ _______ _____ _____    ______ ____
ROOT
ATOM      1  C   UNL     1       4.472   5.059  17.228  0.00  0.00    +0.000 A 
ATOM      2  C   UNL     1       4.498   6.357  16.682  0.00  0.00    +0.000 A 
ATOM      3  C   UNL     1       3.797   7.401  17.299  0.00  0.00    +0.000 A 
ATOM      4  C   UNL     1       3.083   7.113  18.455  0.00  0.00    +0.000 A 
ATOM      5  N   UNL     1       2.340   7.953  19.186  0.00  0.00    +0.000 NA
ATOM      6  C   UNL     1       1.853   7.182  20.190  0.00  0.00    +0.000 A 
ATOM      7  N   UNL     1       2.269   5.873  20.090  0.00  0.00    +0.000 N 
ATOM      8  C   UNL     1       1.967   4.695  20.919  0.00  0.00    +0.000 C 
ATOM      9  C   UNL     1       3.047   5.869  18.997  0.00  0.00    +0.000 A 
ATOM     10  C   UNL     1       3.730   4.802  18.416  0.00  0.00    +0.000 A 
ENDROOT
BRANCH   1  11
ATOM     11  O   UNL     1       5.152   4.065  16.605  0.00  0.00    +0.000 OA
BRANCH  11  15
ATOM     12  C   UNL     1       5.048   3.124  11.830  0.00  0.00    +0.000 C 
ATOM     13  C   UNL     1       5.755   3.761  13.000  0.00  0.00    +0.000 A 
ATOM     14  C   UNL     1       5.162   3.642  14.250  0.00  0.00    +0.000 A 
ATOM     15  C   UNL     1       5.756   4.187  15.400  0.00  0.00    +0.000 A 
ATOM     16  C   UNL     1       6.980   4.853  15.292  0.00  0.00    +0.000 A 
ATOM     17  C   UNL     1       7.585   4.996  14.042  0.00  0.00    +0.000 A 
ATOM     18  C   UNL     1       6.980   4.456  12.893  0.00  0.00    +0.000 A 
ATOM     19  F   UNL     1       7.589   4.621  11.694  0.00  0.00    +0.000 F 
ENDBRANCH  11  15
ENDBRANCH   1  11
BRANCH   6  20
ATOM     20  C   UNL     1       0.917   7.750  21.203  0.00  0.00    +0.000 C 
BRANCH  20  21
ATOM     21  O   UNL     1       1.134   9.106  21.390  0.00  0.00    +0.000 OA
BRANCH  21  22
ATOM     22  C   UNL     1       0.208  10.079  21.159  0.00  0.00    +0.000 A 
ATOM     23  C   UNL     1      -0.308  10.810  22.233  0.00  0.00    +0.000 A 
ATOM     24  C   UNL     1      -1.260  11.811  22.021  0.00  0.00    +0.000 A 
ATOM     25  C   UNL     1      -1.714  12.091  20.730  0.00  0.00    +0.000 A 
ATOM     26  C   UNL     1      -1.220  11.367  19.624  0.00  0.00    +0.000 A 
ATOM     27  C   UNL     1      -0.259  10.369  19.856  0.00  0.00    +0.000 A 
BRANCH  26  28
ATOM     28  C   UNL     1      -1.724  11.658  18.246  0.00  0.00    +0.000 C 
ATOM     29  O   UNL     1      -2.588  10.938  17.759  0.00  0.00    +0.000 OA
BRANCH  28  30
ATOM     30  O   UNL     1      -1.256  12.679  17.492  0.00  0.00    +0.000 OA
ATOM     31  H   UNL     1      -1.596  13.584  17.511  0.00  0.00    +0.000 HD
ENDBRANCH  28  30
ENDBRANCH  26  28
ENDBRANCH  21  22
ENDBRANCH  20  21
ENDBRANCH   6  20
TORSDOF 7
ENDMDL
