MODEL 1
REMARK VINA RESULT:      -8.2      0.000      0.000
REMARK  Name = 
REMARK  3 active torsions:
REMARK  status: ('A' for Active; 'I' for Inactive)
REMARK    1  A    between atoms: C_1  and  O_2
REMARK    2  A    between atoms: O_2  and  C_3
REMARK    3  A    between atoms: C_6  and  C_7
REMARK                            x       y       z     vdW  Elec       q    Type
REMARK                         _______ _______ _______ _____ _____    ______ ____
ROOT
ATOM      1  C   UNL     1       0.836  11.025  18.886  0.00  0.00    +0.000 C 
ATOM      2  O   UNL     1       1.245  11.793  18.020  0.00  0.00    +0.000 OA
ATOM      3  N   UNL     1       0.806   9.633  18.696  0.00  0.00    +0.000 N 
ATOM      4  C   UNL     1       1.363   9.101  17.451  0.00  0.00    +0.000 C 
ATOM      5  C   UNL     1       2.735   8.436  17.694  0.00  0.00    +0.000 C 
ATOM      6  C   UNL     1       2.641   7.330  18.758  0.00  0.00    +0.000 C 
ATOM      7  C   UNL     1       3.185   6.076  18.627  0.00  0.00    +0.000 C 
ATOM      8  C   UNL     1       2.630   4.938  19.453  0.00  0.00    +0.000 A 
ATOM      9  C   UNL     1       1.256   4.898  19.773  0.00  0.00    +0.000 A 
ATOM     10  C   UNL     1       0.734   3.994  20.702  0.00  0.00    +0.000 A 
ATOM     11  C   UNL     1       1.573   3.066  21.290  0.00  0.00    +0.000 A 
ATOM     12 CL   UNL     1       0.980   2.014  22.514  0.00  0.00    +0.000 Cl
ATOM     13  C   UNL     1       2.890   2.961  20.861  0.00  0.00    +0.000 A 
ATOM     14  C   UNL     1       3.401   3.845  19.884  0.00  0.00    +0.000 A 
ATOM     15  C   UNL     1       4.737   3.506  19.280  0.00  0.00    +0.000 C 
ATOM     16  C   UNL     1       4.661   3.412  17.745  0.00  0.00    +0.000 C 
ATOM     17  C   UNL     1       4.733   4.756  17.063  0.00  0.00    +0.000 A 
ATOM     18  C   UNL     1       5.576   4.834  15.948  0.00  0.00    +0.000 A 
ATOM     19  C   UNL     1       6.397   5.938  15.823  0.00  0.00    +0.000 A 
ATOM     20  C   UNL     1       6.246   6.942  16.754  0.00  0.00    +0.000 A 
ATOM     21  N   UNL     1       5.209   7.003  17.620  0.00  0.00    +0.000 NA
ATOM     22  C   UNL     1       4.374   5.936  17.704  0.00  0.00    +0.000 A 
ATOM     23  C   UNL     1       1.933   7.863  20.006  0.00  0.00    +0.000 C 
ATOM     24  C   UNL     1       0.624   8.607  19.725  0.00  0.00    +0.000 C 
ENDROOT
BRANCH   1  28
ATOM     25  C   UNL     1      -0.444  12.737  22.528  0.00  0.00    +0.000 A 
ATOM     26  C   UNL     1      -1.188  11.702  21.990  0.00  0.00    +0.000 A 
ATOM     27  C   UNL     1      -0.759  11.142  20.778  0.00  0.00    +0.000 A 
ATOM     28  C   UNL     1       0.388  11.638  20.151  0.00  0.00    +0.000 A 
ATOM     29  C   UNL     1       1.101  12.626  20.819  0.00  0.00    +0.000 A 
ATOM     30  N   UNL     1       0.692  13.209  21.980  0.00  0.00    +0.000 NA
BRANCH  25  32
ATOM     31  C   UNL     1      -1.336  14.649  23.534  0.00  0.00    +0.000 C 
ATOM     32  O   UNL     1      -0.928  13.293  23.696  0.00  0.00    +0.000 OA
ENDBRANCH  25  32
ENDBRANCH   1  28
TORSDOF 2
ENDMDL
MODEL 2
REMARK VINA RESULT:      -8.2      7.013      9.820
REMARK  Name = 
REMARK  3 active torsions:
REMARK  status: ('A' for Active; 'I' for Inactive)
REMARK    1  A    between atoms: C_1  and  O_2
REMARK    2  A    between atoms: O_2  and  C_3
REMARK    3  A    between atoms: C_6  and  C_7
REMARK                            x       y       z     vdW  Elec       q    Type
REMARK                         _______ _______ _______ _____ _____    ______ ____
ROOT
ATOM      1  C   UNL     1       0.205  14.617  22.355  0.00  0.00    +0.000 C 
ATOM      2  O   UNL     1      -0.084  14.999  23.486  0.00  0.00    +0.000 OA
ATOM      3  N   UNL     1      -0.453  13.536  21.742  0.00  0.00    +0.000 N 
ATOM      4  C   UNL     1      -1.567  12.917  22.461  0.00  0.00    +0.000 C 
ATOM      5  C   UNL     1      -2.923  13.317  21.839  0.00  0.00    +0.000 C 
ATOM      6  C   UNL     1      -2.981  12.960  20.345  0.00  0.00    +0.000 C 
ATOM      7  C   UNL     1      -4.034  12.321  19.738  0.00  0.00    +0.000 C 
ATOM      8  C   UNL     1      -3.802  11.581  18.440  0.00  0.00    +0.000 A 
ATOM      9  C   UNL     1      -2.571  10.933  18.203  0.00  0.00    +0.000 A 
ATOM     10  C   UNL     1      -2.229  10.421  16.949  0.00  0.00    +0.000 A 
ATOM     11  C   UNL     1      -3.143  10.495  15.914  0.00  0.00    +0.000 A 
ATOM     12 CL   UNL     1      -2.709   9.971  14.336  0.00  0.00    +0.000 Cl
ATOM     13  C   UNL     1      -4.427  10.960  16.164  0.00  0.00    +0.000 A 
ATOM     14  C   UNL     1      -4.785  11.431  17.448  0.00  0.00    +0.000 A 
ATOM     15  C   UNL     1      -6.248  11.665  17.712  0.00  0.00    +0.000 C 
ATOM     16  C   UNL     1      -6.739  10.873  18.939  0.00  0.00    +0.000 C 
ATOM     17  C   UNL     1      -6.429  11.556  20.248  0.00  0.00    +0.000 A 
ATOM     18  C   UNL     1      -7.468  11.582  21.187  0.00  0.00    +0.000 A 
ATOM     19  C   UNL     1      -7.701  12.758  21.872  0.00  0.00    +0.000 A 
ATOM     20  C   UNL     1      -6.819  13.795  21.662  0.00  0.00    +0.000 A 
ATOM     21  N   UNL     1      -5.642  13.648  21.014  0.00  0.00    +0.000 NA
ATOM     22  C   UNL     1      -5.393  12.471  20.383  0.00  0.00    +0.000 A 
ATOM     23  C   UNL     1      -1.739  13.497  19.629  0.00  0.00    +0.000 C 
ATOM     24  C   UNL     1      -0.414  13.171  20.324  0.00  0.00    +0.000 C 
ENDROOT
BRANCH   1  28
ATOM     25  C   UNL     1       3.250  16.789  20.396  0.00  0.00    +0.000 A 
ATOM     26  C   UNL     1       1.960  17.289  20.365  0.00  0.00    +0.000 A 
ATOM     27  C   UNL     1       0.953  16.559  21.013  0.00  0.00    +0.000 A 
ATOM     28  C   UNL     1       1.271  15.362  21.661  0.00  0.00    +0.000 A 
ATOM     29  C   UNL     1       2.611  14.994  21.697  0.00  0.00    +0.000 A 
ATOM     30  N   UNL     1       3.604  15.666  21.050  0.00  0.00    +0.000 NA
BRANCH  25  32
ATOM     31  C   UNL     1       5.075  16.684  18.939  0.00  0.00    +0.000 C 
ATOM     32  O   UNL     1       4.201  17.511  19.703  0.00  0.00    +0.000 OA
ENDBRANCH  25  32
ENDBRANCH   1  28
TORSDOF 2
ENDMDL
MODEL 3
REMARK VINA RESULT:      -8.1      6.836      9.624
REMARK  Name = 
REMARK  3 active torsions:
REMARK  status: ('A' for Active; 'I' for Inactive)
REMARK    1  A    between atoms: C_1  and  O_2
REMARK    2  A    between atoms: O_2  and  C_3
REMARK    3  A    between atoms: C_6  and  C_7
REMARK                            x       y       z     vdW  Elec       q    Type
REMARK                         _______ _______ _______ _____ _____    ______ ____
ROOT
ATOM      1  C   UNL     1       1.172  14.289  21.664  0.00  0.00    +0.000 C 
ATOM      2  O   UNL     1       1.017  14.717  22.804  0.00  0.00    +0.000 OA
ATOM      3  N   UNL     1       0.369  13.263  21.137  0.00  0.00    +0.000 N 
ATOM      4  C   UNL     1      -0.732  12.764  21.962  0.00  0.00    +0.000 C 
ATOM      5  C   UNL     1      -2.093  13.278  21.444  0.00  0.00    +0.000 C 
ATOM      6  C   UNL     1      -2.311  12.899  19.970  0.00  0.00    +0.000 C 
ATOM      7  C   UNL     1      -3.466  12.350  19.470  0.00  0.00    +0.000 C 
ATOM      8  C   UNL     1      -3.414  11.567  18.178  0.00  0.00    +0.000 A 
ATOM      9  C   UNL     1      -2.272  10.803  17.856  0.00  0.00    +0.000 A 
ATOM     10  C   UNL     1      -2.086  10.238  16.592  0.00  0.00    +0.000 A 
ATOM     11  C   UNL     1      -3.074  10.377  15.635  0.00  0.00    +0.000 A 
ATOM     12 CL   UNL     1      -2.826   9.786  14.041  0.00  0.00    +0.000 Cl
ATOM     13  C   UNL     1      -4.285  10.965  15.979  0.00  0.00    +0.000 A 
ATOM     14  C   UNL     1      -4.488  11.491  17.275  0.00  0.00    +0.000 A 
ATOM     15  C   UNL     1      -5.896  11.865  17.653  0.00  0.00    +0.000 C 
ATOM     16  C   UNL     1      -6.350  11.146  18.937  0.00  0.00    +0.000 C 
ATOM     17  C   UNL     1      -5.869  11.821  20.197  0.00  0.00    +0.000 A 
ATOM     18  C   UNL     1      -6.816  11.961  21.218  0.00  0.00    +0.000 A 
ATOM     19  C   UNL     1      -6.883  13.167  21.890  0.00  0.00    +0.000 A 
ATOM     20  C   UNL     1      -5.931  14.113  21.579  0.00  0.00    +0.000 A 
ATOM     21  N   UNL     1      -4.831  13.845  20.840  0.00  0.00    +0.000 NA
ATOM     22  C   UNL     1      -4.745  12.638  20.222  0.00  0.00    +0.000 A 
ATOM     23  C   UNL     1      -1.091  13.305  19.140  0.00  0.00    +0.000 C 
ATOM     24  C   UNL     1       0.254  12.870  19.730  0.00  0.00    +0.000 C 
ENDROOT
BRANCH   1  28
ATOM     25  C   UNL     1       4.234  16.049  19.349  0.00  0.00    +0.000 A 
ATOM     26  C   UNL     1       4.538  14.926  20.098  0.00  0.00    +0.000 A 
ATOM     27  C   UNL     1       3.517  14.350  20.868  0.00  0.00    +0.000 A 
ATOM     28  C   UNL     1       2.240  14.918  20.864  0.00  0.00    +0.000 A 
ATOM     29  C   UNL     1       2.026  15.997  20.014  0.00  0.00    +0.000 A 
ATOM     30  N   UNL     1       3.005  16.596  19.279  0.00  0.00    +0.000 NA
BRANCH  25  32
ATOM     31  C   UNL     1       6.255  17.215  19.492  0.00  0.00    +0.000 C 
ATOM     32  O   UNL     1       5.279  16.614  18.645  0.00  0.00    +0.000 OA
ENDBRANCH  25  32
ENDBRANCH   1  28
TORSDOF 2
ENDMDL
MODEL 4
REMARK VINA RESULT:      -7.1      5.936      9.100
REMARK  Name = 
REMARK  3 active torsions:
REMARK  status: ('A' for Active; 'I' for Inactive)
REMARK    1  A    between atoms: C_1  and  O_2
REMARK    2  A    between atoms: O_2  and  C_3
REMARK    3  A    between atoms: C_6  and  C_7
REMARK                            x       y       z     vdW  Elec       q    Type
REMARK                         _______ _______ _______ _____ _____    ______ ____
ROOT
ATOM      1  C   UNL     1      -2.722  15.024  24.599  0.00  0.00    +0.000 C 
ATOM      2  O   UNL     1      -3.792  15.463  25.009  0.00  0.00    +0.000 OA
ATOM      3  N   UNL     1      -2.641  13.840  23.845  0.00  0.00    +0.000 N 
ATOM      4  C   UNL     1      -3.893  13.176  23.479  0.00  0.00    +0.000 C 
ATOM      5  C   UNL     1      -4.225  13.395  21.987  0.00  0.00    +0.000 C 
ATOM      6  C   UNL     1      -3.078  12.918  21.082  0.00  0.00    +0.000 C 
ATOM      7  C   UNL     1      -3.242  12.136  19.964  0.00  0.00    +0.000 C 
ATOM      8  C   UNL     1      -2.074  11.322  19.453  0.00  0.00    +0.000 A 
ATOM      9  C   UNL     1      -1.138  10.779  20.358  0.00  0.00    +0.000 A 
ATOM     10  C   UNL     1       0.063  10.205  19.932  0.00  0.00    +0.000 A 
ATOM     11  C   UNL     1       0.326  10.111  18.578  0.00  0.00    +0.000 A 
ATOM     12 CL   UNL     1       1.839   9.509  18.029  0.00  0.00    +0.000 Cl
ATOM     13  C   UNL     1      -0.654  10.469  17.661  0.00  0.00    +0.000 A 
ATOM     14  C   UNL     1      -1.888  11.002  18.098  0.00  0.00    +0.000 A 
ATOM     15  C   UNL     1      -2.989  11.115  17.078  0.00  0.00    +0.000 C 
ATOM     16  C   UNL     1      -4.263  10.379  17.532  0.00  0.00    +0.000 C 
ATOM     17  C   UNL     1      -5.109  11.188  18.483  0.00  0.00    +0.000 A 
ATOM     18  C   UNL     1      -6.486  11.188  18.231  0.00  0.00    +0.000 A 
ATOM     19  C   UNL     1      -7.168  12.386  18.317  0.00  0.00    +0.000 A 
ATOM     20  C   UNL     1      -6.460  13.483  18.756  0.00  0.00    +0.000 A 
ATOM     21  N   UNL     1      -5.228  13.399  19.308  0.00  0.00    +0.000 NA
ATOM     22  C   UNL     1      -4.581  12.206  19.268  0.00  0.00    +0.000 A 
ATOM     23  C   UNL     1      -1.751  13.514  21.559  0.00  0.00    +0.000 C 
ATOM     24  C   UNL     1      -1.495  13.372  23.063  0.00  0.00    +0.000 C 
ENDROOT
BRANCH   1  28
ATOM     25  C   UNL     1       0.697  17.318  25.536  0.00  0.00    +0.000 A 
ATOM     26  C   UNL     1       0.016  17.599  24.365  0.00  0.00    +0.000 A 
ATOM     27  C   UNL     1      -1.115  16.829  24.058  0.00  0.00    +0.000 A 
ATOM     28  C   UNL     1      -1.518  15.811  24.927  0.00  0.00    +0.000 A 
ATOM     29  C   UNL     1      -0.808  15.668  26.112  0.00  0.00    +0.000 A 
ATOM     30  N   UNL     1       0.312  16.379  26.422  0.00  0.00    +0.000 NA
BRANCH  25  32
ATOM     31  C   UNL     1       2.701  17.461  26.732  0.00  0.00    +0.000 C 
ATOM     32  O   UNL     1       1.834  18.065  25.775  0.00  0.00    +0.000 OA
ENDBRANCH  25  32
ENDBRANCH   1  28
TORSDOF 2
ENDMDL
MODEL 5
REMARK VINA RESULT:      -6.9      4.632     10.491
REMARK  Name = 
REMARK  3 active torsions:
REMARK  status: ('A' for Active; 'I' for Inactive)
REMARK    1  A    between atoms: C_1  and  O_2
REMARK    2  A    between atoms: O_2  and  C_3
REMARK    3  A    between atoms: C_6  and  C_7
REMARK                            x       y       z     vdW  Elec       q    Type
REMARK                         _______ _______ _______ _____ _____    ______ ____
ROOT
ATOM      1  C   UNL     1       0.018  10.380  18.886  0.00  0.00    +0.000 C 
ATOM      2  O   UNL     1      -1.171  10.181  19.122  0.00  0.00    +0.000 OA
ATOM      3  N   UNL     1       0.505  11.650  18.529  0.00  0.00    +0.000 N 
ATOM      4  C   UNL     1      -0.439  12.769  18.526  0.00  0.00    +0.000 C 
ATOM      5  C   UNL     1      -0.216  13.688  19.747  0.00  0.00    +0.000 C 
ATOM      6  C   UNL     1       1.230  14.204  19.804  0.00  0.00    +0.000 C 
ATOM      7  C   UNL     1       1.581  15.514  20.023  0.00  0.00    +0.000 C 
ATOM      8  C   UNL     1       2.938  16.002  19.569  0.00  0.00    +0.000 A 
ATOM      9  C   UNL     1       3.527  15.475  18.399  0.00  0.00    +0.000 A 
ATOM     10  C   UNL     1       4.856  15.732  18.055  0.00  0.00    +0.000 A 
ATOM     11  C   UNL     1       5.612  16.576  18.849  0.00  0.00    +0.000 A 
ATOM     12 CL   UNL     1       7.278  16.824  18.509  0.00  0.00    +0.000 Cl
ATOM     13  C   UNL     1       5.008  17.252  19.901  0.00  0.00    +0.000 A 
ATOM     14  C   UNL     1       3.649  17.027  20.215  0.00  0.00    +0.000 A 
ATOM     15  C   UNL     1       2.999  17.980  21.183  0.00  0.00    +0.000 C 
ATOM     16  C   UNL     1       1.739  18.630  20.582  0.00  0.00    +0.000 C 
ATOM     17  C   UNL     1       0.516  17.753  20.678  0.00  0.00    +0.000 A 
ATOM     18  C   UNL     1      -0.661  18.386  21.099  0.00  0.00    +0.000 A 
ATOM     19  C   UNL     1      -1.456  17.740  22.026  0.00  0.00    +0.000 A 
ATOM     20  C   UNL     1      -1.089  16.463  22.389  0.00  0.00    +0.000 A 
ATOM     21  N   UNL     1      -0.149  15.746  21.733  0.00  0.00    +0.000 NA
ATOM     22  C   UNL     1       0.597  16.370  20.786  0.00  0.00    +0.000 A 
ATOM     23  C   UNL     1       2.209  13.035  19.668  0.00  0.00    +0.000 C 
ATOM     24  C   UNL     1       1.904  12.082  18.509  0.00  0.00    +0.000 C 
ENDROOT
BRANCH   1  28
ATOM     25  C   UNL     1       2.630   7.081  19.230  0.00  0.00    +0.000 A 
ATOM     26  C   UNL     1       2.501   7.693  17.995  0.00  0.00    +0.000 A 
ATOM     27  C   UNL     1       1.627   8.785  17.888  0.00  0.00    +0.000 A 
ATOM     28  C   UNL     1       0.917   9.219  19.011  0.00  0.00    +0.000 A 
ATOM     29  C   UNL     1       1.183   8.582  20.217  0.00  0.00    +0.000 A 
ATOM     30  N   UNL     1       2.002   7.500  20.345  0.00  0.00    +0.000 NA
BRANCH  25  32
ATOM     31  C   UNL     1       3.513   5.269  18.046  0.00  0.00    +0.000 C 
ATOM     32  O   UNL     1       3.462   5.980  19.281  0.00  0.00    +0.000 OA
ENDBRANCH  25  32
ENDBRANCH   1  28
TORSDOF 2
ENDMDL
MODEL 6
REMARK VINA RESULT:      -6.8      3.052      5.090
REMARK  Name = 
REMARK  3 active torsions:
REMARK  status: ('A' for Active; 'I' for Inactive)
REMARK    1  A    between atoms: C_1  and  O_2
REMARK    2  A    between atoms: O_2  and  C_3
REMARK    3  A    between atoms: C_6  and  C_7
REMARK                            x       y       z     vdW  Elec       q    Type
REMARK                         _______ _______ _______ _____ _____    ______ ____
ROOT
ATOM      1  C   UNL     1      -0.081   9.432  20.021  0.00  0.00    +0.000 C 
ATOM      2  O   UNL     1      -0.626   9.406  21.121  0.00  0.00    +0.000 OA
ATOM      3  N   UNL     1       1.139   8.777  19.777  0.00  0.00    +0.000 N 
ATOM      4  C   UNL     1       1.714   7.977  20.859  0.00  0.00    +0.000 C 
ATOM      5  C   UNL     1       1.537   6.467  20.589  0.00  0.00    +0.000 C 
ATOM      6  C   UNL     1       2.148   6.063  19.238  0.00  0.00    +0.000 C 
ATOM      7  C   UNL     1       2.965   4.975  19.047  0.00  0.00    +0.000 C 
ATOM      8  C   UNL     1       3.895   4.949  17.855  0.00  0.00    +0.000 A 
ATOM      9  C   UNL     1       4.471   6.145  17.378  0.00  0.00    +0.000 A 
ATOM     10  C   UNL     1       5.161   6.207  16.164  0.00  0.00    +0.000 A 
ATOM     11  C   UNL     1       5.339   5.051  15.426  0.00  0.00    +0.000 A 
ATOM     12 CL   UNL     1       6.088   5.117  13.881  0.00  0.00    +0.000 Cl
ATOM     13  C   UNL     1       4.944   3.830  15.956  0.00  0.00    +0.000 A 
ATOM     14  C   UNL     1       4.291   3.766  17.208  0.00  0.00    +0.000 A 
ATOM     15  C   UNL     1       4.135   2.406  17.835  0.00  0.00    +0.000 C 
ATOM     16  C   UNL     1       4.743   2.358  19.249  0.00  0.00    +0.000 C 
ATOM     17  C   UNL     1       3.824   2.914  20.309  0.00  0.00    +0.000 A 
ATOM     18  C   UNL     1       3.722   2.164  21.487  0.00  0.00    +0.000 A 
ATOM     19  C   UNL     1       2.469   1.974  22.036  0.00  0.00    +0.000 A 
ATOM     20  C   UNL     1       1.415   2.632  21.443  0.00  0.00    +0.000 A 
ATOM     21  N   UNL     1       1.575   3.607  20.519  0.00  0.00    +0.000 NA
ATOM     22  C   UNL     1       2.817   3.826  20.018  0.00  0.00    +0.000 A 
ATOM     23  C   UNL     1       1.642   6.996  18.135  0.00  0.00    +0.000 C 
ATOM     24  C   UNL     1       1.736   8.487  18.471  0.00  0.00    +0.000 C 
ENDROOT
BRANCH   1  28
ATOM     25  C   UNL     1      -2.127  11.550  16.995  0.00  0.00    +0.000 A 
ATOM     26  C   UNL     1      -2.322  10.184  17.089  0.00  0.00    +0.000 A 
ATOM     27  C   UNL     1      -1.635   9.486  18.094  0.00  0.00    +0.000 A 
ATOM     28  C   UNL     1      -0.780  10.177  18.958  0.00  0.00    +0.000 A 
ATOM     29  C   UNL     1      -0.720  11.559  18.824  0.00  0.00    +0.000 A 
ATOM     30  N   UNL     1      -1.351  12.258  17.839  0.00  0.00    +0.000 NA
BRANCH  25  32
ATOM     31  C   UNL     1      -3.743  11.358  15.317  0.00  0.00    +0.000 C 
ATOM     32  O   UNL     1      -2.782  12.190  15.962  0.00  0.00    +0.000 OA
ENDBRANCH  25  32
ENDBRANCH   1  28
TORSDOF 2
ENDMDL
MODEL 7
REMARK VINA RESULT:      -6.7      8.539     10.353
REMARK  Name = 
REMARK  3 active torsions:
REMARK  status: ('A' for Active; 'I' for Inactive)
REMARK    1  A    between atoms: C_1  and  O_2
REMARK    2  A    between atoms: O_2  and  C_3
REMARK    3  A    between atoms: C_6  and  C_7
REMARK                            x       y       z     vdW  Elec       q    Type
REMARK                         _______ _______ _______ _____ _____    ______ ____
ROOT
ATOM      1  C   UNL     1       7.606  12.721  25.824  0.00  0.00    +0.000 C 
ATOM      2  O   UNL     1       8.742  12.647  26.286  0.00  0.00    +0.000 OA
ATOM      3  N   UNL     1       7.260  13.664  24.841  0.00  0.00    +0.000 N 
ATOM      4  C   UNL     1       8.323  14.518  24.309  0.00  0.00    +0.000 C 
ATOM      5  C   UNL     1       8.732  14.077  22.886  0.00  0.00    +0.000 C 
ATOM      6  C   UNL     1       7.525  14.063  21.935  0.00  0.00    +0.000 C 
ATOM      7  C   UNL     1       7.521  14.609  20.674  0.00  0.00    +0.000 C 
ATOM      8  C   UNL     1       6.204  14.993  20.039  0.00  0.00    +0.000 A 
ATOM      9  C   UNL     1       5.144  15.473  20.837  0.00  0.00    +0.000 A 
ATOM     10  C   UNL     1       3.851  15.639  20.335  0.00  0.00    +0.000 A 
ATOM     11  C   UNL     1       3.603  15.381  18.999  0.00  0.00    +0.000 A 
ATOM     12 CL   UNL     1       2.003  15.473  18.381  0.00  0.00    +0.000 Cl
ATOM     13  C   UNL     1       4.661  15.084  18.150  0.00  0.00    +0.000 A 
ATOM     14  C   UNL     1       5.977  14.967  18.653  0.00  0.00    +0.000 A 
ATOM     15  C   UNL     1       7.096  14.910  17.647  0.00  0.00    +0.000 C 
ATOM     16  C   UNL     1       8.144  16.010  17.900  0.00  0.00    +0.000 C 
ATOM     17  C   UNL     1       9.138  15.646  18.974  0.00  0.00    +0.000 A 
ATOM     18  C   UNL     1      10.480  15.924  18.688  0.00  0.00    +0.000 A 
ATOM     19  C   UNL     1      11.429  14.970  19.003  0.00  0.00    +0.000 A 
ATOM     20  C   UNL     1      10.995  13.852  19.682  0.00  0.00    +0.000 A 
ATOM     21  N   UNL     1       9.768  13.752  20.240  0.00  0.00    +0.000 NA
ATOM     22  C   UNL     1       8.853  14.719  19.969  0.00  0.00    +0.000 A 
ATOM     23  C   UNL     1       6.371  13.280  22.565  0.00  0.00    +0.000 C 
ATOM     24  C   UNL     1       6.053  13.669  24.012  0.00  0.00    +0.000 C 
ENDROOT
BRANCH   1  28
ATOM     25  C   UNL     1       4.772   9.986  27.345  0.00  0.00    +0.000 A 
ATOM     26  C   UNL     1       5.774  10.433  28.189  0.00  0.00    +0.000 A 
ATOM     27  C   UNL     1       6.714  11.338  27.674  0.00  0.00    +0.000 A 
ATOM     28  C   UNL     1       6.621  11.754  26.343  0.00  0.00    +0.000 A 
ATOM     29  C   UNL     1       5.530  11.303  25.610  0.00  0.00    +0.000 A 
ATOM     30  N   UNL     1       4.619  10.402  26.073  0.00  0.00    +0.000 NA
BRANCH  25  32
ATOM     31  C   UNL     1       4.558   8.033  28.612  0.00  0.00    +0.000 C 
ATOM     32  O   UNL     1       3.897   9.059  27.876  0.00  0.00    +0.000 OA
ENDBRANCH  25  32
ENDBRANCH   1  28
TORSDOF 2
ENDMDL
MODEL 8
REMARK VINA RESULT:      -6.7      8.762     10.449
REMARK  Name = 
REMARK  3 active torsions:
REMARK  status: ('A' for Active; 'I' for Inactive)
REMARK    1  A    between atoms: C_1  and  O_2
REMARK    2  A    between atoms: O_2  and  C_3
REMARK    3  A    between atoms: C_6  and  C_7
REMARK                            x       y       z     vdW  Elec       q    Type
REMARK                         _______ _______ _______ _____ _____    ______ ____
ROOT
ATOM      1  C   UNL     1       7.713  13.581  25.836  0.00  0.00    +0.000 C 
ATOM      2  O   UNL     1       8.785  13.415  26.412  0.00  0.00    +0.000 OA
ATOM      3  N   UNL     1       7.597  14.394  24.695  0.00  0.00    +0.000 N 
ATOM      4  C   UNL     1       8.820  14.982  24.147  0.00  0.00    +0.000 C 
ATOM      5  C   UNL     1       9.253  14.260  22.853  0.00  0.00    +0.000 C 
ATOM      6  C   UNL     1       8.132  14.273  21.802  0.00  0.00    +0.000 C 
ATOM      7  C   UNL     1       8.308  14.601  20.480  0.00  0.00    +0.000 C 
ATOM      8  C   UNL     1       7.121  15.069  19.669  0.00  0.00    +0.000 A 
ATOM      9  C   UNL     1       6.098  15.826  20.280  0.00  0.00    +0.000 A 
ATOM     10  C   UNL     1       4.889  16.100  19.637  0.00  0.00    +0.000 A 
ATOM     11  C   UNL     1       4.700  15.668  18.336  0.00  0.00    +0.000 A 
ATOM     12 CL   UNL     1       3.185  15.897  17.559  0.00  0.00    +0.000 Cl
ATOM     13  C   UNL     1       5.754  15.083  17.647  0.00  0.00    +0.000 A 
ATOM     14  C   UNL     1       6.993  14.853  18.287  0.00  0.00    +0.000 A 
ATOM     15  C   UNL     1       8.158  14.468  17.414  0.00  0.00    +0.000 C 
ATOM     16  C   UNL     1       9.350  15.424  17.601  0.00  0.00    +0.000 C 
ATOM     17  C   UNL     1      10.191  15.095  18.809  0.00  0.00    +0.000 A 
ATOM     18  C   UNL     1      11.578  15.119  18.616  0.00  0.00    +0.000 A 
ATOM     19  C   UNL     1      12.333  14.098  19.160  0.00  0.00    +0.000 A 
ATOM     20  C   UNL     1      11.676  13.183  19.951  0.00  0.00    +0.000 A 
ATOM     21  N   UNL     1      10.411  13.359  20.397  0.00  0.00    +0.000 NA
ATOM     22  C   UNL     1       9.688  14.395  19.898  0.00  0.00    +0.000 A 
ATOM     23  C   UNL     1       6.823  13.783  22.426  0.00  0.00    +0.000 C 
ATOM     24  C   UNL     1       6.469  14.445  23.761  0.00  0.00    +0.000 C 
ENDROOT
BRANCH   1  28
ATOM     25  C   UNL     1       4.408  11.512  27.457  0.00  0.00    +0.000 A 
ATOM     26  C   UNL     1       5.233  10.844  26.569  0.00  0.00    +0.000 A 
ATOM     27  C   UNL     1       6.325  11.539  26.031  0.00  0.00    +0.000 A 
ATOM     28  C   UNL     1       6.548  12.870  26.396  0.00  0.00    +0.000 A 
ATOM     29  C   UNL     1       5.704  13.417  27.354  0.00  0.00    +0.000 A 
ATOM     30  N   UNL     1       4.618  12.777  27.870  0.00  0.00    +0.000 NA
BRANCH  25  32
ATOM     31  C   UNL     1       3.134   9.563  27.254  0.00  0.00    +0.000 C 
ATOM     32  O   UNL     1       3.316  10.807  27.924  0.00  0.00    +0.000 OA
ENDBRANCH  25  32
ENDBRANCH   1  28
TORSDOF 2
ENDMDL
MODEL 9
REMARK VINA RESULT:      -6.7      4.053     10.738
REMARK  Name = 
REMARK  3 active torsions:
REMARK  status: ('A' for Active; 'I' for Inactive)
REMARK    1  A    between atoms: C_1  and  O_2
REMARK    2  A    between atoms: O_2  and  C_3
REMARK    3  A    between atoms: C_6  and  C_7
REMARK                            x       y       z     vdW  Elec       q    Type
REMARK                         _______ _______ _______ _____ _____    ______ ____
ROOT
ATOM      1  C   UNL     1       0.742   9.707  21.694  0.00  0.00    +0.000 C 
ATOM      2  O   UNL     1       1.489   9.688  22.668  0.00  0.00    +0.000 OA
ATOM      3  N   UNL     1      -0.589  10.153  21.783  0.00  0.00    +0.000 N 
ATOM      4  C   UNL     1      -1.048  10.682  23.067  0.00  0.00    +0.000 C 
ATOM      5  C   UNL     1      -1.167  12.221  23.024  0.00  0.00    +0.000 C 
ATOM      6  C   UNL     1      -2.096  12.680  21.890  0.00  0.00    +0.000 C 
ATOM      7  C   UNL     1      -3.093  13.615  22.030  0.00  0.00    +0.000 C 
ATOM      8  C   UNL     1      -4.240  13.626  21.045  0.00  0.00    +0.000 A 
ATOM      9  C   UNL     1      -4.709  12.417  20.487  0.00  0.00    +0.000 A 
ATOM     10  C   UNL     1      -5.614  12.390  19.423  0.00  0.00    +0.000 A 
ATOM     11  C   UNL     1      -6.117  13.580  18.930  0.00  0.00    +0.000 A 
ATOM     12 CL   UNL     1      -7.146  13.583  17.554  0.00  0.00    +0.000 Cl
ATOM     13  C   UNL     1      -5.816  14.773  19.575  0.00  0.00    +0.000 A 
ATOM     14  C   UNL     1      -4.939  14.790  20.684  0.00  0.00    +0.000 A 
ATOM     15  C   UNL     1      -4.871  16.060  21.489  0.00  0.00    +0.000 C 
ATOM     16  C   UNL     1      -5.177  15.808  22.977  0.00  0.00    +0.000 C 
ATOM     17  C   UNL     1      -3.986  15.297  23.749  0.00  0.00    +0.000 A 
ATOM     18  C   UNL     1      -3.763  15.890  24.997  0.00  0.00    +0.000 A 
ATOM     19  C   UNL     1      -2.469  16.234  25.338  0.00  0.00    +0.000 A 
ATOM     20  C   UNL     1      -1.470  15.865  24.465  0.00  0.00    +0.000 A 
ATOM     21  N   UNL     1      -1.661  15.009  23.436  0.00  0.00    +0.000 NA
ATOM     22  C   UNL     1      -2.931  14.632  23.135  0.00  0.00    +0.000 A 
ATOM     23  C   UNL     1      -1.688  12.011  20.575  0.00  0.00    +0.000 C 
ATOM     24  C   UNL     1      -1.478  10.497  20.671  0.00  0.00    +0.000 C 
ENDROOT
BRANCH   1  28
ATOM     25  C   UNL     1       2.353   8.366  18.029  0.00  0.00    +0.000 A 
ATOM     26  C   UNL     1       2.306   7.480  19.091  0.00  0.00    +0.000 A 
ATOM     27  C   UNL     1       1.774   7.935  20.306  0.00  0.00    +0.000 A 
ATOM     28  C   UNL     1       1.316   9.251  20.414  0.00  0.00    +0.000 A 
ATOM     29  C   UNL     1       1.338  10.029  19.263  0.00  0.00    +0.000 A 
ATOM     30  N   UNL     1       1.876   9.625  18.079  0.00  0.00    +0.000 NA
BRANCH  25  32
ATOM     31  C   UNL     1       4.072   7.077  17.107  0.00  0.00    +0.000 C 
ATOM     32  O   UNL     1       2.930   7.894  16.866  0.00  0.00    +0.000 OA
ENDBRANCH  25  32
ENDBRANCH   1  28
TORSDOF 2
ENDMDL
