MODEL 1
REMARK VINA RESULT:      -8.2      0.000      0.000
REMARK  Name = 
REMARK  10 active torsions:
REMARK  status: ('A' for Active; 'I' for Inactive)
REMARK    1  A    between atoms: C_1  and  C_2
REMARK    2  A    between atoms: N_3  and  C_4
REMARK    3  A    between atoms: C_4  and  C_5
REMARK    4  A    between atoms: C_5  and  C_6
REMARK    5  A    between atoms: C_6  and  C_7
REMARK    6  A    between atoms: C_7  and  C_8
REMARK    7  A    between atoms: C_7  and  C_11
REMARK    8  A    between atoms: C_7  and  C_17
REMARK    9  A    between atoms: N_25  and  C_26
REMARK   10  A    between atoms: C_26  and  C_27
REMARK                            x       y       z     vdW  Elec       q    Type
REMARK                         _______ _______ _______ _____ _____    ______ ____
ROOT
ATOM      1  C   UNL     1       4.275   4.847  18.652  0.00  0.00    +0.000 C 
ENDROOT
BRANCH   1   2
ATOM      2  C   UNL     1       2.925   4.057  18.895  0.00  0.00    +0.000 A 
ATOM      3  C   UNL     1       2.108   3.598  17.840  0.00  0.00    +0.000 A 
ATOM      4  C   UNL     1       0.899   2.934  18.063  0.00  0.00    +0.000 A 
ATOM      5  C   UNL     1       0.435   2.741  19.356  0.00  0.00    +0.000 A 
ATOM      6  C   UNL     1       1.185   3.224  20.423  0.00  0.00    +0.000 A 
ATOM      7  C   UNL     1       2.398   3.882  20.196  0.00  0.00    +0.000 A 
ENDBRANCH   1   2
BRANCH   1   8
ATOM      8  C   UNL     1       4.694   4.920  17.136  0.00  0.00    +0.000 A 
ATOM      9  C   UNL     1       5.019   3.786  16.365  0.00  0.00    +0.000 A 
ATOM     10  C   UNL     1       5.594   3.902  15.095  0.00  0.00    +0.000 A 
ATOM     11  C   UNL     1       5.790   5.156  14.533  0.00  0.00    +0.000 A 
ATOM     12  C   UNL     1       5.335   6.284  15.206  0.00  0.00    +0.000 A 
ATOM     13  C   UNL     1       4.758   6.164  16.475  0.00  0.00    +0.000 A 
ENDBRANCH   1   8
BRANCH   1  14
ATOM     14  C   UNL     1       5.512   4.260  19.431  0.00  0.00    +0.000 C 
ATOM     15  N   UNL     1       5.538   2.943  19.788  0.00  0.00    +0.000 N 
ATOM     16  O   UNL     1       6.425   4.969  19.862  0.00  0.00    +0.000 OA
ATOM     17  H   UNL     1       5.140   2.237  19.184  0.00  0.00    +0.000 HD
ATOM     18  H   UNL     1       6.398   2.661  20.250  0.00  0.00    +0.000 HD
ENDBRANCH   1  14
BRANCH   1  19
ATOM     19  C   UNL     1       4.052   6.291  19.269  0.00  0.00    +0.000 C 
BRANCH  19  20
ATOM     20  C   UNL     1       2.674   6.894  18.924  0.00  0.00    +0.000 C 
BRANCH  20  21
ATOM     21  C   UNL     1       1.980   7.589  20.092  0.00  0.00    +0.000 C 
BRANCH  21  24
ATOM     22  C   UNL     1      -0.213   9.210  21.661  0.00  0.00    +0.000 C 
ATOM     23  C   UNL     1       0.385   9.545  20.332  0.00  0.00    +0.000 A 
ATOM     24  N   UNL     1       1.370   8.876  19.677  0.00  0.00    +0.000 N 
ATOM     25  C   UNL     1       1.746   9.612  18.559  0.00  0.00    +0.000 A 
ATOM     26  C   UNL     1       0.915  10.683  18.478  0.00  0.00    +0.000 A 
ATOM     27  N   UNL     1       0.053  10.602  19.556  0.00  0.00    +0.000 N 
BRANCH  27  28
ATOM     28  C   UNL     1      -1.033  11.554  19.819  0.00  0.00    +0.000 C 
BRANCH  28  29
ATOM     29  C   UNL     1      -2.198  11.280  18.903  0.00  0.00    +0.000 A 
ATOM     30  C   UNL     1      -2.126  10.247  17.954  0.00  0.00    +0.000 A 
ATOM     31  C   UNL     1      -3.220   9.950  17.140  0.00  0.00    +0.000 A 
ATOM     32  C   UNL     1      -4.400  10.679  17.260  0.00  0.00    +0.000 A 
ATOM     33  C   UNL     1      -4.488  11.705  18.190  0.00  0.00    +0.000 A 
ATOM     34  C   UNL     1      -3.397  12.005  19.011  0.00  0.00    +0.000 A 
ENDBRANCH  28  29
ENDBRANCH  27  28
ENDBRANCH  21  24
ENDBRANCH  20  21
ENDBRANCH  19  20
ENDBRANCH   1  19
TORSDOF 9
ENDMDL
MODEL 2
REMARK VINA RESULT:      -8.1      2.353      4.516
REMARK  Name = 
REMARK  10 active torsions:
REMARK  status: ('A' for Active; 'I' for Inactive)
REMARK    1  A    between atoms: C_1  and  C_2
REMARK    2  A    between atoms: N_3  and  C_4
REMARK    3  A    between atoms: C_4  and  C_5
REMARK    4  A    between atoms: C_5  and  C_6
REMARK    5  A    between atoms: C_6  and  C_7
REMARK    6  A    between atoms: C_7  and  C_8
REMARK    7  A    between atoms: C_7  and  C_11
REMARK    8  A    between atoms: C_7  and  C_17
REMARK    9  A    between atoms: N_25  and  C_26
REMARK   10  A    between atoms: C_26  and  C_27
REMARK                            x       y       z     vdW  Elec       q    Type
REMARK                         _______ _______ _______ _____ _____    ______ ____
ROOT
ATOM      1  C   UNL     1       3.900   5.045  18.129  0.00  0.00    +0.000 C 
ENDROOT
BRANCH   1   2
ATOM      2  C   UNL     1       5.322   5.731  18.248  0.00  0.00    +0.000 A 
ATOM      3  C   UNL     1       5.774   6.713  17.342  0.00  0.00    +0.000 A 
ATOM      4  C   UNL     1       7.045   7.287  17.431  0.00  0.00    +0.000 A 
ATOM      5  C   UNL     1       7.934   6.867  18.409  0.00  0.00    +0.000 A 
ATOM      6  C   UNL     1       7.547   5.863  19.291  0.00  0.00    +0.000 A 
ATOM      7  C   UNL     1       6.271   5.297  19.203  0.00  0.00    +0.000 A 
ENDBRANCH   1   2
BRANCH   1   8
ATOM      8  C   UNL     1       3.449   4.306  19.445  0.00  0.00    +0.000 A 
ATOM      9  C   UNL     1       4.017   3.095  19.889  0.00  0.00    +0.000 A 
ATOM     10  C   UNL     1       3.450   2.358  20.934  0.00  0.00    +0.000 A 
ATOM     11  C   UNL     1       2.342   2.850  21.609  0.00  0.00    +0.000 A 
ATOM     12  C   UNL     1       1.856   4.114  21.294  0.00  0.00    +0.000 A 
ATOM     13  C   UNL     1       2.428   4.850  20.250  0.00  0.00    +0.000 A 
ENDBRANCH   1   8
BRANCH   1  14
ATOM     14  C   UNL     1       3.790   3.991  16.963  0.00  0.00    +0.000 C 
ATOM     15  N   UNL     1       2.653   3.252  16.808  0.00  0.00    +0.000 N 
ATOM     16  O   UNL     1       4.745   3.696  16.241  0.00  0.00    +0.000 OA
ATOM     17  H   UNL     1       1.745   3.655  17.000  0.00  0.00    +0.000 HD
ATOM     18  H   UNL     1       2.673   2.634  16.002  0.00  0.00    +0.000 HD
ENDBRANCH   1  14
BRANCH   1  19
ATOM     19  C   UNL     1       2.891   6.201  17.730  0.00  0.00    +0.000 C 
BRANCH  19  20
ATOM     20  C   UNL     1       2.742   7.282  18.821  0.00  0.00    +0.000 C 
BRANCH  20  21
ATOM     21  C   UNL     1       1.888   8.479  18.411  0.00  0.00    +0.000 C 
BRANCH  21  24
ATOM     22  C   UNL     1       1.153  11.536  18.523  0.00  0.00    +0.000 C 
ATOM     23  C   UNL     1       1.120  10.553  19.650  0.00  0.00    +0.000 A 
ATOM     24  N   UNL     1       1.385   9.222  19.593  0.00  0.00    +0.000 N 
ATOM     25  C   UNL     1       1.077   8.649  20.822  0.00  0.00    +0.000 A 
ATOM     26  C   UNL     1       0.719   9.655  21.660  0.00  0.00    +0.000 A 
ATOM     27  N   UNL     1       0.793  10.829  20.933  0.00  0.00    +0.000 N 
BRANCH  27  28
ATOM     28  C   UNL     1       0.519  12.161  21.483  0.00  0.00    +0.000 C 
BRANCH  28  29
ATOM     29  C   UNL     1      -0.959  12.329  21.726  0.00  0.00    +0.000 A 
ATOM     30  C   UNL     1      -1.821  12.642  20.663  0.00  0.00    +0.000 A 
ATOM     31  C   UNL     1      -3.199  12.743  20.868  0.00  0.00    +0.000 A 
ATOM     32  C   UNL     1      -3.734  12.537  22.137  0.00  0.00    +0.000 A 
ATOM     33  C   UNL     1      -2.896  12.231  23.200  0.00  0.00    +0.000 A 
ATOM     34  C   UNL     1      -1.517  12.123  22.999  0.00  0.00    +0.000 A 
ENDBRANCH  28  29
ENDBRANCH  27  28
ENDBRANCH  21  24
ENDBRANCH  20  21
ENDBRANCH  19  20
ENDBRANCH   1  19
TORSDOF 9
ENDMDL
MODEL 3
REMARK VINA RESULT:      -8.0      0.804      1.303
REMARK  Name = 
REMARK  10 active torsions:
REMARK  status: ('A' for Active; 'I' for Inactive)
REMARK    1  A    between atoms: C_1  and  C_2
REMARK    2  A    between atoms: N_3  and  C_4
REMARK    3  A    between atoms: C_4  and  C_5
REMARK    4  A    between atoms: C_5  and  C_6
REMARK    5  A    between atoms: C_6  and  C_7
REMARK    6  A    between atoms: C_7  and  C_8
REMARK    7  A    between atoms: C_7  and  C_11
REMARK    8  A    between atoms: C_7  and  C_17
REMARK    9  A    between atoms: N_25  and  C_26
REMARK   10  A    between atoms: C_26  and  C_27
REMARK                            x       y       z     vdW  Elec       q    Type
REMARK                         _______ _______ _______ _____ _____    ______ ____
ROOT
ATOM      1  C   UNL     1       4.213   4.917  18.719  0.00  0.00    +0.000 C 
ENDROOT
BRANCH   1   2
ATOM      2  C   UNL     1       2.883   4.092  18.957  0.00  0.00    +0.000 A 
ATOM      3  C   UNL     1       2.035   3.688  17.903  0.00  0.00    +0.000 A 
ATOM      4  C   UNL     1       0.844   2.993  18.125  0.00  0.00    +0.000 A 
ATOM      5  C   UNL     1       0.430   2.710  19.418  0.00  0.00    +0.000 A 
ATOM      6  C   UNL     1       1.210   3.136  20.488  0.00  0.00    +0.000 A 
ATOM      7  C   UNL     1       2.406   3.825  20.262  0.00  0.00    +0.000 A 
ENDBRANCH   1   2
BRANCH   1   8
ATOM      8  C   UNL     1       4.607   5.044  17.200  0.00  0.00    +0.000 A 
ATOM      9  C   UNL     1       4.908   3.938  16.380  0.00  0.00    +0.000 A 
ATOM     10  C   UNL     1       5.463   4.097  15.106  0.00  0.00    +0.000 A 
ATOM     11  C   UNL     1       5.662   5.370  14.590  0.00  0.00    +0.000 A 
ATOM     12  C   UNL     1       5.230   6.476  15.313  0.00  0.00    +0.000 A 
ATOM     13  C   UNL     1       4.673   6.312  16.587  0.00  0.00    +0.000 A 
ENDBRANCH   1   8
BRANCH   1  14
ATOM     14  C   UNL     1       5.474   4.333  19.462  0.00  0.00    +0.000 C 
ATOM     15  N   UNL     1       6.630   5.057  19.528  0.00  0.00    +0.000 N 
ATOM     16  O   UNL     1       5.518   3.177  19.888  0.00  0.00    +0.000 OA
ATOM     17  H   UNL     1       6.604   6.063  19.624  0.00  0.00    +0.000 HD
ATOM     18  H   UNL     1       7.365   4.605  20.064  0.00  0.00    +0.000 HD
ENDBRANCH   1  14
BRANCH   1  19
ATOM     19  C   UNL     1       3.970   6.336  19.382  0.00  0.00    +0.000 C 
BRANCH  19  20
ATOM     20  C   UNL     1       2.478   6.723  19.462  0.00  0.00    +0.000 C 
BRANCH  20  21
ATOM     21  C   UNL     1       2.089   7.480  20.730  0.00  0.00    +0.000 C 
BRANCH  21  24
ATOM     22  C   UNL     1       1.894   9.182  18.090  0.00  0.00    +0.000 C 
ATOM     23  C   UNL     1       1.061   9.322  19.325  0.00  0.00    +0.000 A 
ATOM     24  N   UNL     1       1.107   8.555  20.445  0.00  0.00    +0.000 N 
ATOM     25  C   UNL     1       0.056   8.915  21.280  0.00  0.00    +0.000 A 
ATOM     26  C   UNL     1      -0.570   9.977  20.710  0.00  0.00    +0.000 A 
ATOM     27  N   UNL     1       0.090  10.242  19.525  0.00  0.00    +0.000 N 
BRANCH  27  28
ATOM     28  C   UNL     1      -0.252  11.344  18.617  0.00  0.00    +0.000 C 
BRANCH  28  29
ATOM     29  C   UNL     1      -1.634  11.140  18.051  0.00  0.00    +0.000 A 
ATOM     30  C   UNL     1      -1.862  10.158  17.073  0.00  0.00    +0.000 A 
ATOM     31  C   UNL     1      -3.149   9.924  16.584  0.00  0.00    +0.000 A 
ATOM     32  C   UNL     1      -4.225  10.668  17.062  0.00  0.00    +0.000 A 
ATOM     33  C   UNL     1      -4.017  11.644  18.026  0.00  0.00    +0.000 A 
ATOM     34  C   UNL     1      -2.732  11.880  18.523  0.00  0.00    +0.000 A 
ENDBRANCH  28  29
ENDBRANCH  27  28
ENDBRANCH  21  24
ENDBRANCH  20  21
ENDBRANCH  19  20
ENDBRANCH   1  19
TORSDOF 9
ENDMDL
MODEL 4
REMARK VINA RESULT:      -8.0      1.811      3.940
REMARK  Name = 
REMARK  10 active torsions:
REMARK  status: ('A' for Active; 'I' for Inactive)
REMARK    1  A    between atoms: C_1  and  C_2
REMARK    2  A    between atoms: N_3  and  C_4
REMARK    3  A    between atoms: C_4  and  C_5
REMARK    4  A    between atoms: C_5  and  C_6
REMARK    5  A    between atoms: C_6  and  C_7
REMARK    6  A    between atoms: C_7  and  C_8
REMARK    7  A    between atoms: C_7  and  C_11
REMARK    8  A    between atoms: C_7  and  C_17
REMARK    9  A    between atoms: N_25  and  C_26
REMARK   10  A    between atoms: C_26  and  C_27
REMARK                            x       y       z     vdW  Elec       q    Type
REMARK                         _______ _______ _______ _____ _____    ______ ____
ROOT
ATOM      1  C   UNL     1       3.751   4.801  18.218  0.00  0.00    +0.000 C 
ENDROOT
BRANCH   1   2
ATOM      2  C   UNL     1       5.157   5.529  18.273  0.00  0.00    +0.000 A 
ATOM      3  C   UNL     1       5.603   6.406  17.261  0.00  0.00    +0.000 A 
ATOM      4  C   UNL     1       6.860   7.015  17.298  0.00  0.00    +0.000 A 
ATOM      5  C   UNL     1       7.742   6.735  18.332  0.00  0.00    +0.000 A 
ATOM      6  C   UNL     1       7.361   5.836  19.323  0.00  0.00    +0.000 A 
ATOM      7  C   UNL     1       6.099   5.235  19.286  0.00  0.00    +0.000 A 
ENDBRANCH   1   2
BRANCH   1   8
ATOM      8  C   UNL     1       3.376   4.061  19.556  0.00  0.00    +0.000 A 
ATOM      9  C   UNL     1       4.002   2.875  19.989  0.00  0.00    +0.000 A 
ATOM     10  C   UNL     1       3.500   2.130  21.062  0.00  0.00    +0.000 A 
ATOM     11  C   UNL     1       2.403   2.591  21.774  0.00  0.00    +0.000 A 
ATOM     12  C   UNL     1       1.862   3.835  21.466  0.00  0.00    +0.000 A 
ATOM     13  C   UNL     1       2.368   4.579  20.395  0.00  0.00    +0.000 A 
ENDBRANCH   1   8
BRANCH   1  14
ATOM     14  C   UNL     1       3.625   3.735  17.064  0.00  0.00    +0.000 C 
ATOM     15  N   UNL     1       4.744   3.244  16.455  0.00  0.00    +0.000 N 
ATOM     16  O   UNL     1       2.540   3.404  16.580  0.00  0.00    +0.000 OA
ATOM     17  H   UNL     1       5.593   3.089  16.983  0.00  0.00    +0.000 HD
ATOM     18  H   UNL     1       4.551   2.534  15.756  0.00  0.00    +0.000 HD
ENDBRANCH   1  14
BRANCH   1  19
ATOM     19  C   UNL     1       2.694   5.924  17.852  0.00  0.00    +0.000 C 
BRANCH  19  20
ATOM     20  C   UNL     1       2.992   7.282  18.521  0.00  0.00    +0.000 C 
BRANCH  20  21
ATOM     21  C   UNL     1       1.887   7.787  19.445  0.00  0.00    +0.000 C 
BRANCH  21  24
ATOM     22  C   UNL     1      -0.083   9.598  21.100  0.00  0.00    +0.000 C 
ATOM     23  C   UNL     1       0.644   9.960  19.843  0.00  0.00    +0.000 A 
ATOM     24  N   UNL     1       1.535   9.199  19.156  0.00  0.00    +0.000 N 
ATOM     25  C   UNL     1       2.100   9.970  18.147  0.00  0.00    +0.000 A 
ATOM     26  C   UNL     1       1.474  11.174  18.156  0.00  0.00    +0.000 A 
ATOM     27  N   UNL     1       0.547  11.136  19.182  0.00  0.00    +0.000 N 
BRANCH  27  28
ATOM     28  C   UNL     1      -0.370  12.234  19.509  0.00  0.00    +0.000 C 
BRANCH  28  29
ATOM     29  C   UNL     1      -1.718  11.989  18.879  0.00  0.00    +0.000 A 
ATOM     30  C   UNL     1      -1.809  11.462  17.581  0.00  0.00    +0.000 A 
ATOM     31  C   UNL     1      -3.052  11.179  17.012  0.00  0.00    +0.000 A 
ATOM     32  C   UNL     1      -4.221  11.421  17.729  0.00  0.00    +0.000 A 
ATOM     33  C   UNL     1      -4.150  11.944  19.012  0.00  0.00    +0.000 A 
ATOM     34  C   UNL     1      -2.908  12.225  19.589  0.00  0.00    +0.000 A 
ENDBRANCH  28  29
ENDBRANCH  27  28
ENDBRANCH  21  24
ENDBRANCH  20  21
ENDBRANCH  19  20
ENDBRANCH   1  19
TORSDOF 9
ENDMDL
MODEL 5
REMARK VINA RESULT:      -7.9      2.872      9.048
REMARK  Name = 
REMARK  10 active torsions:
REMARK  status: ('A' for Active; 'I' for Inactive)
REMARK    1  A    between atoms: C_1  and  C_2
REMARK    2  A    between atoms: N_3  and  C_4
REMARK    3  A    between atoms: C_4  and  C_5
REMARK    4  A    between atoms: C_5  and  C_6
REMARK    5  A    between atoms: C_6  and  C_7
REMARK    6  A    between atoms: C_7  and  C_8
REMARK    7  A    between atoms: C_7  and  C_11
REMARK    8  A    between atoms: C_7  and  C_17
REMARK    9  A    between atoms: N_25  and  C_26
REMARK   10  A    between atoms: C_26  and  C_27
REMARK                            x       y       z     vdW  Elec       q    Type
REMARK                         _______ _______ _______ _____ _____    ______ ____
ROOT
ATOM      1  C   UNL     1      -0.679  11.441  19.540  0.00  0.00    +0.000 C 
ENDROOT
BRANCH   1   2
ATOM      2  C   UNL     1      -1.499  11.817  20.841  0.00  0.00    +0.000 A 
ATOM      3  C   UNL     1      -1.151  11.345  22.126  0.00  0.00    +0.000 A 
ATOM      4  C   UNL     1      -1.902  11.651  23.264  0.00  0.00    +0.000 A 
ATOM      5  C   UNL     1      -3.059  12.408  23.156  0.00  0.00    +0.000 A 
ATOM      6  C   UNL     1      -3.465  12.850  21.901  0.00  0.00    +0.000 A 
ATOM      7  C   UNL     1      -2.707  12.548  20.765  0.00  0.00    +0.000 A 
ENDBRANCH   1   2
BRANCH   1   8
ATOM      8  C   UNL     1       0.576  12.363  19.302  0.00  0.00    +0.000 A 
ATOM      9  C   UNL     1       1.548  12.111  18.313  0.00  0.00    +0.000 A 
ATOM     10  C   UNL     1       2.753  12.819  18.272  0.00  0.00    +0.000 A 
ATOM     11  C   UNL     1       2.986  13.847  19.174  0.00  0.00    +0.000 A 
ATOM     12  C   UNL     1       1.980  14.219  20.059  0.00  0.00    +0.000 A 
ATOM     13  C   UNL     1       0.774  13.511  20.096  0.00  0.00    +0.000 A 
ENDBRANCH   1   8
BRANCH   1  14
ATOM     14  C   UNL     1      -1.526  11.485  18.212  0.00  0.00    +0.000 C 
ATOM     15  N   UNL     1      -1.436  12.559  17.374  0.00  0.00    +0.000 N 
ATOM     16  O   UNL     1      -2.385  10.643  17.943  0.00  0.00    +0.000 OA
ATOM     17  H   UNL     1      -0.555  13.037  17.241  0.00  0.00    +0.000 HD
ATOM     18  H   UNL     1      -1.992  12.466  16.529  0.00  0.00    +0.000 HD
ENDBRANCH   1  14
BRANCH   1  19
ATOM     19  C   UNL     1      -0.266   9.920  19.710  0.00  0.00    +0.000 C 
BRANCH  19  20
ATOM     20  C   UNL     1       1.144   9.735  20.307  0.00  0.00    +0.000 C 
BRANCH  20  21
ATOM     21  C   UNL     1       1.437   8.324  20.811  0.00  0.00    +0.000 C 
BRANCH  21  24
ATOM     22  C   UNL     1       1.740   5.193  20.869  0.00  0.00    +0.000 C 
ATOM     23  C   UNL     1       2.208   6.131  19.801  0.00  0.00    +0.000 A 
ATOM     24  N   UNL     1       2.031   7.477  19.748  0.00  0.00    +0.000 N 
ATOM     25  C   UNL     1       2.469   7.939  18.512  0.00  0.00    +0.000 A 
ATOM     26  C   UNL     1       3.009   6.883  17.851  0.00  0.00    +0.000 A 
ATOM     27  N   UNL     1       2.879   5.783  18.679  0.00  0.00    +0.000 N 
BRANCH  27  28
ATOM     28  C   UNL     1       3.372   4.440  18.353  0.00  0.00    +0.000 C 
BRANCH  28  29
ATOM     29  C   UNL     1       4.741   4.527  17.730  0.00  0.00    +0.000 A 
ATOM     30  C   UNL     1       5.864   4.819  18.521  0.00  0.00    +0.000 A 
ATOM     31  C   UNL     1       7.143   4.846  17.962  0.00  0.00    +0.000 A 
ATOM     32  C   UNL     1       7.319   4.584  16.606  0.00  0.00    +0.000 A 
ATOM     33  C   UNL     1       6.221   4.296  15.809  0.00  0.00    +0.000 A 
ATOM     34  C   UNL     1       4.938   4.263  16.364  0.00  0.00    +0.000 A 
ENDBRANCH  28  29
ENDBRANCH  27  28
ENDBRANCH  21  24
ENDBRANCH  20  21
ENDBRANCH  19  20
ENDBRANCH   1  19
TORSDOF 9
ENDMDL
MODEL 6
REMARK VINA RESULT:      -7.9      2.317      4.577
REMARK  Name = 
REMARK  10 active torsions:
REMARK  status: ('A' for Active; 'I' for Inactive)
REMARK    1  A    between atoms: C_1  and  C_2
REMARK    2  A    between atoms: N_3  and  C_4
REMARK    3  A    between atoms: C_4  and  C_5
REMARK    4  A    between atoms: C_5  and  C_6
REMARK    5  A    between atoms: C_6  and  C_7
REMARK    6  A    between atoms: C_7  and  C_8
REMARK    7  A    between atoms: C_7  and  C_11
REMARK    8  A    between atoms: C_7  and  C_17
REMARK    9  A    between atoms: N_25  and  C_26
REMARK   10  A    between atoms: C_26  and  C_27
REMARK                            x       y       z     vdW  Elec       q    Type
REMARK                         _______ _______ _______ _____ _____    ______ ____
ROOT
ATOM      1  C   UNL     1       3.844   4.882  18.115  0.00  0.00    +0.000 C 
ENDROOT
BRANCH   1   2
ATOM      2  C   UNL     1       5.271   5.567  18.152  0.00  0.00    +0.000 A 
ATOM      3  C   UNL     1       6.219   5.301  19.164  0.00  0.00    +0.000 A 
ATOM      4  C   UNL     1       7.462   5.938  19.211  0.00  0.00    +0.000 A 
ATOM      5  C   UNL     1       7.791   6.901  18.269  0.00  0.00    +0.000 A 
ATOM      6  C   UNL     1       6.864   7.230  17.285  0.00  0.00    +0.000 A 
ATOM      7  C   UNL     1       5.624   6.585  17.237  0.00  0.00    +0.000 A 
ENDBRANCH   1   2
BRANCH   1   8
ATOM      8  C   UNL     1       3.456   4.167  19.463  0.00  0.00    +0.000 A 
ATOM      9  C   UNL     1       4.012   2.940  19.879  0.00  0.00    +0.000 A 
ATOM     10  C   UNL     1       3.490   2.229  20.965  0.00  0.00    +0.000 A 
ATOM     11  C   UNL     1       2.447   2.763  21.708  0.00  0.00    +0.000 A 
ATOM     12  C   UNL     1       1.985   4.041  21.415  0.00  0.00    +0.000 A 
ATOM     13  C   UNL     1       2.510   4.751  20.330  0.00  0.00    +0.000 A 
ENDBRANCH   1   8
BRANCH   1  14
ATOM     14  C   UNL     1       3.677   3.808  16.973  0.00  0.00    +0.000 C 
ATOM     15  N   UNL     1       2.481   3.174  16.795  0.00  0.00    +0.000 N 
ATOM     16  O   UNL     1       4.625   3.403  16.296  0.00  0.00    +0.000 OA
ATOM     17  H   UNL     1       1.610   3.666  16.941  0.00  0.00    +0.000 HD
ATOM     18  H   UNL     1       2.471   2.533  16.007  0.00  0.00    +0.000 HD
ENDBRANCH   1  14
BRANCH   1  19
ATOM     19  C   UNL     1       2.819   6.033  17.744  0.00  0.00    +0.000 C 
BRANCH  19  20
ATOM     20  C   UNL     1       3.047   7.332  18.545  0.00  0.00    +0.000 C 
BRANCH  20  21
ATOM     21  C   UNL     1       2.117   8.480  18.164  0.00  0.00    +0.000 C 
BRANCH  21  24
ATOM     22  C   UNL     1       1.462  11.541  18.479  0.00  0.00    +0.000 C 
ATOM     23  C   UNL     1       1.311  10.470  19.512  0.00  0.00    +0.000 A 
ATOM     24  N   UNL     1       1.542   9.139  19.362  0.00  0.00    +0.000 N 
ATOM     25  C   UNL     1       1.120   8.478  20.510  0.00  0.00    +0.000 A 
ATOM     26  C   UNL     1       0.725   9.423  21.401  0.00  0.00    +0.000 A 
ATOM     27  N   UNL     1       0.890  10.649  20.785  0.00  0.00    +0.000 N 
BRANCH  27  28
ATOM     28  C   UNL     1       0.611  11.940  21.425  0.00  0.00    +0.000 C 
BRANCH  28  29
ATOM     29  C   UNL     1      -0.872  12.105  21.637  0.00  0.00    +0.000 A 
ATOM     30  C   UNL     1      -1.422  11.980  22.923  0.00  0.00    +0.000 A 
ATOM     31  C   UNL     1      -2.786  12.186  23.138  0.00  0.00    +0.000 A 
ATOM     32  C   UNL     1      -3.620  12.518  22.073  0.00  0.00    +0.000 A 
ATOM     33  C   UNL     1      -3.093  12.642  20.795  0.00  0.00    +0.000 A 
ATOM     34  C   UNL     1      -1.727  12.441  20.575  0.00  0.00    +0.000 A 
ENDBRANCH  28  29
ENDBRANCH  27  28
ENDBRANCH  21  24
ENDBRANCH  20  21
ENDBRANCH  19  20
ENDBRANCH   1  19
TORSDOF 9
ENDMDL
MODEL 7
REMARK VINA RESULT:      -7.9      2.214      2.952
REMARK  Name = 
REMARK  10 active torsions:
REMARK  status: ('A' for Active; 'I' for Inactive)
REMARK    1  A    between atoms: C_1  and  C_2
REMARK    2  A    between atoms: N_3  and  C_4
REMARK    3  A    between atoms: C_4  and  C_5
REMARK    4  A    between atoms: C_5  and  C_6
REMARK    5  A    between atoms: C_6  and  C_7
REMARK    6  A    between atoms: C_7  and  C_8
REMARK    7  A    between atoms: C_7  and  C_11
REMARK    8  A    between atoms: C_7  and  C_17
REMARK    9  A    between atoms: N_25  and  C_26
REMARK   10  A    between atoms: C_26  and  C_27
REMARK                            x       y       z     vdW  Elec       q    Type
REMARK                         _______ _______ _______ _____ _____    ______ ____
ROOT
ATOM      1  C   UNL     1       5.887   4.840  17.498  0.00  0.00    +0.000 C 
ENDROOT
BRANCH   1   2
ATOM      2  C   UNL     1       4.839   3.785  18.040  0.00  0.00    +0.000 A 
ATOM      3  C   UNL     1       3.845   3.207  17.222  0.00  0.00    +0.000 A 
ATOM      4  C   UNL     1       2.900   2.304  17.716  0.00  0.00    +0.000 A 
ATOM      5  C   UNL     1       2.885   1.975  19.064  0.00  0.00    +0.000 A 
ATOM      6  C   UNL     1       3.816   2.563  19.915  0.00  0.00    +0.000 A 
ATOM      7  C   UNL     1       4.765   3.460  19.414  0.00  0.00    +0.000 A 
ENDBRANCH   1   2
BRANCH   1   8
ATOM      8  C   UNL     1       6.111   4.759  15.941  0.00  0.00    +0.000 A 
ATOM      9  C   UNL     1       5.340   3.945  15.087  0.00  0.00    +0.000 A 
ATOM     10  C   UNL     1       5.702   3.730  13.753  0.00  0.00    +0.000 A 
ATOM     11  C   UNL     1       6.804   4.383  13.219  0.00  0.00    +0.000 A 
ATOM     12  C   UNL     1       7.490   5.311  13.995  0.00  0.00    +0.000 A 
ATOM     13  C   UNL     1       7.123   5.526  15.328  0.00  0.00    +0.000 A 
ENDBRANCH   1   8
BRANCH   1  14
ATOM     14  C   UNL     1       7.312   4.731  18.162  0.00  0.00    +0.000 C 
ATOM     15  N   UNL     1       7.632   5.508  19.238  0.00  0.00    +0.000 N 
ATOM     16  O   UNL     1       8.223   4.058  17.674  0.00  0.00    +0.000 OA
ATOM     17  H   UNL     1       6.936   5.730  19.938  0.00  0.00    +0.000 HD
ATOM     18  H   UNL     1       8.558   5.328  19.612  0.00  0.00    +0.000 HD
ENDBRANCH   1  14
BRANCH   1  19
ATOM     19  C   UNL     1       5.341   6.262  17.939  0.00  0.00    +0.000 C 
BRANCH  19  20
ATOM     20  C   UNL     1       3.878   6.509  17.517  0.00  0.00    +0.000 C 
BRANCH  20  21
ATOM     21  C   UNL     1       2.895   6.618  18.680  0.00  0.00    +0.000 C 
BRANCH  21  24
ATOM     22  C   UNL     1       1.468   7.918  21.165  0.00  0.00    +0.000 C 
ATOM     23  C   UNL     1       1.589   8.487  19.787  0.00  0.00    +0.000 A 
ATOM     24  N   UNL     1       2.251   7.954  18.727  0.00  0.00    +0.000 N 
ATOM     25  C   UNL     1       2.258   8.879  17.690  0.00  0.00    +0.000 A 
ATOM     26  C   UNL     1       1.509   9.940  18.086  0.00  0.00    +0.000 A 
ATOM     27  N   UNL     1       1.068   9.663  19.367  0.00  0.00    +0.000 N 
BRANCH  27  28
ATOM     28  C   UNL     1       0.192  10.544  20.148  0.00  0.00    +0.000 C 
BRANCH  28  29
ATOM     29  C   UNL     1       0.424  11.982  19.761  0.00  0.00    +0.000 A 
ATOM     30  C   UNL     1      -0.477  12.641  18.908  0.00  0.00    +0.000 A 
ATOM     31  C   UNL     1      -0.301  13.989  18.589  0.00  0.00    +0.000 A 
ATOM     32  C   UNL     1       0.776  14.697  19.114  0.00  0.00    +0.000 A 
ATOM     33  C   UNL     1       1.678  14.061  19.955  0.00  0.00    +0.000 A 
ATOM     34  C   UNL     1       1.505  12.713  20.282  0.00  0.00    +0.000 A 
ENDBRANCH  28  29
ENDBRANCH  27  28
ENDBRANCH  21  24
ENDBRANCH  20  21
ENDBRANCH  19  20
ENDBRANCH   1  19
TORSDOF 9
ENDMDL
MODEL 8
REMARK VINA RESULT:      -7.9      1.738      3.937
REMARK  Name = 
REMARK  10 active torsions:
REMARK  status: ('A' for Active; 'I' for Inactive)
REMARK    1  A    between atoms: C_1  and  C_2
REMARK    2  A    between atoms: N_3  and  C_4
REMARK    3  A    between atoms: C_4  and  C_5
REMARK    4  A    between atoms: C_5  and  C_6
REMARK    5  A    between atoms: C_6  and  C_7
REMARK    6  A    between atoms: C_7  and  C_8
REMARK    7  A    between atoms: C_7  and  C_11
REMARK    8  A    between atoms: C_7  and  C_17
REMARK    9  A    between atoms: N_25  and  C_26
REMARK   10  A    between atoms: C_26  and  C_27
REMARK                            x       y       z     vdW  Elec       q    Type
REMARK                         _______ _______ _______ _____ _____    ______ ____
ROOT
ATOM      1  C   UNL     1       3.578   4.828  18.063  0.00  0.00    +0.000 C 
ENDROOT
BRANCH   1   2
ATOM      2  C   UNL     1       5.013   5.474  18.231  0.00  0.00    +0.000 A 
ATOM      3  C   UNL     1       5.584   6.328  17.264  0.00  0.00    +0.000 A 
ATOM      4  C   UNL     1       6.868   6.864  17.402  0.00  0.00    +0.000 A 
ATOM      5  C   UNL     1       7.650   6.530  18.497  0.00  0.00    +0.000 A 
ATOM      6  C   UNL     1       7.145   5.650  19.448  0.00  0.00    +0.000 A 
ATOM      7  C   UNL     1       5.857   5.122  19.310  0.00  0.00    +0.000 A 
ENDBRANCH   1   2
BRANCH   1   8
ATOM      8  C   UNL     1       3.110   4.003  19.320  0.00  0.00    +0.000 A 
ATOM      9  C   UNL     1       1.982   4.339  20.095  0.00  0.00    +0.000 A 
ATOM     10  C   UNL     1       1.723   3.720  21.322  0.00  0.00    +0.000 A 
ATOM     11  C   UNL     1       2.546   2.696  21.770  0.00  0.00    +0.000 A 
ATOM     12  C   UNL     1       3.574   2.239  20.953  0.00  0.00    +0.000 A 
ATOM     13  C   UNL     1       3.828   2.859  19.725  0.00  0.00    +0.000 A 
ENDBRANCH   1   8
BRANCH   1  14
ATOM     14  C   UNL     1       3.447   3.866  16.821  0.00  0.00    +0.000 C 
ATOM     15  N   UNL     1       4.490   3.719  15.952  0.00  0.00    +0.000 N 
ATOM     16  O   UNL     1       2.385   3.323  16.510  0.00  0.00    +0.000 OA
ATOM     17  H   UNL     1       5.445   3.731  16.286  0.00  0.00    +0.000 HD
ATOM     18  H   UNL     1       4.314   3.047  15.213  0.00  0.00    +0.000 HD
ENDBRANCH   1  14
BRANCH   1  19
ATOM     19  C   UNL     1       2.593   6.031  17.752  0.00  0.00    +0.000 C 
BRANCH  19  20
ATOM     20  C   UNL     1       2.991   7.342  18.462  0.00  0.00    +0.000 C 
BRANCH  20  21
ATOM     21  C   UNL     1       2.085   7.727  19.629  0.00  0.00    +0.000 C 
BRANCH  21  24
ATOM     22  C   UNL     1      -0.143   9.043  21.419  0.00  0.00    +0.000 C 
ATOM     23  C   UNL     1       0.443   9.586  20.155  0.00  0.00    +0.000 A 
ATOM     24  N   UNL     1       1.442   9.046  19.409  0.00  0.00    +0.000 N 
ATOM     25  C   UNL     1       1.797   9.949  18.412  0.00  0.00    +0.000 A 
ATOM     26  C   UNL     1       0.939  10.999  18.491  0.00  0.00    +0.000 A 
ATOM     27  N   UNL     1       0.082  10.738  19.545  0.00  0.00    +0.000 N 
BRANCH  27  28
ATOM     28  C   UNL     1      -1.026  11.613  19.945  0.00  0.00    +0.000 C 
BRANCH  28  29
ATOM     29  C   UNL     1      -2.223  11.372  19.062  0.00  0.00    +0.000 A 
ATOM     30  C   UNL     1      -2.194  10.361  18.088  0.00  0.00    +0.000 A 
ATOM     31  C   UNL     1      -3.318  10.094  17.304  0.00  0.00    +0.000 A 
ATOM     32  C   UNL     1      -4.485  10.833  17.480  0.00  0.00    +0.000 A 
ATOM     33  C   UNL     1      -4.530  11.838  18.435  0.00  0.00    +0.000 A 
ATOM     34  C   UNL     1      -3.409  12.107  19.226  0.00  0.00    +0.000 A 
ENDBRANCH  28  29
ENDBRANCH  27  28
ENDBRANCH  21  24
ENDBRANCH  20  21
ENDBRANCH  19  20
ENDBRANCH   1  19
TORSDOF 9
ENDMDL
MODEL 9
REMARK VINA RESULT:      -7.9      1.540      2.427
REMARK  Name = 
REMARK  10 active torsions:
REMARK  status: ('A' for Active; 'I' for Inactive)
REMARK    1  A    between atoms: C_1  and  C_2
REMARK    2  A    between atoms: N_3  and  C_4
REMARK    3  A    between atoms: C_4  and  C_5
REMARK    4  A    between atoms: C_5  and  C_6
REMARK    5  A    between atoms: C_6  and  C_7
REMARK    6  A    between atoms: C_7  and  C_8
REMARK    7  A    between atoms: C_7  and  C_11
REMARK    8  A    between atoms: C_7  and  C_17
REMARK    9  A    between atoms: N_25  and  C_26
REMARK   10  A    between atoms: C_26  and  C_27
REMARK                            x       y       z     vdW  Elec       q    Type
REMARK                         _______ _______ _______ _____ _____    ______ ____
ROOT
ATOM      1  C   UNL     1       4.159   4.970  18.674  0.00  0.00    +0.000 C 
ENDROOT
BRANCH   1   2
ATOM      2  C   UNL     1       2.837   4.134  18.915  0.00  0.00    +0.000 A 
ATOM      3  C   UNL     1       2.380   3.781  20.203  0.00  0.00    +0.000 A 
ATOM      4  C   UNL     1       1.232   3.010  20.406  0.00  0.00    +0.000 A 
ATOM      5  C   UNL     1       0.517   2.523  19.322  0.00  0.00    +0.000 A 
ATOM      6  C   UNL     1       0.962   2.804  18.034  0.00  0.00    +0.000 A 
ATOM      7  C   UNL     1       2.107   3.582  17.836  0.00  0.00    +0.000 A 
ENDBRANCH   1   2
BRANCH   1   8
ATOM      8  C   UNL     1       4.577   5.060  17.158  0.00  0.00    +0.000 A 
ATOM      9  C   UNL     1       4.865   3.932  16.364  0.00  0.00    +0.000 A 
ATOM     10  C   UNL     1       5.440   4.055  15.095  0.00  0.00    +0.000 A 
ATOM     11  C   UNL     1       5.674   5.313  14.558  0.00  0.00    +0.000 A 
ATOM     12  C   UNL     1       5.256   6.441  15.255  0.00  0.00    +0.000 A 
ATOM     13  C   UNL     1       4.678   6.314  16.523  0.00  0.00    +0.000 A 
ENDBRANCH   1   8
BRANCH   1  14
ATOM     14  C   UNL     1       5.415   4.425  19.454  0.00  0.00    +0.000 C 
ATOM     15  N   UNL     1       5.492   3.106  19.799  0.00  0.00    +0.000 N 
ATOM     16  O   UNL     1       6.297   5.166  19.895  0.00  0.00    +0.000 OA
ATOM     17  H   UNL     1       5.124   2.391  19.186  0.00  0.00    +0.000 HD
ATOM     18  H   UNL     1       6.360   2.854  20.262  0.00  0.00    +0.000 HD
ENDBRANCH   1  14
BRANCH   1  19
ATOM     19  C   UNL     1       3.886   6.404  19.293  0.00  0.00    +0.000 C 
BRANCH  19  20
ATOM     20  C   UNL     1       2.385   6.756  19.375  0.00  0.00    +0.000 C 
BRANCH  20  21
ATOM     21  C   UNL     1       2.034   8.148  18.856  0.00  0.00    +0.000 C 
BRANCH  21  24
ATOM     22  C   UNL     1       1.290  11.196  18.629  0.00  0.00    +0.000 C 
ATOM     23  C   UNL     1       1.144  10.313  19.828  0.00  0.00    +0.000 A 
ATOM     24  N   UNL     1       1.415   8.984  19.913  0.00  0.00    +0.000 N 
ATOM     25  C   UNL     1       0.984   8.516  21.149  0.00  0.00    +0.000 A 
ATOM     26  C   UNL     1       0.543   9.587  21.858  0.00  0.00    +0.000 A 
ATOM     27  N   UNL     1       0.689  10.695  21.043  0.00  0.00    +0.000 N 
BRANCH  27  28
ATOM     28  C   UNL     1       0.361  12.067  21.446  0.00  0.00    +0.000 C 
BRANCH  28  29
ATOM     29  C   UNL     1      -1.130  12.217  21.612  0.00  0.00    +0.000 A 
ATOM     30  C   UNL     1      -1.713  12.141  22.886  0.00  0.00    +0.000 A 
ATOM     31  C   UNL     1      -3.086  12.335  23.055  0.00  0.00    +0.000 A 
ATOM     32  C   UNL     1      -3.895  12.604  21.954  0.00  0.00    +0.000 A 
ATOM     33  C   UNL     1      -3.336  12.678  20.687  0.00  0.00    +0.000 A 
ATOM     34  C   UNL     1      -1.961  12.490  20.512  0.00  0.00    +0.000 A 
ENDBRANCH  28  29
ENDBRANCH  27  28
ENDBRANCH  21  24
ENDBRANCH  20  21
ENDBRANCH  19  20
ENDBRANCH   1  19
TORSDOF 9
ENDMDL
