MODEL 1
REMARK VINA RESULT:      -8.1      0.000      0.000
REMARK  Name = 
REMARK  10 active torsions:
REMARK  status: ('A' for Active; 'I' for Inactive)
REMARK    1  A    between atoms: C_1  and  C_2
REMARK    2  A    between atoms: C_2  and  O_3
REMARK    3  A    between atoms: O_3  and  C_4
REMARK    4  A    between atoms: C_10  and  C_12
REMARK    5  A    between atoms: C_12  and  S_13
REMARK    6  A    between atoms: S_13  and  C_14
REMARK    7  A    between atoms: C_20  and  C_21
REMARK    8  A    between atoms: C_21  and  C_22
REMARK    9  A    between atoms: C_22  and  N_23
REMARK   10  A    between atoms: C_24  and  C_26
REMARK                            x       y       z     vdW  Elec       q    Type
REMARK                         _______ _______ _______ _____ _____    ______ ____
ROOT
ATOM      1  C   UNL     1       2.416   6.790  18.778  0.00  0.00    +0.000 A 
ATOM      2  C   UNL     1       1.913   7.200  20.123  0.00  0.00    +0.000 A 
ATOM      3  C   UNL     1       1.421   6.232  20.916  0.00  0.00    +0.000 A 
ATOM      4  C   UNL     1       1.400   4.905  20.442  0.00  0.00    +0.000 A 
ATOM      5  N   UNL     1       1.004   3.774  20.979  0.00  0.00    +0.000 NA
ATOM      6  N   UNL     1       1.242   2.771  20.066  0.00  0.00    +0.000 NA
ATOM      7  C   UNL     1       1.769   3.316  18.989  0.00  0.00    +0.000 A 
ATOM      8  N   UNL     1       1.896   4.672  19.173  0.00  0.00    +0.000 N 
ATOM      9  N   UNL     1       2.423   5.586  18.298  0.00  0.00    +0.000 NA
ENDROOT
BRANCH   1  10
ATOM     10  S   UNL     1       3.053   8.123  17.842  0.00  0.00    +0.000 S 
BRANCH  10  11
ATOM     11  C   UNL     1       1.596   9.220  17.644  0.00  0.00    +0.000 C 
BRANCH  11  18
ATOM     12  C   UNL     1      -1.588  12.982  21.828  0.00  0.00    +0.000 C 
ATOM     13  O   UNL     1      -1.411  14.132  22.209  0.00  0.00    +0.000 OA
ATOM     14  N   UNL     1      -0.957  12.427  20.736  0.00  0.00    +0.000 N 
ATOM     15  C   UNL     1       0.047  13.201  20.011  0.00  0.00    +0.000 C 
ATOM     16  C   UNL     1       1.350  12.402  19.853  0.00  0.00    +0.000 C 
ATOM     17  N   UNL     1       1.100  11.065  19.283  0.00  0.00    +0.000 N 
ATOM     18  C   UNL     1       1.872  10.626  18.210  0.00  0.00    +0.000 C 
ATOM     19  O   UNL     1       2.731  11.368  17.724  0.00  0.00    +0.000 OA
ATOM     20  C   UNL     1       0.101  10.279  20.025  0.00  0.00    +0.000 C 
ATOM     21  C   UNL     1      -1.207  11.073  20.225  0.00  0.00    +0.000 C 
BRANCH  12  22
ATOM     22  O   UNL     1      -2.351  12.075  22.495  0.00  0.00    +0.000 OA
BRANCH  22  24
ATOM     23  C   UNL     1      -3.861  12.311  24.329  0.00  0.00    +0.000 C 
ATOM     24  C   UNL     1      -3.666  12.532  22.838  0.00  0.00    +0.000 C 
ENDBRANCH  22  24
ENDBRANCH  12  22
ENDBRANCH  11  18
ENDBRANCH  10  11
ENDBRANCH   1  10
BRANCH   7  25
ATOM     25  C   UNL     1       2.222   2.632  17.756  0.00  0.00    +0.000 C 
BRANCH  25  26
ATOM     26  C   UNL     1       3.689   2.208  17.832  0.00  0.00    +0.000 C 
BRANCH  26  27
ATOM     27  N   UNL     1       4.586   3.319  17.561  0.00  0.00    +0.000 N 
ATOM     28  C   UNL     1       5.362   3.858  18.565  0.00  0.00    +0.000 C 
ATOM     29  O   UNL     1       5.396   3.401  19.707  0.00  0.00    +0.000 OA
ATOM     30  H   UNL     1       4.477   3.807  16.683  0.00  0.00    +0.000 HD
BRANCH  28  31
ATOM     31  C   UNL     1       6.164   5.060  18.237  0.00  0.00    +0.000 A 
ATOM     32  C   UNL     1       5.936   5.677  16.998  0.00  0.00    +0.000 A 
ATOM     33  C   UNL     1       6.679   6.790  16.619  0.00  0.00    +0.000 A 
ATOM     34  C   UNL     1       7.647   7.303  17.480  0.00  0.00    +0.000 A 
ATOM     35  C   UNL     1       7.862   6.711  18.729  0.00  0.00    +0.000 A 
ATOM     36  C   UNL     1       7.120   5.595  19.110  0.00  0.00    +0.000 A 
ENDBRANCH  28  31
ENDBRANCH  26  27
ENDBRANCH  25  26
ENDBRANCH   7  25
TORSDOF 9
ENDMDL
MODEL 2
REMARK VINA RESULT:      -8.1      2.314      2.553
REMARK  Name = 
REMARK  10 active torsions:
REMARK  status: ('A' for Active; 'I' for Inactive)
REMARK    1  A    between atoms: C_1  and  C_2
REMARK    2  A    between atoms: C_2  and  O_3
REMARK    3  A    between atoms: O_3  and  C_4
REMARK    4  A    between atoms: C_10  and  C_12
REMARK    5  A    between atoms: C_12  and  S_13
REMARK    6  A    between atoms: S_13  and  C_14
REMARK    7  A    between atoms: C_20  and  C_21
REMARK    8  A    between atoms: C_21  and  C_22
REMARK    9  A    between atoms: C_22  and  N_23
REMARK   10  A    between atoms: C_24  and  C_26
REMARK                            x       y       z     vdW  Elec       q    Type
REMARK                         _______ _______ _______ _____ _____    ______ ____
ROOT
ATOM      1  C   UNL     1       2.255   7.000  18.844  0.00  0.00    +0.000 A 
ATOM      2  C   UNL     1       1.873   7.294  20.257  0.00  0.00    +0.000 A 
ATOM      3  C   UNL     1       1.564   6.247  21.041  0.00  0.00    +0.000 A 
ATOM      4  C   UNL     1       1.609   4.948  20.495  0.00  0.00    +0.000 A 
ATOM      5  N   UNL     1       1.381   3.759  21.005  0.00  0.00    +0.000 NA
ATOM      6  N   UNL     1       1.603   2.829  20.016  0.00  0.00    +0.000 NA
ATOM      7  C   UNL     1       1.953   3.473  18.921  0.00  0.00    +0.000 A 
ATOM      8  N   UNL     1       1.977   4.825  19.169  0.00  0.00    +0.000 N 
ATOM      9  N   UNL     1       2.317   5.826  18.297  0.00  0.00    +0.000 NA
ENDROOT
BRANCH   1  10
ATOM     10  S   UNL     1       2.658   8.430  17.924  0.00  0.00    +0.000 S 
BRANCH  10  11
ATOM     11  C   UNL     1       1.020   9.193  17.609  0.00  0.00    +0.000 C 
BRANCH  11  18
ATOM     12  C   UNL     1      -4.532  12.148  19.105  0.00  0.00    +0.000 C 
ATOM     13  O   UNL     1      -4.830  12.965  19.967  0.00  0.00    +0.000 OA
ATOM     14  N   UNL     1      -3.237  11.819  18.771  0.00  0.00    +0.000 N 
ATOM     15  C   UNL     1      -2.126  12.401  19.521  0.00  0.00    +0.000 C 
ATOM     16  C   UNL     1      -1.165  11.311  20.019  0.00  0.00    +0.000 C 
ATOM     17  N   UNL     1      -0.744  10.419  18.921  0.00  0.00    +0.000 N 
ATOM     18  C   UNL     1       0.610  10.137  18.755  0.00  0.00    +0.000 C 
ATOM     19  O   UNL     1       1.445  10.659  19.500  0.00  0.00    +0.000 OA
ATOM     20  C   UNL     1      -1.863   9.819  18.178  0.00  0.00    +0.000 C 
ATOM     21  C   UNL     1      -2.860  10.893  17.695  0.00  0.00    +0.000 C 
BRANCH  12  22
ATOM     22  O   UNL     1      -5.442  11.386  18.441  0.00  0.00    +0.000 OA
BRANCH  22  24
ATOM     23  C   UNL     1      -6.794  12.819  17.091  0.00  0.00    +0.000 C 
ATOM     24  C   UNL     1      -6.753  11.962  18.346  0.00  0.00    +0.000 C 
ENDBRANCH  22  24
ENDBRANCH  12  22
ENDBRANCH  11  18
ENDBRANCH  10  11
ENDBRANCH   1  10
BRANCH   7  25
ATOM     25  C   UNL     1       2.324   2.896  17.608  0.00  0.00    +0.000 C 
BRANCH  25  26
ATOM     26  C   UNL     1       3.788   2.457  17.559  0.00  0.00    +0.000 C 
BRANCH  26  27
ATOM     27  N   UNL     1       4.683   3.516  17.995  0.00  0.00    +0.000 N 
ATOM     28  C   UNL     1       5.249   4.379  17.081  0.00  0.00    +0.000 C 
ATOM     29  O   UNL     1       4.985   4.354  15.879  0.00  0.00    +0.000 OA
ATOM     30  H   UNL     1       5.031   3.476  18.942  0.00  0.00    +0.000 HD
BRANCH  28  31
ATOM     31  C   UNL     1       6.239   5.359  17.590  0.00  0.00    +0.000 A 
ATOM     32  C   UNL     1       6.322   6.597  16.938  0.00  0.00    +0.000 A 
ATOM     33  C   UNL     1       7.252   7.547  17.348  0.00  0.00    +0.000 A 
ATOM     34  C   UNL     1       8.098   7.270  18.421  0.00  0.00    +0.000 A 
ATOM     35  C   UNL     1       8.002   6.049  19.094  0.00  0.00    +0.000 A 
ATOM     36  C   UNL     1       7.072   5.095  18.684  0.00  0.00    +0.000 A 
ENDBRANCH  28  31
ENDBRANCH  26  27
ENDBRANCH  25  26
ENDBRANCH   7  25
TORSDOF 9
ENDMDL
MODEL 3
REMARK VINA RESULT:      -8.0      1.858      2.171
REMARK  Name = 
REMARK  10 active torsions:
REMARK  status: ('A' for Active; 'I' for Inactive)
REMARK    1  A    between atoms: C_1  and  C_2
REMARK    2  A    between atoms: C_2  and  O_3
REMARK    3  A    between atoms: O_3  and  C_4
REMARK    4  A    between atoms: C_10  and  C_12
REMARK    5  A    between atoms: C_12  and  S_13
REMARK    6  A    between atoms: S_13  and  C_14
REMARK    7  A    between atoms: C_20  and  C_21
REMARK    8  A    between atoms: C_21  and  C_22
REMARK    9  A    between atoms: C_22  and  N_23
REMARK   10  A    between atoms: C_24  and  C_26
REMARK                            x       y       z     vdW  Elec       q    Type
REMARK                         _______ _______ _______ _____ _____    ______ ____
ROOT
ATOM      1  C   UNL     1       2.273   6.949  18.803  0.00  0.00    +0.000 A 
ATOM      2  C   UNL     1       1.877   7.271  20.206  0.00  0.00    +0.000 A 
ATOM      3  C   UNL     1       1.546   6.242  21.004  0.00  0.00    +0.000 A 
ATOM      4  C   UNL     1       1.584   4.933  20.482  0.00  0.00    +0.000 A 
ATOM      5  N   UNL     1       1.337   3.756  21.009  0.00  0.00    +0.000 NA
ATOM      6  N   UNL     1       1.561   2.806  20.038  0.00  0.00    +0.000 NA
ATOM      7  C   UNL     1       1.931   3.428  18.937  0.00  0.00    +0.000 A 
ATOM      8  N   UNL     1       1.967   4.783  19.162  0.00  0.00    +0.000 N 
ATOM      9  N   UNL     1       2.327   5.765  18.277  0.00  0.00    +0.000 NA
ENDROOT
BRANCH   1  10
ATOM     10  S   UNL     1       2.703   8.359  17.863  0.00  0.00    +0.000 S 
BRANCH  10  11
ATOM     11  C   UNL     1       1.108   9.253  17.709  0.00  0.00    +0.000 C 
BRANCH  11  18
ATOM     12  C   UNL     1      -3.982  12.640  19.809  0.00  0.00    +0.000 C 
ATOM     13  O   UNL     1      -4.103  13.516  20.657  0.00  0.00    +0.000 OA
ATOM     14  N   UNL     1      -2.771  12.210  19.314  0.00  0.00    +0.000 N 
ATOM     15  C   UNL     1      -1.531  12.752  19.863  0.00  0.00    +0.000 C 
ATOM     16  C   UNL     1      -0.573  11.625  20.280  0.00  0.00    +0.000 C 
ATOM     17  N   UNL     1      -0.370  10.656  19.187  0.00  0.00    +0.000 N 
ATOM     18  C   UNL     1       0.926  10.277  18.846  0.00  0.00    +0.000 C 
ATOM     19  O   UNL     1       1.891  10.777  19.433  0.00  0.00    +0.000 OA
ATOM     20  C   UNL     1      -1.619  10.096  18.646  0.00  0.00    +0.000 C 
ATOM     21  C   UNL     1      -2.610  11.210  18.250  0.00  0.00    +0.000 C 
BRANCH  12  22
ATOM     22  O   UNL     1      -5.023  11.910  19.326  0.00  0.00    +0.000 OA
BRANCH  22  24
ATOM     23  C   UNL     1      -7.049  11.728  18.077  0.00  0.00    +0.000 C 
ATOM     24  C   UNL     1      -6.094  12.685  18.770  0.00  0.00    +0.000 C 
ENDBRANCH  22  24
ENDBRANCH  12  22
ENDBRANCH  11  18
ENDBRANCH  10  11
ENDBRANCH   1  10
BRANCH   7  25
ATOM     25  C   UNL     1       2.311   2.824  17.639  0.00  0.00    +0.000 C 
BRANCH  25  26
ATOM     26  C   UNL     1       3.781   2.404  17.602  0.00  0.00    +0.000 C 
BRANCH  26  27
ATOM     27  N   UNL     1       4.661   3.543  17.402  0.00  0.00    +0.000 N 
ATOM     28  C   UNL     1       5.398   4.055  18.449  0.00  0.00    +0.000 C 
ATOM     29  O   UNL     1       5.411   3.550  19.572  0.00  0.00    +0.000 OA
ATOM     30  H   UNL     1       4.566   4.065  16.543  0.00  0.00    +0.000 HD
BRANCH  28  31
ATOM     31  C   UNL     1       6.183   5.285  18.194  0.00  0.00    +0.000 A 
ATOM     32  C   UNL     1       7.336   5.493  18.966  0.00  0.00    +0.000 A 
ATOM     33  C   UNL     1       8.099   6.644  18.795  0.00  0.00    +0.000 A 
ATOM     34  C   UNL     1       7.722   7.590  17.843  0.00  0.00    +0.000 A 
ATOM     35  C   UNL     1       6.590   7.377  17.050  0.00  0.00    +0.000 A 
ATOM     36  C   UNL     1       5.824   6.225  17.220  0.00  0.00    +0.000 A 
ENDBRANCH  28  31
ENDBRANCH  26  27
ENDBRANCH  25  26
ENDBRANCH   7  25
TORSDOF 9
ENDMDL
MODEL 4
REMARK VINA RESULT:      -7.9      1.041      1.055
REMARK  Name = 
REMARK  10 active torsions:
REMARK  status: ('A' for Active; 'I' for Inactive)
REMARK    1  A    between atoms: C_1  and  C_2
REMARK    2  A    between atoms: C_2  and  O_3
REMARK    3  A    between atoms: O_3  and  C_4
REMARK    4  A    between atoms: C_10  and  C_12
REMARK    5  A    between atoms: C_12  and  S_13
REMARK    6  A    between atoms: S_13  and  C_14
REMARK    7  A    between atoms: C_20  and  C_21
REMARK    8  A    between atoms: C_21  and  C_22
REMARK    9  A    between atoms: C_22  and  N_23
REMARK   10  A    between atoms: C_24  and  C_26
REMARK                            x       y       z     vdW  Elec       q    Type
REMARK                         _______ _______ _______ _____ _____    ______ ____
ROOT
ATOM      1  C   UNL     1       2.393   6.607  18.794  0.00  0.00    +0.000 A 
ATOM      2  C   UNL     1       1.975   6.960  20.183  0.00  0.00    +0.000 A 
ATOM      3  C   UNL     1       1.611   5.950  20.991  0.00  0.00    +0.000 A 
ATOM      4  C   UNL     1       1.635   4.633  20.492  0.00  0.00    +0.000 A 
ATOM      5  N   UNL     1       1.356   3.469  21.034  0.00  0.00    +0.000 NA
ATOM      6  N   UNL     1       1.583   2.500  20.084  0.00  0.00    +0.000 NA
ATOM      7  C   UNL     1       1.986   3.095  18.980  0.00  0.00    +0.000 A 
ATOM      8  N   UNL     1       2.041   4.453  19.183  0.00  0.00    +0.000 N 
ATOM      9  N   UNL     1       2.437   5.413  18.289  0.00  0.00    +0.000 NA
ENDROOT
BRANCH   1  10
ATOM     10  S   UNL     1       2.867   7.993  17.839  0.00  0.00    +0.000 S 
BRANCH  10  11
ATOM     11  C   UNL     1       1.359   9.037  17.852  0.00  0.00    +0.000 C 
BRANCH  11  18
ATOM     12  C   UNL     1      -1.881  13.914  20.593  0.00  0.00    +0.000 C 
ATOM     13  O   UNL     1      -1.638  15.109  20.709  0.00  0.00    +0.000 OA
ATOM     14  N   UNL     1      -1.194  13.067  19.751  0.00  0.00    +0.000 N 
ATOM     15  C   UNL     1      -0.051  13.571  18.993  0.00  0.00    +0.000 C 
ATOM     16  C   UNL     1       1.181  12.675  19.193  0.00  0.00    +0.000 C 
ATOM     17  N   UNL     1       0.867  11.258  18.931  0.00  0.00    +0.000 N 
ATOM     18  C   UNL     1       1.703  10.518  18.097  0.00  0.00    +0.000 C 
ATOM     19  O   UNL     1       2.674  11.059  17.559  0.00  0.00    +0.000 OA
ATOM     20  C   UNL     1      -0.272  10.746  19.708  0.00  0.00    +0.000 C 
ATOM     21  C   UNL     1      -1.514  11.648  19.549  0.00  0.00    +0.000 C 
BRANCH  12  22
ATOM     22  O   UNL     1      -2.791  13.252  21.356  0.00  0.00    +0.000 OA
BRANCH  22  24
ATOM     23  C   UNL     1      -3.155  12.241  23.488  0.00  0.00    +0.000 C 
ATOM     24  C   UNL     1      -2.679  13.491  22.766  0.00  0.00    +0.000 C 
ENDBRANCH  22  24
ENDBRANCH  12  22
ENDBRANCH  11  18
ENDBRANCH  10  11
ENDBRANCH   1  10
BRANCH   7  25
ATOM     25  C   UNL     1       2.381   2.462  17.701  0.00  0.00    +0.000 C 
BRANCH  25  26
ATOM     26  C   UNL     1       3.883   2.187  17.628  0.00  0.00    +0.000 C 
BRANCH  26  27
ATOM     27  N   UNL     1       4.664   3.359  17.986  0.00  0.00    +0.000 N 
ATOM     28  C   UNL     1       5.463   3.983  17.052  0.00  0.00    +0.000 C 
ATOM     29  O   UNL     1       5.511   3.640  15.871  0.00  0.00    +0.000 OA
ATOM     30  H   UNL     1       4.761   3.577  18.967  0.00  0.00    +0.000 HD
BRANCH  28  31
ATOM     31  C   UNL     1       6.316   5.101  17.522  0.00  0.00    +0.000 A 
ATOM     32  C   UNL     1       6.209   6.327  16.850  0.00  0.00    +0.000 A 
ATOM     33  C   UNL     1       7.004   7.406  17.223  0.00  0.00    +0.000 A 
ATOM     34  C   UNL     1       7.904   7.270  18.278  0.00  0.00    +0.000 A 
ATOM     35  C   UNL     1       7.997   6.060  18.972  0.00  0.00    +0.000 A 
ATOM     36  C   UNL     1       7.202   4.977  18.599  0.00  0.00    +0.000 A 
ENDBRANCH  28  31
ENDBRANCH  26  27
ENDBRANCH  25  26
ENDBRANCH   7  25
TORSDOF 9
ENDMDL
MODEL 5
REMARK VINA RESULT:      -7.7      1.997      2.873
REMARK  Name = 
REMARK  10 active torsions:
REMARK  status: ('A' for Active; 'I' for Inactive)
REMARK    1  A    between atoms: C_1  and  C_2
REMARK    2  A    between atoms: C_2  and  O_3
REMARK    3  A    between atoms: O_3  and  C_4
REMARK    4  A    between atoms: C_10  and  C_12
REMARK    5  A    between atoms: C_12  and  S_13
REMARK    6  A    between atoms: S_13  and  C_14
REMARK    7  A    between atoms: C_20  and  C_21
REMARK    8  A    between atoms: C_21  and  C_22
REMARK    9  A    between atoms: C_22  and  N_23
REMARK   10  A    between atoms: C_24  and  C_26
REMARK                            x       y       z     vdW  Elec       q    Type
REMARK                         _______ _______ _______ _____ _____    ______ ____
ROOT
ATOM      1  C   UNL     1       2.129   6.870  18.774  0.00  0.00    +0.000 A 
ATOM      2  C   UNL     1       1.788   7.237  20.180  0.00  0.00    +0.000 A 
ATOM      3  C   UNL     1       1.542   6.230  21.036  0.00  0.00    +0.000 A 
ATOM      4  C   UNL     1       1.610   4.903  20.567  0.00  0.00    +0.000 A 
ATOM      5  N   UNL     1       1.439   3.741  21.155  0.00  0.00    +0.000 NA
ATOM      6  N   UNL     1       1.656   2.760  20.215  0.00  0.00    +0.000 NA
ATOM      7  C   UNL     1       1.946   3.347  19.071  0.00  0.00    +0.000 A 
ATOM      8  N   UNL     1       1.934   4.711  19.238  0.00  0.00    +0.000 N 
ATOM      9  N   UNL     1       2.209   5.667  18.296  0.00  0.00    +0.000 NA
ENDROOT
BRANCH   1  10
ATOM     10  S   UNL     1       2.452   8.254  17.755  0.00  0.00    +0.000 S 
BRANCH  10  11
ATOM     11  C   UNL     1       2.145   9.672  18.877  0.00  0.00    +0.000 C 
BRANCH  11  18
ATOM     12  C   UNL     1       0.129  15.751  19.762  0.00  0.00    +0.000 C 
ATOM     13  O   UNL     1      -0.938  16.311  19.542  0.00  0.00    +0.000 OA
ATOM     14  N   UNL     1       0.299  14.383  19.747  0.00  0.00    +0.000 N 
ATOM     15  C   UNL     1      -0.820  13.520  19.376  0.00  0.00    +0.000 C 
ATOM     16  C   UNL     1      -0.411  12.531  18.275  0.00  0.00    +0.000 C 
ATOM     17  N   UNL     1       0.817  11.797  18.636  0.00  0.00    +0.000 N 
ATOM     18  C   UNL     1       0.844  10.410  18.506  0.00  0.00    +0.000 C 
ATOM     19  O   UNL     1      -0.163   9.806  18.126  0.00  0.00    +0.000 OA
ATOM     20  C   UNL     1       1.949  12.668  18.991  0.00  0.00    +0.000 C 
ATOM     21  C   UNL     1       1.552  13.693  20.075  0.00  0.00    +0.000 C 
BRANCH  12  22
ATOM     22  O   UNL     1       1.304  16.411  19.946  0.00  0.00    +0.000 OA
BRANCH  22  24
ATOM     23  C   UNL     1       2.566  16.692  17.939  0.00  0.00    +0.000 C 
ATOM     24  C   UNL     1       1.623  17.365  18.923  0.00  0.00    +0.000 C 
ENDBRANCH  22  24
ENDBRANCH  12  22
ENDBRANCH  11  18
ENDBRANCH  10  11
ENDBRANCH   1  10
BRANCH   7  25
ATOM     25  C   UNL     1       2.288   2.703  17.782  0.00  0.00    +0.000 C 
BRANCH  25  26
ATOM     26  C   UNL     1       3.758   2.292  17.710  0.00  0.00    +0.000 C 
BRANCH  26  27
ATOM     27  N   UNL     1       4.628   3.437  17.499  0.00  0.00    +0.000 N 
ATOM     28  C   UNL     1       5.364   3.962  18.540  0.00  0.00    +0.000 C 
ATOM     29  O   UNL     1       5.387   3.464  19.666  0.00  0.00    +0.000 OA
ATOM     30  H   UNL     1       4.524   3.953  16.638  0.00  0.00    +0.000 HD
BRANCH  28  31
ATOM     31  C   UNL     1       6.138   5.198  18.274  0.00  0.00    +0.000 A 
ATOM     32  C   UNL     1       5.649   6.074  17.295  0.00  0.00    +0.000 A 
ATOM     33  C   UNL     1       6.346   7.235  16.978  0.00  0.00    +0.000 A 
ATOM     34  C   UNL     1       7.532   7.535  17.645  0.00  0.00    +0.000 A 
ATOM     35  C   UNL     1       8.013   6.681  18.642  0.00  0.00    +0.000 A 
ATOM     36  C   UNL     1       7.317   5.516  18.961  0.00  0.00    +0.000 A 
ENDBRANCH  28  31
ENDBRANCH  26  27
ENDBRANCH  25  26
ENDBRANCH   7  25
TORSDOF 9
ENDMDL
MODEL 6
REMARK VINA RESULT:      -7.4      3.738      5.424
REMARK  Name = 
REMARK  10 active torsions:
REMARK  status: ('A' for Active; 'I' for Inactive)
REMARK    1  A    between atoms: C_1  and  C_2
REMARK    2  A    between atoms: C_2  and  O_3
REMARK    3  A    between atoms: O_3  and  C_4
REMARK    4  A    between atoms: C_10  and  C_12
REMARK    5  A    between atoms: C_12  and  S_13
REMARK    6  A    between atoms: S_13  and  C_14
REMARK    7  A    between atoms: C_20  and  C_21
REMARK    8  A    between atoms: C_21  and  C_22
REMARK    9  A    between atoms: C_22  and  N_23
REMARK   10  A    between atoms: C_24  and  C_26
REMARK                            x       y       z     vdW  Elec       q    Type
REMARK                         _______ _______ _______ _____ _____    ______ ____
ROOT
ATOM      1  C   UNL     1       3.661   5.502  17.715  0.00  0.00    +0.000 A 
ATOM      2  C   UNL     1       3.840   4.136  17.143  0.00  0.00    +0.000 A 
ATOM      3  C   UNL     1       5.025   3.858  16.573  0.00  0.00    +0.000 A 
ATOM      4  C   UNL     1       6.018   4.857  16.540  0.00  0.00    +0.000 A 
ATOM      5  N   UNL     1       7.248   4.877  16.077  0.00  0.00    +0.000 NA
ATOM      6  N   UNL     1       7.774   6.121  16.340  0.00  0.00    +0.000 NA
ATOM      7  C   UNL     1       6.850   6.836  16.949  0.00  0.00    +0.000 A 
ATOM      8  N   UNL     1       5.713   6.080  17.106  0.00  0.00    +0.000 N 
ATOM      9  N   UNL     1       4.543   6.453  17.714  0.00  0.00    +0.000 NA
ENDROOT
BRANCH   1  10
ATOM     10  S   UNL     1       2.093   5.746  18.450  0.00  0.00    +0.000 S 
BRANCH  10  11
ATOM     11  C   UNL     1       2.338   7.265  19.448  0.00  0.00    +0.000 C 
BRANCH  11  18
ATOM     12  C   UNL     1      -1.480  12.197  21.154  0.00  0.00    +0.000 C 
ATOM     13  O   UNL     1      -1.940  13.144  20.528  0.00  0.00    +0.000 OA
ATOM     14  N   UNL     1      -0.891  11.098  20.565  0.00  0.00    +0.000 N 
ATOM     15  C   UNL     1      -0.718  11.060  19.115  0.00  0.00    +0.000 C 
ATOM     16  C   UNL     1       0.735  10.730  18.742  0.00  0.00    +0.000 C 
ATOM     17  N   UNL     1       1.208   9.515  19.433  0.00  0.00    +0.000 N 
ATOM     18  C   UNL     1       1.842   8.517  18.698  0.00  0.00    +0.000 C 
ATOM     19  O   UNL     1       1.972   8.638  17.476  0.00  0.00    +0.000 OA
ATOM     20  C   UNL     1       1.051   9.562  20.895  0.00  0.00    +0.000 C 
ATOM     21  C   UNL     1      -0.395   9.925  21.295  0.00  0.00    +0.000 C 
BRANCH  12  22
ATOM     22  O   UNL     1      -1.398  12.158  22.510  0.00  0.00    +0.000 OA
BRANCH  22  24
ATOM     23  C   UNL     1      -2.636  13.698  23.849  0.00  0.00    +0.000 C 
ATOM     24  C   UNL     1      -1.314  13.441  23.145  0.00  0.00    +0.000 C 
ENDBRANCH  22  24
ENDBRANCH  12  22
ENDBRANCH  11  18
ENDBRANCH  10  11
ENDBRANCH   1  10
BRANCH   7  25
ATOM     25  C   UNL     1       6.964   8.222  17.457  0.00  0.00    +0.000 C 
BRANCH  25  26
ATOM     26  C   UNL     1       8.266   8.456  18.222  0.00  0.00    +0.000 C 
BRANCH  26  27
ATOM     27  N   UNL     1       8.843   9.755  17.920  0.00  0.00    +0.000 N 
ATOM     28  C   UNL     1       9.252  10.596  18.933  0.00  0.00    +0.000 C 
ATOM     29  O   UNL     1       9.222  10.280  20.122  0.00  0.00    +0.000 OA
ATOM     30  H   UNL     1       8.749  10.102  16.976  0.00  0.00    +0.000 HD
BRANCH  28  31
ATOM     31  C   UNL     1       9.724  11.948  18.549  0.00  0.00    +0.000 A 
ATOM     32  C   UNL     1      10.605  12.046  17.463  0.00  0.00    +0.000 A 
ATOM     33  C   UNL     1      11.107  13.284  17.074  0.00  0.00    +0.000 A 
ATOM     34  C   UNL     1      10.722  14.434  17.761  0.00  0.00    +0.000 A 
ATOM     35  C   UNL     1       9.822  14.349  18.827  0.00  0.00    +0.000 A 
ATOM     36  C   UNL     1       9.318  13.109  19.220  0.00  0.00    +0.000 A 
ENDBRANCH  28  31
ENDBRANCH  26  27
ENDBRANCH  25  26
ENDBRANCH   7  25
TORSDOF 9
ENDMDL
MODEL 7
REMARK VINA RESULT:      -7.3      3.575      5.410
REMARK  Name = 
REMARK  10 active torsions:
REMARK  status: ('A' for Active; 'I' for Inactive)
REMARK    1  A    between atoms: C_1  and  C_2
REMARK    2  A    between atoms: C_2  and  O_3
REMARK    3  A    between atoms: O_3  and  C_4
REMARK    4  A    between atoms: C_10  and  C_12
REMARK    5  A    between atoms: C_12  and  S_13
REMARK    6  A    between atoms: S_13  and  C_14
REMARK    7  A    between atoms: C_20  and  C_21
REMARK    8  A    between atoms: C_21  and  C_22
REMARK    9  A    between atoms: C_22  and  N_23
REMARK   10  A    between atoms: C_24  and  C_26
REMARK                            x       y       z     vdW  Elec       q    Type
REMARK                         _______ _______ _______ _____ _____    ______ ____
ROOT
ATOM      1  C   UNL     1       3.857   4.970  18.273  0.00  0.00    +0.000 A 
ATOM      2  C   UNL     1       3.581   4.021  17.155  0.00  0.00    +0.000 A 
ATOM      3  C   UNL     1       4.517   3.912  16.196  0.00  0.00    +0.000 A 
ATOM      4  C   UNL     1       5.687   4.692  16.292  0.00  0.00    +0.000 A 
ATOM      5  N   UNL     1       6.758   4.789  15.537  0.00  0.00    +0.000 NA
ATOM      6  N   UNL     1       7.606   5.697  16.128  0.00  0.00    +0.000 NA
ATOM      7  C   UNL     1       7.029   6.141  17.226  0.00  0.00    +0.000 A 
ATOM      8  N   UNL     1       5.807   5.532  17.383  0.00  0.00    +0.000 N 
ATOM      9  N   UNL     1       4.917   5.705  18.410  0.00  0.00    +0.000 NA
ENDROOT
BRANCH   1  10
ATOM     10  S   UNL     1       2.585   5.014  19.473  0.00  0.00    +0.000 S 
BRANCH  10  11
ATOM     11  C   UNL     1       2.626   6.754  20.051  0.00  0.00    +0.000 C 
BRANCH  11  18
ATOM     12  C   UNL     1      -1.313  11.861  20.505  0.00  0.00    +0.000 C 
ATOM     13  O   UNL     1      -1.859  12.564  19.663  0.00  0.00    +0.000 OA
ATOM     14  N   UNL     1      -0.710  10.654  20.226  0.00  0.00    +0.000 N 
ATOM     15  C   UNL     1      -0.630  10.188  18.843  0.00  0.00    +0.000 C 
ATOM     16  C   UNL     1       0.810   9.802  18.474  0.00  0.00    +0.000 C 
ATOM     17  N   UNL     1       1.387   8.864  19.456  0.00  0.00    +0.000 N 
ATOM     18  C   UNL     1       2.021   7.709  19.004  0.00  0.00    +0.000 C 
ATOM     19  O   UNL     1       2.065   7.462  17.795  0.00  0.00    +0.000 OA
ATOM     20  C   UNL     1       1.323   9.342  20.846  0.00  0.00    +0.000 C 
ATOM     21  C   UNL     1      -0.110   9.767  21.231  0.00  0.00    +0.000 C 
BRANCH  12  22
ATOM     22  O   UNL     1      -1.141  12.233  21.802  0.00  0.00    +0.000 OA
BRANCH  22  24
ATOM     23  C   UNL     1      -2.968  12.150  23.336  0.00  0.00    +0.000 C 
ATOM     24  C   UNL     1      -2.209  13.020  22.347  0.00  0.00    +0.000 C 
ENDBRANCH  22  24
ENDBRANCH  12  22
ENDBRANCH  11  18
ENDBRANCH  10  11
ENDBRANCH   1  10
BRANCH   7  25
ATOM     25  C   UNL     1       7.573   7.104  18.211  0.00  0.00    +0.000 C 
BRANCH  25  26
ATOM     26  C   UNL     1       7.671   8.521  17.644  0.00  0.00    +0.000 C 
BRANCH  26  27
ATOM     27  N   UNL     1       8.684   9.306  18.329  0.00  0.00    +0.000 N 
ATOM     28  C   UNL     1       8.759  10.671  18.147  0.00  0.00    +0.000 C 
ATOM     29  O   UNL     1       7.950  11.303  17.467  0.00  0.00    +0.000 OA
ATOM     30  H   UNL     1       9.443   8.809  18.772  0.00  0.00    +0.000 HD
BRANCH  28  31
ATOM     31  C   UNL     1       9.888  11.385  18.788  0.00  0.00    +0.000 A 
ATOM     32  C   UNL     1       9.581  12.342  19.765  0.00  0.00    +0.000 A 
ATOM     33  C   UNL     1      10.595  13.068  20.382  0.00  0.00    +0.000 A 
ATOM     34  C   UNL     1      11.924  12.833  20.035  0.00  0.00    +0.000 A 
ATOM     35  C   UNL     1      12.241  11.860  19.082  0.00  0.00    +0.000 A 
ATOM     36  C   UNL     1      11.227  11.133  18.462  0.00  0.00    +0.000 A 
ENDBRANCH  28  31
ENDBRANCH  26  27
ENDBRANCH  25  26
ENDBRANCH   7  25
TORSDOF 9
ENDMDL
MODEL 8
REMARK VINA RESULT:      -7.3      3.237      4.996
REMARK  Name = 
REMARK  10 active torsions:
REMARK  status: ('A' for Active; 'I' for Inactive)
REMARK    1  A    between atoms: C_1  and  C_2
REMARK    2  A    between atoms: C_2  and  O_3
REMARK    3  A    between atoms: O_3  and  C_4
REMARK    4  A    between atoms: C_10  and  C_12
REMARK    5  A    between atoms: C_12  and  S_13
REMARK    6  A    between atoms: S_13  and  C_14
REMARK    7  A    between atoms: C_20  and  C_21
REMARK    8  A    between atoms: C_21  and  C_22
REMARK    9  A    between atoms: C_22  and  N_23
REMARK   10  A    between atoms: C_24  and  C_26
REMARK                            x       y       z     vdW  Elec       q    Type
REMARK                         _______ _______ _______ _____ _____    ______ ____
ROOT
ATOM      1  C   UNL     1       3.628   5.020  17.922  0.00  0.00    +0.000 A 
ATOM      2  C   UNL     1       3.472   3.795  17.085  0.00  0.00    +0.000 A 
ATOM      3  C   UNL     1       4.465   3.506  16.226  0.00  0.00    +0.000 A 
ATOM      4  C   UNL     1       5.580   4.366  16.157  0.00  0.00    +0.000 A 
ATOM      5  N   UNL     1       6.683   4.339  15.445  0.00  0.00    +0.000 NA
ATOM      6  N   UNL     1       7.442   5.428  15.807  0.00  0.00    +0.000 NA
ATOM      7  C   UNL     1       6.780   6.101  16.726  0.00  0.00    +0.000 A 
ATOM      8  N   UNL     1       5.588   5.468  16.990  0.00  0.00    +0.000 N 
ATOM      9  N   UNL     1       4.633   5.839  17.900  0.00  0.00    +0.000 NA
ENDROOT
BRANCH   1  10
ATOM     10  S   UNL     1       2.290   5.286  19.017  0.00  0.00    +0.000 S 
BRANCH  10  11
ATOM     11  C   UNL     1       2.618   6.970  19.665  0.00  0.00    +0.000 C 
BRANCH  11  18
ATOM     12  C   UNL     1      -1.461  11.842  20.865  0.00  0.00    +0.000 C 
ATOM     13  O   UNL     1      -2.030  12.645  20.136  0.00  0.00    +0.000 OA
ATOM     14  N   UNL     1      -0.825  10.706  20.411  0.00  0.00    +0.000 N 
ATOM     15  C   UNL     1      -0.739  10.450  18.976  0.00  0.00    +0.000 C 
ATOM     16  C   UNL     1       0.710  10.163  18.553  0.00  0.00    +0.000 C 
ATOM     17  N   UNL     1       1.317   9.108  19.386  0.00  0.00    +0.000 N 
ATOM     18  C   UNL     1       1.981   8.050  18.769  0.00  0.00    +0.000 C 
ATOM     19  O   UNL     1       2.026   7.985  17.537  0.00  0.00    +0.000 OA
ATOM     20  C   UNL     1       1.246   9.376  20.832  0.00  0.00    +0.000 C 
ATOM     21  C   UNL     1      -0.196   9.699  21.275  0.00  0.00    +0.000 C 
BRANCH  12  22
ATOM     22  O   UNL     1      -1.293  12.024  22.202  0.00  0.00    +0.000 OA
BRANCH  22  24
ATOM     23  C   UNL     1      -1.959  13.893  23.530  0.00  0.00    +0.000 C 
ATOM     24  C   UNL     1      -0.901  13.350  22.583  0.00  0.00    +0.000 C 
ENDBRANCH  22  24
ENDBRANCH  12  22
ENDBRANCH  11  18
ENDBRANCH  10  11
ENDBRANCH   1  10
BRANCH   7  25
ATOM     25  C   UNL     1       7.209   7.325  17.440  0.00  0.00    +0.000 C 
BRANCH  25  26
ATOM     26  C   UNL     1       8.079   7.012  18.657  0.00  0.00    +0.000 C 
BRANCH  26  27
ATOM     27  N   UNL     1       8.808   8.184  19.114  0.00  0.00    +0.000 N 
ATOM     28  C   UNL     1       8.633   9.405  18.499  0.00  0.00    +0.000 C 
ATOM     29  O   UNL     1       7.817   9.592  17.595  0.00  0.00    +0.000 OA
ATOM     30  H   UNL     1       9.581   8.039  19.746  0.00  0.00    +0.000 HD
BRANCH  28  31
ATOM     31  C   UNL     1       9.495  10.525  18.946  0.00  0.00    +0.000 A 
ATOM     32  C   UNL     1      10.130  11.291  17.958  0.00  0.00    +0.000 A 
ATOM     33  C   UNL     1      10.976  12.337  18.315  0.00  0.00    +0.000 A 
ATOM     34  C   UNL     1      11.184  12.631  19.661  0.00  0.00    +0.000 A 
ATOM     35  C   UNL     1      10.532  11.890  20.652  0.00  0.00    +0.000 A 
ATOM     36  C   UNL     1       9.685  10.842  20.297  0.00  0.00    +0.000 A 
ENDBRANCH  28  31
ENDBRANCH  26  27
ENDBRANCH  25  26
ENDBRANCH   7  25
TORSDOF 9
ENDMDL
MODEL 9
REMARK VINA RESULT:      -7.2      3.476      5.487
REMARK  Name = 
REMARK  10 active torsions:
REMARK  status: ('A' for Active; 'I' for Inactive)
REMARK    1  A    between atoms: C_1  and  C_2
REMARK    2  A    between atoms: C_2  and  O_3
REMARK    3  A    between atoms: O_3  and  C_4
REMARK    4  A    between atoms: C_10  and  C_12
REMARK    5  A    between atoms: C_12  and  S_13
REMARK    6  A    between atoms: S_13  and  C_14
REMARK    7  A    between atoms: C_20  and  C_21
REMARK    8  A    between atoms: C_21  and  C_22
REMARK    9  A    between atoms: C_22  and  N_23
REMARK   10  A    between atoms: C_24  and  C_26
REMARK                            x       y       z     vdW  Elec       q    Type
REMARK                         _______ _______ _______ _____ _____    ______ ____
ROOT
ATOM      1  C   UNL     1       3.352   5.946  18.940  0.00  0.00    +0.000 A 
ATOM      2  C   UNL     1       2.624   4.941  18.111  0.00  0.00    +0.000 A 
ATOM      3  C   UNL     1       3.340   4.262  17.198  0.00  0.00    +0.000 A 
ATOM      4  C   UNL     1       4.717   4.536  17.068  0.00  0.00    +0.000 A 
ATOM      5  N   UNL     1       5.655   4.037  16.296  0.00  0.00    +0.000 NA
ATOM      6  N   UNL     1       6.838   4.663  16.616  0.00  0.00    +0.000 NA
ATOM      7  C   UNL     1       6.592   5.537  17.571  0.00  0.00    +0.000 A 
ATOM      8  N   UNL     1       5.258   5.496  17.901  0.00  0.00    +0.000 N 
ATOM      9  N   UNL     1       4.615   6.231  18.862  0.00  0.00    +0.000 NA
ENDROOT
BRANCH   1  10
ATOM     10  S   UNL     1       2.331   6.752  20.107  0.00  0.00    +0.000 S 
BRANCH  10  11
ATOM     11  C   UNL     1       1.860   8.301  19.244  0.00  0.00    +0.000 C 
BRANCH  11  18
ATOM     12  C   UNL     1       1.035  14.694  19.745  0.00  0.00    +0.000 C 
ATOM     13  O   UNL     1       0.365  15.386  20.501  0.00  0.00    +0.000 OA
ATOM     14  N   UNL     1       1.289  13.354  19.949  0.00  0.00    +0.000 N 
ATOM     15  C   UNL     1       0.676  12.667  21.083  0.00  0.00    +0.000 C 
ATOM     16  C   UNL     1      -0.043  11.387  20.628  0.00  0.00    +0.000 C 
ATOM     17  N   UNL     1       0.841  10.530  19.816  0.00  0.00    +0.000 N 
ATOM     18  C   UNL     1       0.940   9.174  20.118  0.00  0.00    +0.000 C 
ATOM     19  O   UNL     1       0.320   8.709  21.079  0.00  0.00    +0.000 OA
ATOM     20  C   UNL     1       1.443  11.219  18.663  0.00  0.00    +0.000 C 
ATOM     21  C   UNL     1       2.144  12.525  19.090  0.00  0.00    +0.000 C 
BRANCH  12  22
ATOM     22  O   UNL     1       1.526  15.133  18.555  0.00  0.00    +0.000 OA
BRANCH  22  24
ATOM     23  C   UNL     1       3.076  16.453  17.308  0.00  0.00    +0.000 C 
ATOM     24  C   UNL     1       2.371  16.289  18.645  0.00  0.00    +0.000 C 
ENDBRANCH  22  24
ENDBRANCH  12  22
ENDBRANCH  11  18
ENDBRANCH  10  11
ENDBRANCH   1  10
BRANCH   7  25
ATOM     25  C   UNL     1       7.558   6.422  18.262  0.00  0.00    +0.000 C 
BRANCH  25  26
ATOM     26  C   UNL     1       7.595   7.826  17.657  0.00  0.00    +0.000 C 
BRANCH  26  27
ATOM     27  N   UNL     1       8.564   8.676  18.329  0.00  0.00    +0.000 N 
ATOM     28  C   UNL     1       8.596  10.033  18.087  0.00  0.00    +0.000 C 
ATOM     29  O   UNL     1       7.783  10.606  17.361  0.00  0.00    +0.000 OA
ATOM     30  H   UNL     1       9.328   8.226  18.811  0.00  0.00    +0.000 HD
BRANCH  28  31
ATOM     31  C   UNL     1       9.684  10.814  18.721  0.00  0.00    +0.000 A 
ATOM     32  C   UNL     1       9.618  11.015  20.108  0.00  0.00    +0.000 A 
ATOM     33  C   UNL     1      10.593  11.765  20.757  0.00  0.00    +0.000 A 
ATOM     34  C   UNL     1      11.647  12.311  20.027  0.00  0.00    +0.000 A 
ATOM     35  C   UNL     1      11.736  12.093  18.649  0.00  0.00    +0.000 A 
ATOM     36  C   UNL     1      10.759  11.342  17.996  0.00  0.00    +0.000 A 
ENDBRANCH  28  31
ENDBRANCH  26  27
ENDBRANCH  25  26
ENDBRANCH   7  25
TORSDOF 9
ENDMDL
