MODEL 1
REMARK VINA RESULT:      -7.7      0.000      0.000
REMARK  Name = 
REMARK  2 active torsions:
REMARK  status: ('A' for Active; 'I' for Inactive)
REMARK    1  A    between atoms: C_2  and  C_9
REMARK    2  A    between atoms: C_12  and  C_13
REMARK                            x       y       z     vdW  Elec       q    Type
REMARK                         _______ _______ _______ _____ _____    ______ ____
ROOT
ATOM      1  C   UNL     1       6.099   5.148  17.564  0.00  0.00    +0.000 A 
ATOM      2  C   UNL     1       6.617   5.398  18.820  0.00  0.00    +0.000 A 
ATOM      3  C   UNL     1       5.650   4.995  19.754  0.00  0.00    +0.000 A 
ATOM      4  C   UNL     1       4.569   4.519  19.032  0.00  0.00    +0.000 A 
ATOM      5  O   UNL     1       4.839   4.609  17.686  0.00  0.00    +0.000 OA
ENDROOT
BRANCH   1   7
ATOM      6  O   UNL     1       7.466   6.372  16.149  0.00  0.00    +0.000 OA
ATOM      7  C   UNL     1       6.746   5.386  16.286  0.00  0.00    +0.000 C 
ATOM      8  N   UNL     1       6.450   4.487  15.282  0.00  0.00    +0.000 N 
ATOM      9  C   UNL     1       6.957   4.670  14.021  0.00  0.00    +0.000 A 
ATOM     10  N   UNL     1       7.880   5.510  13.626  0.00  0.00    +0.000 NA
ATOM     11  C   UNL     1       8.055   5.417  12.262  0.00  0.00    +0.000 A 
ATOM     12  C   UNL     1       7.248   4.492  11.631  0.00  0.00    +0.000 A 
ATOM     13  S   UNL     1       6.278   3.686  12.802  0.00  0.00    +0.000 S 
ATOM     14  H   UNL     1       5.767   3.761  15.438  0.00  0.00    +0.000 HD
ENDBRANCH   1   7
BRANCH   4  15
ATOM     15  C   UNL     1       3.286   3.969  19.484  0.00  0.00    +0.000 A 
ATOM     16  C   UNL     1       2.427   4.828  20.207  0.00  0.00    +0.000 A 
ATOM     17  C   UNL     1       1.131   4.448  20.568  0.00  0.00    +0.000 A 
ATOM     18  C   UNL     1       0.663   3.189  20.218  0.00  0.00    +0.000 A 
ATOM     19  C   UNL     1       1.498   2.312  19.527  0.00  0.00    +0.000 A 
ATOM     20  C   UNL     1       2.802   2.691  19.162  0.00  0.00    +0.000 A 
ATOM     21 CL   UNL     1       3.717   1.535  18.253  0.00  0.00    +0.000 Cl
ENDBRANCH   4  15
TORSDOF 2
ENDMDL
MODEL 2
REMARK VINA RESULT:      -7.4      1.300      1.662
REMARK  Name = 
REMARK  2 active torsions:
REMARK  status: ('A' for Active; 'I' for Inactive)
REMARK    1  A    between atoms: C_2  and  C_9
REMARK    2  A    between atoms: C_12  and  C_13
REMARK                            x       y       z     vdW  Elec       q    Type
REMARK                         _______ _______ _______ _____ _____    ______ ____
ROOT
ATOM      1  C   UNL     1       6.134   5.223  17.560  0.00  0.00    +0.000 A 
ATOM      2  C   UNL     1       6.696   5.417  18.807  0.00  0.00    +0.000 A 
ATOM      3  C   UNL     1       5.724   5.070  19.757  0.00  0.00    +0.000 A 
ATOM      4  C   UNL     1       4.596   4.682  19.055  0.00  0.00    +0.000 A 
ATOM      5  O   UNL     1       4.842   4.772  17.704  0.00  0.00    +0.000 OA
ENDROOT
BRANCH   1   7
ATOM      6  O   UNL     1       7.487   6.416  16.104  0.00  0.00    +0.000 OA
ATOM      7  C   UNL     1       6.768   5.432  16.270  0.00  0.00    +0.000 C 
ATOM      8  N   UNL     1       6.462   4.512  15.289  0.00  0.00    +0.000 N 
ATOM      9  C   UNL     1       6.955   4.668  14.019  0.00  0.00    +0.000 A 
ATOM     10  N   UNL     1       7.874   5.499  13.597  0.00  0.00    +0.000 NA
ATOM     11  C   UNL     1       8.035   5.376  12.233  0.00  0.00    +0.000 A 
ATOM     12  C   UNL     1       7.221   4.437  11.631  0.00  0.00    +0.000 A 
ATOM     13  S   UNL     1       6.264   3.656  12.829  0.00  0.00    +0.000 S 
ATOM     14  H   UNL     1       5.781   3.789  15.469  0.00  0.00    +0.000 HD
ENDBRANCH   1   7
BRANCH   4  15
ATOM     15  C   UNL     1       3.288   4.219  19.529  0.00  0.00    +0.000 A 
ATOM     16  C   UNL     1       3.105   2.825  19.677  0.00  0.00    +0.000 A 
ATOM     17  C   UNL     1       1.947   2.286  20.245  0.00  0.00    +0.000 A 
ATOM     18  C   UNL     1       0.936   3.133  20.675  0.00  0.00    +0.000 A 
ATOM     19  C   UNL     1       1.078   4.512  20.518  0.00  0.00    +0.000 A 
ATOM     20  C   UNL     1       2.242   5.058  19.948  0.00  0.00    +0.000 A 
ATOM     21 CL   UNL     1       2.325   6.785  19.865  0.00  0.00    +0.000 Cl
ENDBRANCH   4  15
TORSDOF 2
ENDMDL
MODEL 3
REMARK VINA RESULT:      -7.3      5.357      8.019
REMARK  Name = 
REMARK  2 active torsions:
REMARK  status: ('A' for Active; 'I' for Inactive)
REMARK    1  A    between atoms: C_2  and  C_9
REMARK    2  A    between atoms: C_12  and  C_13
REMARK                            x       y       z     vdW  Elec       q    Type
REMARK                         _______ _______ _______ _____ _____    ______ ____
ROOT
ATOM      1  C   UNL     1       2.452   6.775  19.597  0.00  0.00    +0.000 A 
ATOM      2  C   UNL     1       2.357   5.600  20.316  0.00  0.00    +0.000 A 
ATOM      3  C   UNL     1       3.286   4.703  19.767  0.00  0.00    +0.000 A 
ATOM      4  C   UNL     1       3.912   5.361  18.724  0.00  0.00    +0.000 A 
ATOM      5  O   UNL     1       3.406   6.637  18.615  0.00  0.00    +0.000 OA
ENDROOT
BRANCH   1   7
ATOM      6  O   UNL     1       1.681   8.857  18.933  0.00  0.00    +0.000 OA
ATOM      7  C   UNL     1       1.699   7.999  19.812  0.00  0.00    +0.000 C 
ATOM      8  N   UNL     1       1.090   8.125  21.043  0.00  0.00    +0.000 N 
ATOM      9  C   UNL     1       0.417   9.276  21.364  0.00  0.00    +0.000 A 
ATOM     10  N   UNL     1       0.080  10.270  20.582  0.00  0.00    +0.000 NA
ATOM     11  C   UNL     1      -0.534  11.264  21.314  0.00  0.00    +0.000 A 
ATOM     12  C   UNL     1      -0.656  11.004  22.664  0.00  0.00    +0.000 A 
ATOM     13  S   UNL     1      -0.021   9.442  23.007  0.00  0.00    +0.000 S 
ATOM     14  H   UNL     1       1.235   7.424  21.753  0.00  0.00    +0.000 HD
ENDBRANCH   1   7
BRANCH   4  15
ATOM     15  C   UNL     1       4.964   4.913  17.805  0.00  0.00    +0.000 A 
ATOM     16  C   UNL     1       4.564   4.458  16.528  0.00  0.00    +0.000 A 
ATOM     17  C   UNL     1       5.490   4.135  15.532  0.00  0.00    +0.000 A 
ATOM     18  C   UNL     1       6.848   4.253  15.794  0.00  0.00    +0.000 A 
ATOM     19  C   UNL     1       7.272   4.675  17.054  0.00  0.00    +0.000 A 
ATOM     20  C   UNL     1       6.343   5.001  18.058  0.00  0.00    +0.000 A 
ATOM     21 CL   UNL     1       6.994   5.571  19.557  0.00  0.00    +0.000 Cl
ENDBRANCH   4  15
TORSDOF 2
ENDMDL
MODEL 4
REMARK VINA RESULT:      -7.3      1.320      1.475
REMARK  Name = 
REMARK  2 active torsions:
REMARK  status: ('A' for Active; 'I' for Inactive)
REMARK    1  A    between atoms: C_2  and  C_9
REMARK    2  A    between atoms: C_12  and  C_13
REMARK                            x       y       z     vdW  Elec       q    Type
REMARK                         _______ _______ _______ _____ _____    ______ ____
ROOT
ATOM      1  C   UNL     1       4.609   5.842  17.131  0.00  0.00    +0.000 A 
ATOM      2  C   UNL     1       3.837   6.915  17.532  0.00  0.00    +0.000 A 
ATOM      3  C   UNL     1       2.988   6.454  18.551  0.00  0.00    +0.000 A 
ATOM      4  C   UNL     1       3.267   5.111  18.730  0.00  0.00    +0.000 A 
ATOM      5  O   UNL     1       4.265   4.729  17.862  0.00  0.00    +0.000 OA
ENDROOT
BRANCH   1   7
ATOM      6  O   UNL     1       6.493   6.731  16.115  0.00  0.00    +0.000 OA
ATOM      7  C   UNL     1       5.645   5.840  16.113  0.00  0.00    +0.000 C 
ATOM      8  N   UNL     1       5.561   4.841  15.166  0.00  0.00    +0.000 N 
ATOM      9  C   UNL     1       6.453   4.800  14.125  0.00  0.00    +0.000 A 
ATOM     10  N   UNL     1       7.553   5.492  13.965  0.00  0.00    +0.000 NA
ATOM     11  C   UNL     1       8.128   5.194  12.748  0.00  0.00    +0.000 A 
ATOM     12  C   UNL     1       7.444   4.266  11.990  0.00  0.00    +0.000 A 
ATOM     13  S   UNL     1       6.064   3.719  12.861  0.00  0.00    +0.000 S 
ATOM     14  H   UNL     1       4.777   4.207  15.168  0.00  0.00    +0.000 HD
ENDBRANCH   1   7
BRANCH   4  15
ATOM     15  C   UNL     1       2.692   4.131  19.657  0.00  0.00    +0.000 A 
ATOM     16  C   UNL     1       2.566   4.510  21.013  0.00  0.00    +0.000 A 
ATOM     17  C   UNL     1       1.912   3.706  21.950  0.00  0.00    +0.000 A 
ATOM     18  C   UNL     1       1.370   2.491  21.552  0.00  0.00    +0.000 A 
ATOM     19  C   UNL     1       1.502   2.079  20.226  0.00  0.00    +0.000 A 
ATOM     20  C   UNL     1       2.160   2.886  19.281  0.00  0.00    +0.000 A 
ATOM     21 CL   UNL     1       2.203   2.292  17.655  0.00  0.00    +0.000 Cl
ENDBRANCH   4  15
TORSDOF 2
ENDMDL
MODEL 5
REMARK VINA RESULT:      -7.0      5.568      7.785
REMARK  Name = 
REMARK  2 active torsions:
REMARK  status: ('A' for Active; 'I' for Inactive)
REMARK    1  A    between atoms: C_2  and  C_9
REMARK    2  A    between atoms: C_12  and  C_13
REMARK                            x       y       z     vdW  Elec       q    Type
REMARK                         _______ _______ _______ _____ _____    ______ ____
ROOT
ATOM      1  C   UNL     1       2.564   7.633  18.614  0.00  0.00    +0.000 A 
ATOM      2  C   UNL     1       2.446   6.677  19.604  0.00  0.00    +0.000 A 
ATOM      3  C   UNL     1       3.373   5.664  19.314  0.00  0.00    +0.000 A 
ATOM      4  C   UNL     1       4.022   6.035  18.149  0.00  0.00    +0.000 A 
ATOM      5  O   UNL     1       3.531   7.245  17.715  0.00  0.00    +0.000 OA
ENDROOT
BRANCH   1   7
ATOM      6  O   UNL     1       1.912   9.541  17.472  0.00  0.00    +0.000 OA
ATOM      7  C   UNL     1       1.821   8.876  18.502  0.00  0.00    +0.000 C 
ATOM      8  N   UNL     1       1.093   9.248  19.613  0.00  0.00    +0.000 N 
ATOM      9  C   UNL     1       0.418  10.441  19.627  0.00  0.00    +0.000 A 
ATOM     10  N   UNL     1       0.184  11.259  18.631  0.00  0.00    +0.000 NA
ATOM     11  C   UNL     1      -0.477  12.380  19.084  0.00  0.00    +0.000 A 
ATOM     12  C   UNL     1      -0.741  12.397  20.438  0.00  0.00    +0.000 A 
ATOM     13  S   UNL     1      -0.180  10.934  21.149  0.00  0.00    +0.000 S 
ATOM     14  H   UNL     1       1.150   8.703  20.460  0.00  0.00    +0.000 HD
ENDBRANCH   1   7
BRANCH   4  15
ATOM     15  C   UNL     1       5.082   5.363  17.391  0.00  0.00    +0.000 A 
ATOM     16  C   UNL     1       4.799   5.004  16.053  0.00  0.00    +0.000 A 
ATOM     17  C   UNL     1       5.778   4.481  15.203  0.00  0.00    +0.000 A 
ATOM     18  C   UNL     1       7.070   4.297  15.677  0.00  0.00    +0.000 A 
ATOM     19  C   UNL     1       7.371   4.618  17.000  0.00  0.00    +0.000 A 
ATOM     20  C   UNL     1       6.388   5.145  17.858  0.00  0.00    +0.000 A 
ATOM     21 CL   UNL     1       6.902   5.560  19.458  0.00  0.00    +0.000 Cl
ENDBRANCH   4  15
TORSDOF 2
ENDMDL
MODEL 6
REMARK VINA RESULT:      -7.0      5.919      7.975
REMARK  Name = 
REMARK  2 active torsions:
REMARK  status: ('A' for Active; 'I' for Inactive)
REMARK    1  A    between atoms: C_2  and  C_9
REMARK    2  A    between atoms: C_12  and  C_13
REMARK                            x       y       z     vdW  Elec       q    Type
REMARK                         _______ _______ _______ _____ _____    ______ ____
ROOT
ATOM      1  C   UNL     1       2.032   8.275  18.726  0.00  0.00    +0.000 A 
ATOM      2  C   UNL     1       2.978   8.426  17.731  0.00  0.00    +0.000 A 
ATOM      3  C   UNL     1       3.505   7.153  17.465  0.00  0.00    +0.000 A 
ATOM      4  C   UNL     1       2.865   6.268  18.314  0.00  0.00    +0.000 A 
ATOM      5  O   UNL     1       1.957   6.950  19.091  0.00  0.00    +0.000 OA
ENDROOT
BRANCH   1   7
ATOM      6  O   UNL     1       1.051  10.374  18.716  0.00  0.00    +0.000 OA
ATOM      7  C   UNL     1       1.207   9.314  19.318  0.00  0.00    +0.000 C 
ATOM      8  N   UNL     1       0.695   9.040  20.569  0.00  0.00    +0.000 N 
ATOM      9  C   UNL     1      -0.035   9.989  21.238  0.00  0.00    +0.000 A 
ATOM     10  N   UNL     1      -0.512  11.122  20.785  0.00  0.00    +0.000 NA
ATOM     11  C   UNL     1      -1.136  11.813  21.800  0.00  0.00    +0.000 A 
ATOM     12  C   UNL     1      -1.125  11.185  23.029  0.00  0.00    +0.000 A 
ATOM     13  S   UNL     1      -0.346   9.657  22.884  0.00  0.00    +0.000 S 
ATOM     14  H   UNL     1       0.952   8.190  21.046  0.00  0.00    +0.000 HD
ENDBRANCH   1   7
BRANCH   4  15
ATOM     15  C   UNL     1       3.014   4.817  18.470  0.00  0.00    +0.000 A 
ATOM     16  C   UNL     1       1.931   4.003  18.066  0.00  0.00    +0.000 A 
ATOM     17  C   UNL     1       2.018   2.608  18.048  0.00  0.00    +0.000 A 
ATOM     18  C   UNL     1       3.196   1.990  18.443  0.00  0.00    +0.000 A 
ATOM     19  C   UNL     1       4.272   2.767  18.871  0.00  0.00    +0.000 A 
ATOM     20  C   UNL     1       4.188   4.170  18.890  0.00  0.00    +0.000 A 
ATOM     21 CL   UNL     1       5.612   5.023  19.383  0.00  0.00    +0.000 Cl
ENDBRANCH   4  15
TORSDOF 2
ENDMDL
MODEL 7
REMARK VINA RESULT:      -7.0      6.128      8.298
REMARK  Name = 
REMARK  2 active torsions:
REMARK  status: ('A' for Active; 'I' for Inactive)
REMARK    1  A    between atoms: C_2  and  C_9
REMARK    2  A    between atoms: C_12  and  C_13
REMARK                            x       y       z     vdW  Elec       q    Type
REMARK                         _______ _______ _______ _____ _____    ______ ____
ROOT
ATOM      1  C   UNL     1       1.779   8.121  19.711  0.00  0.00    +0.000 A 
ATOM      2  C   UNL     1       2.258   8.467  18.463  0.00  0.00    +0.000 A 
ATOM      3  C   UNL     1       2.730   7.290  17.860  0.00  0.00    +0.000 A 
ATOM      4  C   UNL     1       2.529   6.266  18.768  0.00  0.00    +0.000 A 
ATOM      5  O   UNL     1       1.943   6.769  19.908  0.00  0.00    +0.000 OA
ENDROOT
BRANCH   1   7
ATOM      6  O   UNL     1       1.356   8.786  21.890  0.00  0.00    +0.000 OA
ATOM      7  C   UNL     1       1.175   9.003  20.694  0.00  0.00    +0.000 C 
ATOM      8  N   UNL     1       0.381  10.013  20.193  0.00  0.00    +0.000 N 
ATOM      9  C   UNL     1      -0.289  10.852  21.046  0.00  0.00    +0.000 A 
ATOM     10  N   UNL     1      -0.152  10.977  22.342  0.00  0.00    +0.000 NA
ATOM     11  C   UNL     1      -1.062  11.891  22.829  0.00  0.00    +0.000 A 
ATOM     12  C   UNL     1      -1.890  12.455  21.880  0.00  0.00    +0.000 A 
ATOM     13  S   UNL     1      -1.473  11.849  20.324  0.00  0.00    +0.000 S 
ATOM     14  H   UNL     1       0.195  10.066  19.203  0.00  0.00    +0.000 HD
ENDBRANCH   1   7
BRANCH   4  15
ATOM     15  C   UNL     1       2.827   4.833  18.673  0.00  0.00    +0.000 A 
ATOM     16  C   UNL     1       1.780   3.975  18.266  0.00  0.00    +0.000 A 
ATOM     17  C   UNL     1       1.991   2.615  18.016  0.00  0.00    +0.000 A 
ATOM     18  C   UNL     1       3.261   2.078  18.175  0.00  0.00    +0.000 A 
ATOM     19  C   UNL     1       4.307   2.896  18.601  0.00  0.00    +0.000 A 
ATOM     20  C   UNL     1       4.098   4.263  18.853  0.00  0.00    +0.000 A 
ATOM     21 CL   UNL     1       5.489   5.184  19.317  0.00  0.00    +0.000 Cl
ENDBRANCH   4  15
TORSDOF 2
ENDMDL
MODEL 8
REMARK VINA RESULT:      -7.0      4.057      5.052
REMARK  Name = 
REMARK  2 active torsions:
REMARK  status: ('A' for Active; 'I' for Inactive)
REMARK    1  A    between atoms: C_2  and  C_9
REMARK    2  A    between atoms: C_12  and  C_13
REMARK                            x       y       z     vdW  Elec       q    Type
REMARK                         _______ _______ _______ _____ _____    ______ ____
ROOT
ATOM      1  C   UNL     1       6.732   6.399  17.350  0.00  0.00    +0.000 A 
ATOM      2  C   UNL     1       6.821   5.914  16.060  0.00  0.00    +0.000 A 
ATOM      3  C   UNL     1       5.726   5.058  15.864  0.00  0.00    +0.000 A 
ATOM      4  C   UNL     1       5.009   5.045  17.047  0.00  0.00    +0.000 A 
ATOM      5  O   UNL     1       5.621   5.869  17.965  0.00  0.00    +0.000 OA
ENDROOT
BRANCH   1   7
ATOM      6  O   UNL     1       8.301   6.960  18.961  0.00  0.00    +0.000 OA
ATOM      7  C   UNL     1       7.633   7.335  17.999  0.00  0.00    +0.000 C 
ATOM      8  N   UNL     1       7.629   8.622  17.503  0.00  0.00    +0.000 N 
ATOM      9  C   UNL     1       8.394   9.593  18.098  0.00  0.00    +0.000 A 
ATOM     10  N   UNL     1       9.326   9.455  19.006  0.00  0.00    +0.000 NA
ATOM     11  C   UNL     1       9.809  10.690  19.382  0.00  0.00    +0.000 A 
ATOM     12  C   UNL     1       9.225  11.766  18.742  0.00  0.00    +0.000 A 
ATOM     13  S   UNL     1       8.071  11.195  17.600  0.00  0.00    +0.000 S 
ATOM     14  H   UNL     1       6.977   8.882  16.779  0.00  0.00    +0.000 HD
ENDBRANCH   1   7
BRANCH   4  15
ATOM     15  C   UNL     1       3.780   4.333  17.412  0.00  0.00    +0.000 A 
ATOM     16  C   UNL     1       3.816   2.920  17.395  0.00  0.00    +0.000 A 
ATOM     17  C   UNL     1       2.745   2.145  17.851  0.00  0.00    +0.000 A 
ATOM     18  C   UNL     1       1.603   2.771  18.332  0.00  0.00    +0.000 A 
ATOM     19  C   UNL     1       1.530   4.163  18.335  0.00  0.00    +0.000 A 
ATOM     20  C   UNL     1       2.605   4.945  17.878  0.00  0.00    +0.000 A 
ATOM     21 CL   UNL     1       2.415   6.662  17.992  0.00  0.00    +0.000 Cl
ENDBRANCH   4  15
TORSDOF 2
ENDMDL
MODEL 9
REMARK VINA RESULT:      -7.0      5.759      7.201
REMARK  Name = 
REMARK  2 active torsions:
REMARK  status: ('A' for Active; 'I' for Inactive)
REMARK    1  A    between atoms: C_2  and  C_9
REMARK    2  A    between atoms: C_12  and  C_13
REMARK                            x       y       z     vdW  Elec       q    Type
REMARK                         _______ _______ _______ _____ _____    ______ ____
ROOT
ATOM      1  C   UNL     1       2.398   8.072  18.333  0.00  0.00    +0.000 A 
ATOM      2  C   UNL     1       3.443   7.632  17.543  0.00  0.00    +0.000 A 
ATOM      3  C   UNL     1       3.651   6.279  17.848  0.00  0.00    +0.000 A 
ATOM      4  C   UNL     1       2.729   5.940  18.822  0.00  0.00    +0.000 A 
ATOM      5  O   UNL     1       1.954   7.037  19.124  0.00  0.00    +0.000 OA
ENDROOT
BRANCH   1   7
ATOM      6  O   UNL     1       2.189  10.237  17.534  0.00  0.00    +0.000 OA
ATOM      7  C   UNL     1       1.814   9.401  18.353  0.00  0.00    +0.000 C 
ATOM      8  N   UNL     1       0.895   9.642  19.353  0.00  0.00    +0.000 N 
ATOM      9  C   UNL     1       0.343  10.889  19.497  0.00  0.00    +0.000 A 
ATOM     10  N   UNL     1       0.410  11.911  18.681  0.00  0.00    +0.000 NA
ATOM     11  C   UNL     1      -0.232  13.000  19.229  0.00  0.00    +0.000 A 
ATOM     12  C   UNL     1      -0.786  12.786  20.475  0.00  0.00    +0.000 A 
ATOM     13  S   UNL     1      -0.530  11.149  20.942  0.00  0.00    +0.000 S 
ATOM     14  H   UNL     1       0.714   8.939  20.054  0.00  0.00    +0.000 HD
ENDBRANCH   1   7
BRANCH   4  15
ATOM     15  C   UNL     1       2.487   4.666  19.508  0.00  0.00    +0.000 A 
ATOM     16  C   UNL     1       2.337   4.700  20.913  0.00  0.00    +0.000 A 
ATOM     17  C   UNL     1       1.973   3.568  21.648  0.00  0.00    +0.000 A 
ATOM     18  C   UNL     1       1.757   2.365  20.990  0.00  0.00    +0.000 A 
ATOM     19  C   UNL     1       1.924   2.296  19.607  0.00  0.00    +0.000 A 
ATOM     20  C   UNL     1       2.289   3.433  18.865  0.00  0.00    +0.000 A 
ATOM     21 CL   UNL     1       2.404   3.232  17.150  0.00  0.00    +0.000 Cl
ENDBRANCH   4  15
TORSDOF 2
ENDMDL
