MODEL 1
REMARK VINA RESULT:      -7.8      0.000      0.000
REMARK  Name = 
REMARK  10 active torsions:
REMARK  status: ('A' for Active; 'I' for Inactive)
REMARK    1  A    between atoms: C_1  and  C_2
REMARK    2  A    between atoms: C_2  and  N_3
REMARK    3  A    between atoms: N_3  and  C_4
REMARK    4  A    between atoms: N_3  and  S_6
REMARK    5  A    between atoms: C_4  and  C_5
REMARK    6  A    between atoms: S_6  and  C_9
REMARK    7  A    between atoms: C_12  and  C_13
REMARK    8  A    between atoms: C_19  and  N_20
REMARK    9  A    between atoms: C_21  and  S_22
REMARK   10  A    between atoms: N_23  and  C_24
REMARK                            x       y       z     vdW  Elec       q    Type
REMARK                         _______ _______ _______ _____ _____    ______ ____
ROOT
ATOM      1  C   UNL     1       1.242   8.974  19.617  0.00  0.00    +0.000 C 
ATOM      2  O   UNL     1       0.588   9.588  18.780  0.00  0.00    +0.000 OA
ATOM      3  N   UNL     1       1.179   9.167  20.983  0.00  0.00    +0.000 N 
ATOM      4  C   UNL     1       0.365  10.067  21.641  0.00  0.00    +0.000 A 
ATOM      5  N   UNL     1       0.234  10.069  22.949  0.00  0.00    +0.000 NA
ATOM      6  N   UNL     1      -0.663  11.031  23.383  0.00  0.00    +0.000 NA
ATOM      7  C   UNL     1      -1.177  11.734  22.389  0.00  0.00    +0.000 A 
ATOM      8  S   UNL     1      -0.527  11.279  20.853  0.00  0.00    +0.000 S 
ATOM      9  H   UNL     1       1.660   8.556  21.623  0.00  0.00    +0.000 HD
ENDROOT
BRANCH   1  13
ATOM     10  C   UNL     1       3.901   5.800  18.345  0.00  0.00    +0.000 A 
ATOM     11  C   UNL     1       3.183   5.703  19.538  0.00  0.00    +0.000 A 
ATOM     12  C   UNL     1       2.318   6.741  19.914  0.00  0.00    +0.000 A 
ATOM     13  C   UNL     1       2.160   7.891  19.114  0.00  0.00    +0.000 A 
ATOM     14  C   UNL     1       2.876   7.965  17.911  0.00  0.00    +0.000 A 
ATOM     15  C   UNL     1       3.748   6.929  17.531  0.00  0.00    +0.000 A 
BRANCH  10  16
ATOM     16  S   UNL     1       5.104   4.536  17.962  0.00  0.00    +0.000 S 
ATOM     17  O   UNL     1       4.499   3.660  16.984  0.00  0.00    +0.000 OA
ATOM     18  O   UNL     1       5.629   4.004  19.203  0.00  0.00    +0.000 OA
BRANCH  16  19
ATOM     19  N   UNL     1       6.394   5.379  17.190  0.00  0.00    +0.000 NA
BRANCH  19  21
ATOM     20  C   UNL     1       7.601   7.557  17.534  0.00  0.00    +0.000 C 
ATOM     21  C   UNL     1       7.235   6.198  18.112  0.00  0.00    +0.000 C 
ENDBRANCH  19  21
BRANCH  19  22
ATOM     22  C   UNL     1       7.157   4.535  16.214  0.00  0.00    +0.000 C 
ATOM     23  C   UNL     1       6.857   4.850  14.756  0.00  0.00    +0.000 C 
ENDBRANCH  19  22
ENDBRANCH  16  19
ENDBRANCH  10  16
ENDBRANCH   1  13
BRANCH   7  24
ATOM     24  N   UNL     1      -2.066  12.751  22.416  0.00  0.00    +0.000 NA
ATOM     25  C   UNL     1      -1.699  13.995  22.408  0.00  0.00    +0.000 C 
ATOM     26  N   UNL     1      -2.585  15.037  22.550  0.00  0.00    +0.000 N 
ATOM     27  H   UNL     1      -2.171  15.957  22.630  0.00  0.00    +0.000 HD
BRANCH  26  28
ATOM     28  C   UNL     1      -3.919  15.059  22.107  0.00  0.00    +0.000 A 
ATOM     29  C   UNL     1      -4.953  15.063  23.055  0.00  0.00    +0.000 A 
ATOM     30  C   UNL     1      -6.292  15.097  22.654  0.00  0.00    +0.000 A 
ATOM     31  C   UNL     1      -6.613  15.140  21.300  0.00  0.00    +0.000 A 
ATOM     32  C   UNL     1      -5.598  15.127  20.347  0.00  0.00    +0.000 A 
ATOM     33  C   UNL     1      -4.262  15.073  20.750  0.00  0.00    +0.000 A 
ENDBRANCH  26  28
BRANCH  25  34
ATOM     34  S   UNL     1      -0.045  14.595  22.296  0.00  0.00    +0.000 S 
ATOM     35  H   UNL     1       0.526  13.424  21.975  0.00  0.00    +0.000 HD
ENDBRANCH  25  34
ENDBRANCH   7  24
TORSDOF 8
ENDMDL
MODEL 2
REMARK VINA RESULT:      -7.7      2.649     12.168
REMARK  Name = 
REMARK  10 active torsions:
REMARK  status: ('A' for Active; 'I' for Inactive)
REMARK    1  A    between atoms: C_1  and  C_2
REMARK    2  A    between atoms: C_2  and  N_3
REMARK    3  A    between atoms: N_3  and  C_4
REMARK    4  A    between atoms: N_3  and  S_6
REMARK    5  A    between atoms: C_4  and  C_5
REMARK    6  A    between atoms: S_6  and  C_9
REMARK    7  A    between atoms: C_12  and  C_13
REMARK    8  A    between atoms: C_19  and  N_20
REMARK    9  A    between atoms: C_21  and  S_22
REMARK   10  A    between atoms: N_23  and  C_24
REMARK                            x       y       z     vdW  Elec       q    Type
REMARK                         _______ _______ _______ _____ _____    ______ ____
ROOT
ATOM      1  C   UNL     1       1.415   9.274  19.391  0.00  0.00    +0.000 C 
ATOM      2  O   UNL     1       1.801   9.889  18.401  0.00  0.00    +0.000 OA
ATOM      3  N   UNL     1       1.811   8.001  19.748  0.00  0.00    +0.000 N 
ATOM      4  C   UNL     1       2.714   7.208  19.069  0.00  0.00    +0.000 A 
ATOM      5  N   UNL     1       3.171   6.081  19.567  0.00  0.00    +0.000 NA
ATOM      6  N   UNL     1       4.094   5.476  18.729  0.00  0.00    +0.000 NA
ATOM      7  C   UNL     1       4.300   6.162  17.618  0.00  0.00    +0.000 A 
ATOM      8  S   UNL     1       3.308   7.575  17.521  0.00  0.00    +0.000 S 
ATOM      9  H   UNL     1       1.542   7.596  20.630  0.00  0.00    +0.000 HD
ENDROOT
BRANCH   1  13
ATOM     10  C   UNL     1      -1.323  11.468  21.932  0.00  0.00    +0.000 A 
ATOM     11  C   UNL     1      -1.193  11.776  20.576  0.00  0.00    +0.000 A 
ATOM     12  C   UNL     1      -0.310  11.037  19.777  0.00  0.00    +0.000 A 
ATOM     13  C   UNL     1       0.461   9.987  20.314  0.00  0.00    +0.000 A 
ATOM     14  C   UNL     1       0.308   9.679  21.673  0.00  0.00    +0.000 A 
ATOM     15  C   UNL     1      -0.574  10.419  22.481  0.00  0.00    +0.000 A 
BRANCH  10  16
ATOM     16  S   UNL     1      -2.343  12.516  22.958  0.00  0.00    +0.000 S 
ATOM     17  O   UNL     1      -1.458  13.447  23.621  0.00  0.00    +0.000 OA
ATOM     18  O   UNL     1      -3.242  11.680  23.726  0.00  0.00    +0.000 OA
BRANCH  16  19
ATOM     19  N   UNL     1      -3.310  13.409  21.845  0.00  0.00    +0.000 NA
BRANCH  19  21
ATOM     20  C   UNL     1      -4.991  12.494  20.213  0.00  0.00    +0.000 C 
ATOM     21  C   UNL     1      -4.690  12.869  21.657  0.00  0.00    +0.000 C 
ENDBRANCH  19  21
BRANCH  19  22
ATOM     22  C   UNL     1      -3.229  14.892  22.041  0.00  0.00    +0.000 C 
ATOM     23  C   UNL     1      -2.540  15.630  20.903  0.00  0.00    +0.000 C 
ENDBRANCH  19  22
ENDBRANCH  16  19
ENDBRANCH  10  16
ENDBRANCH   1  13
BRANCH   7  24
ATOM     24  N   UNL     1       5.109   5.892  16.570  0.00  0.00    +0.000 NA
ATOM     25  C   UNL     1       6.398   5.806  16.690  0.00  0.00    +0.000 C 
ATOM     26  N   UNL     1       7.240   5.647  15.616  0.00  0.00    +0.000 N 
ATOM     27  H   UNL     1       8.230   5.694  15.823  0.00  0.00    +0.000 HD
BRANCH  26  28
ATOM     28  C   UNL     1       6.949   4.954  14.428  0.00  0.00    +0.000 A 
ATOM     29  C   UNL     1       7.694   5.234  13.274  0.00  0.00    +0.000 A 
ATOM     30  C   UNL     1       7.443   4.558  12.076  0.00  0.00    +0.000 A 
ATOM     31  C   UNL     1       6.451   3.582  12.021  0.00  0.00    +0.000 A 
ATOM     32  C   UNL     1       5.696   3.300  13.157  0.00  0.00    +0.000 A 
ATOM     33  C   UNL     1       5.936   3.991  14.346  0.00  0.00    +0.000 A 
ENDBRANCH  26  28
BRANCH  25  34
ATOM     34  S   UNL     1       7.318   5.946  18.187  0.00  0.00    +0.000 S 
ATOM     35  H   UNL     1       8.201   6.856  17.745  0.00  0.00    +0.000 HD
ENDBRANCH  25  34
ENDBRANCH   7  24
TORSDOF 8
ENDMDL
MODEL 3
REMARK VINA RESULT:      -7.6      1.475      2.091
REMARK  Name = 
REMARK  10 active torsions:
REMARK  status: ('A' for Active; 'I' for Inactive)
REMARK    1  A    between atoms: C_1  and  C_2
REMARK    2  A    between atoms: C_2  and  N_3
REMARK    3  A    between atoms: N_3  and  C_4
REMARK    4  A    between atoms: N_3  and  S_6
REMARK    5  A    between atoms: C_4  and  C_5
REMARK    6  A    between atoms: S_6  and  C_9
REMARK    7  A    between atoms: C_12  and  C_13
REMARK    8  A    between atoms: C_19  and  N_20
REMARK    9  A    between atoms: C_21  and  S_22
REMARK   10  A    between atoms: N_23  and  C_24
REMARK                            x       y       z     vdW  Elec       q    Type
REMARK                         _______ _______ _______ _____ _____    ______ ____
ROOT
ATOM      1  C   UNL     1       1.459   9.014  19.871  0.00  0.00    +0.000 C 
ATOM      2  O   UNL     1       1.378   9.980  19.118  0.00  0.00    +0.000 OA
ATOM      3  N   UNL     1       0.918   8.939  21.139  0.00  0.00    +0.000 N 
ATOM      4  C   UNL     1       0.183   9.923  21.770  0.00  0.00    +0.000 A 
ATOM      5  N   UNL     1      -0.447   9.710  22.904  0.00  0.00    +0.000 NA
ATOM      6  N   UNL     1      -1.149  10.826  23.329  0.00  0.00    +0.000 NA
ATOM      7  C   UNL     1      -1.023  11.852  22.506  0.00  0.00    +0.000 A 
ATOM      8  S   UNL     1       0.033  11.509  21.180  0.00  0.00    +0.000 S 
ATOM      9  H   UNL     1       0.925   8.079  21.663  0.00  0.00    +0.000 HD
ENDROOT
BRANCH   1  13
ATOM     10  C   UNL     1       3.537   5.449  18.553  0.00  0.00    +0.000 A 
ATOM     11  C   UNL     1       2.872   5.484  19.781  0.00  0.00    +0.000 A 
ATOM     12  C   UNL     1       2.195   6.648  20.171  0.00  0.00    +0.000 A 
ATOM     13  C   UNL     1       2.175   7.795  19.352  0.00  0.00    +0.000 A 
ATOM     14  C   UNL     1       2.834   7.739  18.116  0.00  0.00    +0.000 A 
ATOM     15  C   UNL     1       3.517   6.575  17.720  0.00  0.00    +0.000 A 
BRANCH  10  16
ATOM     16  S   UNL     1       4.512   4.009  18.145  0.00  0.00    +0.000 S 
ATOM     17  O   UNL     1       3.688   3.164  17.309  0.00  0.00    +0.000 OA
ATOM     18  O   UNL     1       5.103   3.489  19.361  0.00  0.00    +0.000 OA
BRANCH  16  19
ATOM     19  N   UNL     1       5.802   4.614  17.176  0.00  0.00    +0.000 NA
BRANCH  19  21
ATOM     20  C   UNL     1       7.416   6.372  17.969  0.00  0.00    +0.000 C 
ATOM     21  C   UNL     1       7.061   4.892  17.930  0.00  0.00    +0.000 C 
ENDBRANCH  19  21
BRANCH  19  22
ATOM     22  C   UNL     1       5.983   3.867  15.890  0.00  0.00    +0.000 C 
ATOM     23  C   UNL     1       5.643   4.679  14.649  0.00  0.00    +0.000 C 
ENDBRANCH  19  22
ENDBRANCH  16  19
ENDBRANCH  10  16
ENDBRANCH   1  13
BRANCH   7  24
ATOM     24  N   UNL     1      -1.542  13.096  22.585  0.00  0.00    +0.000 NA
ATOM     25  C   UNL     1      -2.485  13.508  21.794  0.00  0.00    +0.000 C 
ATOM     26  N   UNL     1      -2.942  14.804  21.787  0.00  0.00    +0.000 N 
ATOM     27  H   UNL     1      -3.606  15.032  21.057  0.00  0.00    +0.000 HD
BRANCH  26  28
ATOM     28  C   UNL     1      -3.009  15.667  22.894  0.00  0.00    +0.000 A 
ATOM     29  C   UNL     1      -2.059  16.692  23.020  0.00  0.00    +0.000 A 
ATOM     30  C   UNL     1      -2.099  17.578  24.101  0.00  0.00    +0.000 A 
ATOM     31  C   UNL     1      -3.099  17.458  25.063  0.00  0.00    +0.000 A 
ATOM     32  C   UNL     1      -4.043  16.440  24.957  0.00  0.00    +0.000 A 
ATOM     33  C   UNL     1      -3.988  15.544  23.887  0.00  0.00    +0.000 A 
ENDBRANCH  26  28
BRANCH  25  34
ATOM     34  S   UNL     1      -3.295  12.555  20.552  0.00  0.00    +0.000 S 
ATOM     35  H   UNL     1      -3.458  11.444  21.287  0.00  0.00    +0.000 HD
ENDBRANCH  25  34
ENDBRANCH   7  24
TORSDOF 8
ENDMDL
MODEL 4
REMARK VINA RESULT:      -7.5      2.006      2.597
REMARK  Name = 
REMARK  10 active torsions:
REMARK  status: ('A' for Active; 'I' for Inactive)
REMARK    1  A    between atoms: C_1  and  C_2
REMARK    2  A    between atoms: C_2  and  N_3
REMARK    3  A    between atoms: N_3  and  C_4
REMARK    4  A    between atoms: N_3  and  S_6
REMARK    5  A    between atoms: C_4  and  C_5
REMARK    6  A    between atoms: S_6  and  C_9
REMARK    7  A    between atoms: C_12  and  C_13
REMARK    8  A    between atoms: C_19  and  N_20
REMARK    9  A    between atoms: C_21  and  S_22
REMARK   10  A    between atoms: N_23  and  C_24
REMARK                            x       y       z     vdW  Elec       q    Type
REMARK                         _______ _______ _______ _____ _____    ______ ____
ROOT
ATOM      1  C   UNL     1       1.330   8.853  19.884  0.00  0.00    +0.000 C 
ATOM      2  O   UNL     1       1.040   8.847  21.076  0.00  0.00    +0.000 OA
ATOM      3  N   UNL     1       1.017   9.856  18.988  0.00  0.00    +0.000 N 
ATOM      4  C   UNL     1       0.342  11.025  19.277  0.00  0.00    +0.000 A 
ATOM      5  N   UNL     1       0.238  12.008  18.410  0.00  0.00    +0.000 NA
ATOM      6  N   UNL     1      -0.447  13.093  18.932  0.00  0.00    +0.000 NA
ATOM      7  C   UNL     1      -0.847  12.894  20.176  0.00  0.00    +0.000 A 
ATOM      8  S   UNL     1      -0.447  11.314  20.753  0.00  0.00    +0.000 S 
ATOM      9  H   UNL     1       1.379   9.852  18.048  0.00  0.00    +0.000 HD
ENDROOT
BRANCH   1  13
ATOM     10  C   UNL     1       3.644   5.438  18.564  0.00  0.00    +0.000 A 
ATOM     11  C   UNL     1       2.922   5.401  19.758  0.00  0.00    +0.000 A 
ATOM     12  C   UNL     1       2.169   6.517  20.150  0.00  0.00    +0.000 A 
ATOM     13  C   UNL     1       2.130   7.687  19.365  0.00  0.00    +0.000 A 
ATOM     14  C   UNL     1       2.849   7.703  18.160  0.00  0.00    +0.000 A 
ATOM     15  C   UNL     1       3.608   6.587  17.765  0.00  0.00    +0.000 A 
BRANCH  10  16
ATOM     16  S   UNL     1       4.709   4.060  18.162  0.00  0.00    +0.000 S 
ATOM     17  O   UNL     1       3.928   3.143  17.362  0.00  0.00    +0.000 OA
ATOM     18  O   UNL     1       5.362   3.610  19.374  0.00  0.00    +0.000 OA
BRANCH  16  19
ATOM     19  N   UNL     1       5.932   4.733  17.151  0.00  0.00    +0.000 NA
BRANCH  19  21
ATOM     20  C   UNL     1       7.413   6.574  18.012  0.00  0.00    +0.000 C 
ATOM     21  C   UNL     1       7.200   5.074  17.861  0.00  0.00    +0.000 C 
ENDBRANCH  19  21
BRANCH  19  22
ATOM     22  C   UNL     1       6.105   3.999  15.856  0.00  0.00    +0.000 C 
ATOM     23  C   UNL     1       5.627   4.772  14.636  0.00  0.00    +0.000 C 
ENDBRANCH  19  22
ENDBRANCH  16  19
ENDBRANCH  10  16
ENDBRANCH   1  13
BRANCH   7  24
ATOM     24  N   UNL     1      -1.541  13.705  21.003  0.00  0.00    +0.000 NA
ATOM     25  C   UNL     1      -2.838  13.706  21.050  0.00  0.00    +0.000 C 
ATOM     26  N   UNL     1      -3.558  14.604  21.801  0.00  0.00    +0.000 N 
ATOM     27  H   UNL     1      -4.563  14.573  21.678  0.00  0.00    +0.000 HD
BRANCH  26  28
ATOM     28  C   UNL     1      -3.161  15.170  23.024  0.00  0.00    +0.000 A 
ATOM     29  C   UNL     1      -3.203  14.386  24.186  0.00  0.00    +0.000 A 
ATOM     30  C   UNL     1      -2.806  14.910  25.420  0.00  0.00    +0.000 A 
ATOM     31  C   UNL     1      -2.347  16.222  25.505  0.00  0.00    +0.000 A 
ATOM     32  C   UNL     1      -2.308  17.016  24.361  0.00  0.00    +0.000 A 
ATOM     33  C   UNL     1      -2.726  16.496  23.135  0.00  0.00    +0.000 A 
ENDBRANCH  26  28
BRANCH  25  34
ATOM     34  S   UNL     1      -3.916  12.652  20.136  0.00  0.00    +0.000 S 
ATOM     35  H   UNL     1      -4.822  12.472  21.110  0.00  0.00    +0.000 HD
ENDBRANCH  25  34
ENDBRANCH   7  24
TORSDOF 8
ENDMDL
MODEL 5
REMARK VINA RESULT:      -7.5      0.577      1.360
REMARK  Name = 
REMARK  10 active torsions:
REMARK  status: ('A' for Active; 'I' for Inactive)
REMARK    1  A    between atoms: C_1  and  C_2
REMARK    2  A    between atoms: C_2  and  N_3
REMARK    3  A    between atoms: N_3  and  C_4
REMARK    4  A    between atoms: N_3  and  S_6
REMARK    5  A    between atoms: C_4  and  C_5
REMARK    6  A    between atoms: S_6  and  C_9
REMARK    7  A    between atoms: C_12  and  C_13
REMARK    8  A    between atoms: C_19  and  N_20
REMARK    9  A    between atoms: C_21  and  S_22
REMARK   10  A    between atoms: N_23  and  C_24
REMARK                            x       y       z     vdW  Elec       q    Type
REMARK                         _______ _______ _______ _____ _____    ______ ____
ROOT
ATOM      1  C   UNL     1       1.029   9.101  19.768  0.00  0.00    +0.000 C 
ATOM      2  O   UNL     1       0.386   9.691  18.905  0.00  0.00    +0.000 OA
ATOM      3  N   UNL     1       0.922   9.306  21.129  0.00  0.00    +0.000 N 
ATOM      4  C   UNL     1       0.069  10.193  21.753  0.00  0.00    +0.000 A 
ATOM      5  N   UNL     1      -0.100  10.205  23.057  0.00  0.00    +0.000 NA
ATOM      6  N   UNL     1      -1.032  11.150  23.454  0.00  0.00    +0.000 NA
ATOM      7  C   UNL     1      -1.533  11.830  22.439  0.00  0.00    +0.000 A 
ATOM      8  S   UNL     1      -0.828  11.376  20.927  0.00  0.00    +0.000 S 
ATOM      9  H   UNL     1       1.399   8.713  21.789  0.00  0.00    +0.000 HD
ENDROOT
BRANCH   1  13
ATOM     10  C   UNL     1       3.762   6.096  18.259  0.00  0.00    +0.000 A 
ATOM     11  C   UNL     1       3.536   7.283  17.558  0.00  0.00    +0.000 A 
ATOM     12  C   UNL     1       2.657   8.242  18.081  0.00  0.00    +0.000 A 
ATOM     13  C   UNL     1       1.987   8.034  19.303  0.00  0.00    +0.000 A 
ATOM     14  C   UNL     1       2.237   6.845  20.003  0.00  0.00    +0.000 A 
ATOM     15  C   UNL     1       3.114   5.878  19.481  0.00  0.00    +0.000 A 
BRANCH  10  16
ATOM     16  S   UNL     1       4.769   4.830  17.502  0.00  0.00    +0.000 S 
ATOM     17  O   UNL     1       3.875   3.964  16.765  0.00  0.00    +0.000 OA
ATOM     18  O   UNL     1       5.661   4.286  18.505  0.00  0.00    +0.000 OA
BRANCH  16  19
ATOM     19  N   UNL     1       5.748   5.673  16.361  0.00  0.00    +0.000 NA
BRANCH  19  21
ATOM     20  C   UNL     1       7.377   7.228  17.480  0.00  0.00    +0.000 C 
ATOM     21  C   UNL     1       7.160   5.885  16.798  0.00  0.00    +0.000 C 
ENDBRANCH  19  21
BRANCH  19  22
ATOM     22  C   UNL     1       5.583   5.181  14.955  0.00  0.00    +0.000 C 
ATOM     23  C   UNL     1       6.783   4.411  14.425  0.00  0.00    +0.000 C 
ENDBRANCH  19  22
ENDBRANCH  16  19
ENDBRANCH  10  16
ENDBRANCH   1  13
BRANCH   7  24
ATOM     24  N   UNL     1      -2.446  12.826  22.429  0.00  0.00    +0.000 NA
ATOM     25  C   UNL     1      -2.113  14.076  22.529  0.00  0.00    +0.000 C 
ATOM     26  N   UNL     1      -3.035  15.089  22.636  0.00  0.00    +0.000 N 
ATOM     27  H   UNL     1      -2.656  16.012  22.811  0.00  0.00    +0.000 HD
BRANCH  26  28
ATOM     28  C   UNL     1      -4.315  15.111  22.057  0.00  0.00    +0.000 A 
ATOM     29  C   UNL     1      -4.436  15.310  20.673  0.00  0.00    +0.000 A 
ATOM     30  C   UNL     1      -5.692  15.326  20.058  0.00  0.00    +0.000 A 
ATOM     31  C   UNL     1      -6.842  15.131  20.818  0.00  0.00    +0.000 A 
ATOM     32  C   UNL     1      -6.739  14.943  22.194  0.00  0.00    +0.000 A 
ATOM     33  C   UNL     1      -5.485  14.947  22.808  0.00  0.00    +0.000 A 
ENDBRANCH  26  28
BRANCH  25  34
ATOM     34  S   UNL     1      -0.472  14.714  22.627  0.00  0.00    +0.000 S 
ATOM     35  H   UNL     1       0.062  13.920  21.686  0.00  0.00    +0.000 HD
ENDBRANCH  25  34
ENDBRANCH   7  24
TORSDOF 8
ENDMDL
MODEL 6
REMARK VINA RESULT:      -7.4      1.535      1.879
REMARK  Name = 
REMARK  10 active torsions:
REMARK  status: ('A' for Active; 'I' for Inactive)
REMARK    1  A    between atoms: C_1  and  C_2
REMARK    2  A    between atoms: C_2  and  N_3
REMARK    3  A    between atoms: N_3  and  C_4
REMARK    4  A    between atoms: N_3  and  S_6
REMARK    5  A    between atoms: C_4  and  C_5
REMARK    6  A    between atoms: S_6  and  C_9
REMARK    7  A    between atoms: C_12  and  C_13
REMARK    8  A    between atoms: C_19  and  N_20
REMARK    9  A    between atoms: C_21  and  S_22
REMARK   10  A    between atoms: N_23  and  C_24
REMARK                            x       y       z     vdW  Elec       q    Type
REMARK                         _______ _______ _______ _____ _____    ______ ____
ROOT
ATOM      1  C   UNL     1       1.376   9.088  19.437  0.00  0.00    +0.000 C 
ATOM      2  O   UNL     1       0.869   9.744  18.532  0.00  0.00    +0.000 OA
ATOM      3  N   UNL     1       1.237   9.344  20.787  0.00  0.00    +0.000 N 
ATOM      4  C   UNL     1       0.497  10.365  21.350  0.00  0.00    +0.000 A 
ATOM      5  N   UNL     1       0.271  10.437  22.643  0.00  0.00    +0.000 NA
ATOM      6  N   UNL     1      -0.526  11.520  22.974  0.00  0.00    +0.000 NA
ATOM      7  C   UNL     1      -0.872  12.240  21.921  0.00  0.00    +0.000 A 
ATOM      8  S   UNL     1      -0.172  11.645  20.456  0.00  0.00    +0.000 S 
ATOM      9  H   UNL     1       1.587   8.705  21.481  0.00  0.00    +0.000 HD
ENDROOT
BRANCH   1  13
ATOM     10  C   UNL     1       3.706   5.564  18.481  0.00  0.00    +0.000 A 
ATOM     11  C   UNL     1       2.944   5.629  19.649  0.00  0.00    +0.000 A 
ATOM     12  C   UNL     1       2.188   6.778  19.922  0.00  0.00    +0.000 A 
ATOM     13  C   UNL     1       2.183   7.879  19.043  0.00  0.00    +0.000 A 
ATOM     14  C   UNL     1       2.941   7.792  17.866  0.00  0.00    +0.000 A 
ATOM     15  C   UNL     1       3.704   6.643  17.589  0.00  0.00    +0.000 A 
BRANCH  10  16
ATOM     16  S   UNL     1       4.772   4.153  18.229  0.00  0.00    +0.000 S 
ATOM     17  O   UNL     1       3.960   3.109  17.645  0.00  0.00    +0.000 OA
ATOM     18  O   UNL     1       5.518   3.912  19.447  0.00  0.00    +0.000 OA
BRANCH  16  19
ATOM     19  N   UNL     1       5.907   4.669  17.038  0.00  0.00    +0.000 NA
BRANCH  19  21
ATOM     20  C   UNL     1       7.467   6.436  17.912  0.00  0.00    +0.000 C 
ATOM     21  C   UNL     1       7.269   4.966  17.572  0.00  0.00    +0.000 C 
ENDBRANCH  19  21
BRANCH  19  22
ATOM     22  C   UNL     1       5.880   3.839  15.790  0.00  0.00    +0.000 C 
ATOM     23  C   UNL     1       6.671   4.433  14.635  0.00  0.00    +0.000 C 
ENDBRANCH  19  22
ENDBRANCH  16  19
ENDBRANCH  10  16
ENDBRANCH   1  13
BRANCH   7  24
ATOM     24  N   UNL     1      -1.623  13.359  21.845  0.00  0.00    +0.000 NA
ATOM     25  C   UNL     1      -2.730  13.501  22.508  0.00  0.00    +0.000 C 
ATOM     26  N   UNL     1      -3.561  14.584  22.352  0.00  0.00    +0.000 N 
ATOM     27  H   UNL     1      -4.444  14.535  22.847  0.00  0.00    +0.000 HD
BRANCH  26  28
ATOM     28  C   UNL     1      -3.166  15.897  22.041  0.00  0.00    +0.000 A 
ATOM     29  C   UNL     1      -2.755  16.750  23.076  0.00  0.00    +0.000 A 
ATOM     30  C   UNL     1      -2.344  18.059  22.806  0.00  0.00    +0.000 A 
ATOM     31  C   UNL     1      -2.325  18.526  21.494  0.00  0.00    +0.000 A 
ATOM     32  C   UNL     1      -2.740  17.694  20.457  0.00  0.00    +0.000 A 
ATOM     33  C   UNL     1      -3.170  16.395  20.733  0.00  0.00    +0.000 A 
ENDBRANCH  26  28
BRANCH  25  34
ATOM     34  S   UNL     1      -3.419  12.346  23.647  0.00  0.00    +0.000 S 
ATOM     35  H   UNL     1      -4.689  12.769  23.553  0.00  0.00    +0.000 HD
ENDBRANCH  25  34
ENDBRANCH   7  24
TORSDOF 8
ENDMDL
MODEL 7
REMARK VINA RESULT:      -7.4      0.330      1.184
REMARK  Name = 
REMARK  10 active torsions:
REMARK  status: ('A' for Active; 'I' for Inactive)
REMARK    1  A    between atoms: C_1  and  C_2
REMARK    2  A    between atoms: C_2  and  N_3
REMARK    3  A    between atoms: N_3  and  C_4
REMARK    4  A    between atoms: N_3  and  S_6
REMARK    5  A    between atoms: C_4  and  C_5
REMARK    6  A    between atoms: S_6  and  C_9
REMARK    7  A    between atoms: C_12  and  C_13
REMARK    8  A    between atoms: C_19  and  N_20
REMARK    9  A    between atoms: C_21  and  S_22
REMARK   10  A    between atoms: N_23  and  C_24
REMARK                            x       y       z     vdW  Elec       q    Type
REMARK                         _______ _______ _______ _____ _____    ______ ____
ROOT
ATOM      1  C   UNL     1       1.322   8.786  19.662  0.00  0.00    +0.000 C 
ATOM      2  O   UNL     1       0.675   9.403  18.822  0.00  0.00    +0.000 OA
ATOM      3  N   UNL     1       1.261   8.985  21.027  0.00  0.00    +0.000 N 
ATOM      4  C   UNL     1       0.455   9.895  21.681  0.00  0.00    +0.000 A 
ATOM      5  N   UNL     1       0.324   9.903  22.989  0.00  0.00    +0.000 NA
ATOM      6  N   UNL     1      -0.564  10.875  23.419  0.00  0.00    +0.000 NA
ATOM      7  C   UNL     1      -1.072  11.579  22.422  0.00  0.00    +0.000 A 
ATOM      8  S   UNL     1      -0.425  11.112  20.888  0.00  0.00    +0.000 S 
ATOM      9  H   UNL     1       1.736   8.372  21.669  0.00  0.00    +0.000 HD
ENDROOT
BRANCH   1  13
ATOM     10  C   UNL     1       3.957   5.586  18.403  0.00  0.00    +0.000 A 
ATOM     11  C   UNL     1       3.259   5.512  19.611  0.00  0.00    +0.000 A 
ATOM     12  C   UNL     1       2.401   6.558  19.982  0.00  0.00    +0.000 A 
ATOM     13  C   UNL     1       2.231   7.692  19.164  0.00  0.00    +0.000 A 
ATOM     14  C   UNL     1       2.926   7.744  17.947  0.00  0.00    +0.000 A 
ATOM     15  C   UNL     1       3.790   6.700  17.571  0.00  0.00    +0.000 A 
BRANCH  10  16
ATOM     16  S   UNL     1       5.151   4.313  18.023  0.00  0.00    +0.000 S 
ATOM     17  O   UNL     1       4.571   3.483  16.991  0.00  0.00    +0.000 OA
ATOM     18  O   UNL     1       5.616   3.728  19.265  0.00  0.00    +0.000 OA
BRANCH  16  19
ATOM     19  N   UNL     1       6.486   5.157  17.334  0.00  0.00    +0.000 NA
BRANCH  19  21
ATOM     20  C   UNL     1       6.878   4.732  14.887  0.00  0.00    +0.000 C 
ATOM     21  C   UNL     1       6.257   5.639  15.939  0.00  0.00    +0.000 C 
ENDBRANCH  19  21
BRANCH  19  22
ATOM     22  C   UNL     1       7.099   6.162  18.261  0.00  0.00    +0.000 C 
ATOM     23  C   UNL     1       7.529   7.452  17.580  0.00  0.00    +0.000 C 
ENDBRANCH  19  22
ENDBRANCH  16  19
ENDBRANCH  10  16
ENDBRANCH   1  13
BRANCH   7  24
ATOM     24  N   UNL     1      -1.951  12.604  22.444  0.00  0.00    +0.000 NA
ATOM     25  C   UNL     1      -1.575  13.844  22.385  0.00  0.00    +0.000 C 
ATOM     26  N   UNL     1      -2.447  14.898  22.522  0.00  0.00    +0.000 N 
ATOM     27  H   UNL     1      -2.024  15.817  22.559  0.00  0.00    +0.000 HD
BRANCH  26  28
ATOM     28  C   UNL     1      -3.795  14.918  22.121  0.00  0.00    +0.000 A 
ATOM     29  C   UNL     1      -4.797  15.000  23.099  0.00  0.00    +0.000 A 
ATOM     30  C   UNL     1      -6.148  15.034  22.740  0.00  0.00    +0.000 A 
ATOM     31  C   UNL     1      -6.513  15.000  21.397  0.00  0.00    +0.000 A 
ATOM     32  C   UNL     1      -5.529  14.909  20.415  0.00  0.00    +0.000 A 
ATOM     33  C   UNL     1      -4.182  14.854  20.777  0.00  0.00    +0.000 A 
ENDBRANCH  26  28
BRANCH  25  34
ATOM     34  S   UNL     1       0.079  14.426  22.202  0.00  0.00    +0.000 S 
ATOM     35  H   UNL     1       0.408  14.379  23.503  0.00  0.00    +0.000 HD
ENDBRANCH  25  34
ENDBRANCH   7  24
TORSDOF 8
ENDMDL
MODEL 8
REMARK VINA RESULT:      -7.3      3.021     12.120
REMARK  Name = 
REMARK  10 active torsions:
REMARK  status: ('A' for Active; 'I' for Inactive)
REMARK    1  A    between atoms: C_1  and  C_2
REMARK    2  A    between atoms: C_2  and  N_3
REMARK    3  A    between atoms: N_3  and  C_4
REMARK    4  A    between atoms: N_3  and  S_6
REMARK    5  A    between atoms: C_4  and  C_5
REMARK    6  A    between atoms: S_6  and  C_9
REMARK    7  A    between atoms: C_12  and  C_13
REMARK    8  A    between atoms: C_19  and  N_20
REMARK    9  A    between atoms: C_21  and  S_22
REMARK   10  A    between atoms: N_23  and  C_24
REMARK                            x       y       z     vdW  Elec       q    Type
REMARK                         _______ _______ _______ _____ _____    ______ ____
ROOT
ATOM      1  C   UNL     1       1.381   9.401  19.305  0.00  0.00    +0.000 C 
ATOM      2  O   UNL     1       1.817  10.012  18.334  0.00  0.00    +0.000 OA
ATOM      3  N   UNL     1       1.733   8.117  19.669  0.00  0.00    +0.000 N 
ATOM      4  C   UNL     1       2.642   7.307  19.019  0.00  0.00    +0.000 A 
ATOM      5  N   UNL     1       3.054   6.166  19.527  0.00  0.00    +0.000 NA
ATOM      6  N   UNL     1       3.993   5.545  18.720  0.00  0.00    +0.000 NA
ATOM      7  C   UNL     1       4.258   6.232  17.623  0.00  0.00    +0.000 A 
ATOM      8  S   UNL     1       3.303   7.668  17.497  0.00  0.00    +0.000 S 
ATOM      9  H   UNL     1       1.421   7.713  20.538  0.00  0.00    +0.000 HD
ENDROOT
BRANCH   1  13
ATOM     10  C   UNL     1      -1.437  11.622  21.733  0.00  0.00    +0.000 A 
ATOM     11  C   UNL     1      -1.456  11.715  20.339  0.00  0.00    +0.000 A 
ATOM     12  C   UNL     1      -0.541  10.971  19.581  0.00  0.00    +0.000 A 
ATOM     13  C   UNL     1       0.409  10.131  20.196  0.00  0.00    +0.000 A 
ATOM     14  C   UNL     1       0.405  10.036  21.595  0.00  0.00    +0.000 A 
ATOM     15  C   UNL     1      -0.509  10.783  22.361  0.00  0.00    +0.000 A 
BRANCH  10  16
ATOM     16  S   UNL     1      -2.513  12.690  22.679  0.00  0.00    +0.000 S 
ATOM     17  O   UNL     1      -3.142  11.867  23.688  0.00  0.00    +0.000 OA
ATOM     18  O   UNL     1      -3.315  13.472  21.760  0.00  0.00    +0.000 OA
BRANCH  16  19
ATOM     19  N   UNL     1      -1.449  13.786  23.478  0.00  0.00    +0.000 NA
BRANCH  19  21
ATOM     20  C   UNL     1      -0.755  15.538  21.813  0.00  0.00    +0.000 C 
ATOM     21  C   UNL     1      -0.347  14.313  22.619  0.00  0.00    +0.000 C 
ENDBRANCH  19  21
BRANCH  19  22
ATOM     22  C   UNL     1      -2.163  14.816  24.300  0.00  0.00    +0.000 C 
ATOM     23  C   UNL     1      -1.337  15.370  25.451  0.00  0.00    +0.000 C 
ENDBRANCH  19  22
ENDBRANCH  16  19
ENDBRANCH  10  16
ENDBRANCH   1  13
BRANCH   7  24
ATOM     24  N   UNL     1       5.099   5.949  16.604  0.00  0.00    +0.000 NA
ATOM     25  C   UNL     1       6.379   5.821  16.774  0.00  0.00    +0.000 C 
ATOM     26  N   UNL     1       7.258   5.647  15.732  0.00  0.00    +0.000 N 
ATOM     27  H   UNL     1       8.240   5.661  15.979  0.00  0.00    +0.000 HD
BRANCH  26  28
ATOM     28  C   UNL     1       6.993   4.978  14.525  0.00  0.00    +0.000 A 
ATOM     29  C   UNL     1       7.732   5.314  13.381  0.00  0.00    +0.000 A 
ATOM     30  C   UNL     1       7.507   4.663  12.165  0.00  0.00    +0.000 A 
ATOM     31  C   UNL     1       6.548   3.656  12.080  0.00  0.00    +0.000 A 
ATOM     32  C   UNL     1       5.800   3.318  13.205  0.00  0.00    +0.000 A 
ATOM     33  C   UNL     1       6.013   3.985  14.413  0.00  0.00    +0.000 A 
ENDBRANCH  26  28
BRANCH  25  34
ATOM     34  S   UNL     1       7.242   5.915  18.308  0.00  0.00    +0.000 S 
ATOM     35  H   UNL     1       7.703   4.654  18.308  0.00  0.00    +0.000 HD
ENDBRANCH  25  34
ENDBRANCH   7  24
TORSDOF 8
ENDMDL
MODEL 9
REMARK VINA RESULT:      -7.3      1.419      1.741
REMARK  Name = 
REMARK  10 active torsions:
REMARK  status: ('A' for Active; 'I' for Inactive)
REMARK    1  A    between atoms: C_1  and  C_2
REMARK    2  A    between atoms: C_2  and  N_3
REMARK    3  A    between atoms: N_3  and  C_4
REMARK    4  A    between atoms: N_3  and  S_6
REMARK    5  A    between atoms: C_4  and  C_5
REMARK    6  A    between atoms: S_6  and  C_9
REMARK    7  A    between atoms: C_12  and  C_13
REMARK    8  A    between atoms: C_19  and  N_20
REMARK    9  A    between atoms: C_21  and  S_22
REMARK   10  A    between atoms: N_23  and  C_24
REMARK                            x       y       z     vdW  Elec       q    Type
REMARK                         _______ _______ _______ _____ _____    ______ ____
ROOT
ATOM      1  C   UNL     1       1.266   8.772  19.956  0.00  0.00    +0.000 C 
ATOM      2  O   UNL     1       0.987   8.680  21.147  0.00  0.00    +0.000 OA
ATOM      3  N   UNL     1       0.864   9.790  19.114  0.00  0.00    +0.000 N 
ATOM      4  C   UNL     1       0.096  10.882  19.466  0.00  0.00    +0.000 A 
ATOM      5  N   UNL     1      -0.097  11.896  18.652  0.00  0.00    +0.000 NA
ATOM      6  N   UNL     1      -0.865  12.892  19.232  0.00  0.00    +0.000 NA
ATOM      7  C   UNL     1      -1.236  12.597  20.465  0.00  0.00    +0.000 A 
ATOM      8  S   UNL     1      -0.702  11.028  20.958  0.00  0.00    +0.000 S 
ATOM      9  H   UNL     1       1.217   9.865  18.174  0.00  0.00    +0.000 HD
ENDROOT
BRANCH   1  13
ATOM     10  C   UNL     1       3.855   5.641  18.452  0.00  0.00    +0.000 A 
ATOM     11  C   UNL     1       3.204   5.510  19.681  0.00  0.00    +0.000 A 
ATOM     12  C   UNL     1       2.360   6.535  20.132  0.00  0.00    +0.000 A 
ATOM     13  C   UNL     1       2.156   7.705  19.373  0.00  0.00    +0.000 A 
ATOM     14  C   UNL     1       2.805   7.814  18.135  0.00  0.00    +0.000 A 
ATOM     15  C   UNL     1       3.655   6.791  17.679  0.00  0.00    +0.000 A 
BRANCH  10  16
ATOM     16  S   UNL     1       5.036   4.390  17.969  0.00  0.00    +0.000 S 
ATOM     17  O   UNL     1       4.370   3.524  17.022  0.00  0.00    +0.000 OA
ATOM     18  O   UNL     1       5.647   3.844  19.163  0.00  0.00    +0.000 OA
BRANCH  16  19
ATOM     19  N   UNL     1       6.265   5.253  17.123  0.00  0.00    +0.000 NA
BRANCH  19  21
ATOM     20  C   UNL     1       7.512   7.389  17.572  0.00  0.00    +0.000 C 
ATOM     21  C   UNL     1       7.244   5.955  18.005  0.00  0.00    +0.000 C 
ENDBRANCH  19  21
BRANCH  19  22
ATOM     22  C   UNL     1       6.869   4.474  15.994  0.00  0.00    +0.000 C 
ATOM     23  C   UNL     1       6.453   4.960  14.614  0.00  0.00    +0.000 C 
ENDBRANCH  19  22
ENDBRANCH  16  19
ENDBRANCH  10  16
ENDBRANCH   1  13
BRANCH   7  24
ATOM     24  N   UNL     1      -1.989  13.303  21.337  0.00  0.00    +0.000 NA
ATOM     25  C   UNL     1      -1.486  14.216  22.110  0.00  0.00    +0.000 C 
ATOM     26  N   UNL     1      -2.216  14.860  23.080  0.00  0.00    +0.000 N 
ATOM     27  H   UNL     1      -1.692  15.477  23.687  0.00  0.00    +0.000 HD
BRANCH  26  28
ATOM     28  C   UNL     1      -3.588  15.163  23.023  0.00  0.00    +0.000 A 
ATOM     29  C   UNL     1      -4.017  16.237  22.230  0.00  0.00    +0.000 A 
ATOM     30  C   UNL     1      -5.374  16.563  22.138  0.00  0.00    +0.000 A 
ATOM     31  C   UNL     1      -6.320  15.809  22.828  0.00  0.00    +0.000 A 
ATOM     32  C   UNL     1      -5.908  14.745  23.627  0.00  0.00    +0.000 A 
ATOM     33  C   UNL     1      -4.550  14.436  23.733  0.00  0.00    +0.000 A 
ENDBRANCH  26  28
BRANCH  25  34
ATOM     34  S   UNL     1       0.194  14.750  22.138  0.00  0.00    +0.000 S 
ATOM     35  H   UNL     1       0.722  13.587  22.551  0.00  0.00    +0.000 HD
ENDBRANCH  25  34
ENDBRANCH   7  24
TORSDOF 8
ENDMDL
