MODEL 1
REMARK VINA RESULT:      -7.2      0.000      0.000
REMARK  Name = 
REMARK  3 active torsions:
REMARK  status: ('A' for Active; 'I' for Inactive)
REMARK    1  A    between atoms: C_2  and  C_3
REMARK    2  A    between atoms: C_4  and  C_5
REMARK    3  A    between atoms: C_16  and  O_17
REMARK                            x       y       z     vdW  Elec       q    Type
REMARK                         _______ _______ _______ _____ _____    ______ ____
ROOT
ATOM      1  C   UNL     1       2.871   5.565  17.895  0.00  0.00    +0.000 A 
ATOM      2  C   UNL     1       2.961   6.915  18.196  0.00  0.00    +0.000 A 
ATOM      3  O   UNL     1       4.118   7.434  17.684  0.00  0.00    +0.000 OA
ATOM      4  C   UNL     1       4.789   6.409  17.080  0.00  0.00    +0.000 A 
ATOM      5  C   UNL     1       6.020   6.504  16.429  0.00  0.00    +0.000 A 
ATOM      6  C   UNL     1       6.530   5.325  15.865  0.00  0.00    +0.000 A 
ATOM      7  C   UNL     1       5.820   4.128  15.962  0.00  0.00    +0.000 A 
ATOM      8  C   UNL     1       4.589   4.058  16.618  0.00  0.00    +0.000 A 
ATOM      9  C   UNL     1       4.065   5.230  17.192  0.00  0.00    +0.000 A 
ENDROOT
BRANCH   2  10
ATOM     10  C   UNL     1       2.091   7.833  18.927  0.00  0.00    +0.000 A 
ATOM     11  C   UNL     1       1.562   8.960  18.274  0.00  0.00    +0.000 A 
ATOM     12  C   UNL     1       0.869   9.942  18.982  0.00  0.00    +0.000 A 
ATOM     13  C   UNL     1       0.665   9.787  20.351  0.00  0.00    +0.000 A 
ATOM     14 CL   UNL     1      -0.139  11.023  21.235  0.00  0.00    +0.000 Cl
ATOM     15  C   UNL     1       1.122   8.643  21.004  0.00  0.00    +0.000 A 
ATOM     16  C   UNL     1       1.831   7.666  20.292  0.00  0.00    +0.000 A 
ENDBRANCH   2  10
BRANCH   1  18
ATOM     17  O   UNL     1       1.097   4.098  17.370  0.00  0.00    +0.000 OA
ATOM     18  C   UNL     1       1.758   4.700  18.212  0.00  0.00    +0.000 C 
ENDBRANCH   1  18
BRANCH   7  19
ATOM     19  O   UNL     1       6.294   2.973  15.413  0.00  0.00    +0.000 OA
ATOM     20  H   UNL     1       5.561   2.346  15.309  0.00  0.00    +0.000 HD
ENDBRANCH   7  19
TORSDOF 3
ENDMDL
MODEL 2
REMARK VINA RESULT:      -7.2      3.681      4.902
REMARK  Name = 
REMARK  3 active torsions:
REMARK  status: ('A' for Active; 'I' for Inactive)
REMARK    1  A    between atoms: C_2  and  C_3
REMARK    2  A    between atoms: C_4  and  C_5
REMARK    3  A    between atoms: C_16  and  O_17
REMARK                            x       y       z     vdW  Elec       q    Type
REMARK                         _______ _______ _______ _____ _____    ______ ____
ROOT
ATOM      1  C   UNL     1       5.974   4.989  17.675  0.00  0.00    +0.000 A 
ATOM      2  C   UNL     1       4.838   4.210  17.819  0.00  0.00    +0.000 A 
ATOM      3  O   UNL     1       4.503   3.642  16.620  0.00  0.00    +0.000 OA
ATOM      4  C   UNL     1       5.407   4.083  15.697  0.00  0.00    +0.000 A 
ATOM      5  C   UNL     1       5.430   3.745  14.343  0.00  0.00    +0.000 A 
ATOM      6  C   UNL     1       6.457   4.306  13.569  0.00  0.00    +0.000 A 
ATOM      7  C   UNL     1       7.400   5.155  14.148  0.00  0.00    +0.000 A 
ATOM      8  C   UNL     1       7.357   5.478  15.506  0.00  0.00    +0.000 A 
ATOM      9  C   UNL     1       6.332   4.928  16.297  0.00  0.00    +0.000 A 
ENDROOT
BRANCH   2  10
ATOM     10  C   UNL     1       3.976   3.903  18.959  0.00  0.00    +0.000 A 
ATOM     11  C   UNL     1       4.272   2.802  19.780  0.00  0.00    +0.000 A 
ATOM     12  C   UNL     1       3.383   2.384  20.770  0.00  0.00    +0.000 A 
ATOM     13  C   UNL     1       2.200   3.089  20.973  0.00  0.00    +0.000 A 
ATOM     14 CL   UNL     1       1.077   2.541  22.153  0.00  0.00    +0.000 Cl
ATOM     15  C   UNL     1       1.920   4.225  20.215  0.00  0.00    +0.000 A 
ATOM     16  C   UNL     1       2.809   4.634  19.211  0.00  0.00    +0.000 A 
ENDBRANCH   2  10
BRANCH   1  18
ATOM     17  O   UNL     1       6.960   5.175  19.813  0.00  0.00    +0.000 OA
ATOM     18  C   UNL     1       6.662   5.687  18.737  0.00  0.00    +0.000 C 
ENDBRANCH   1  18
BRANCH   7  19
ATOM     19  O   UNL     1       8.410   5.703  13.415  0.00  0.00    +0.000 OA
ATOM     20  H   UNL     1       8.816   5.012  12.867  0.00  0.00    +0.000 HD
ENDBRANCH   7  19
TORSDOF 3
ENDMDL
MODEL 3
REMARK VINA RESULT:      -7.1      0.255      1.137
REMARK  Name = 
REMARK  3 active torsions:
REMARK  status: ('A' for Active; 'I' for Inactive)
REMARK    1  A    between atoms: C_2  and  C_3
REMARK    2  A    between atoms: C_4  and  C_5
REMARK    3  A    between atoms: C_16  and  O_17
REMARK                            x       y       z     vdW  Elec       q    Type
REMARK                         _______ _______ _______ _____ _____    ______ ____
ROOT
ATOM      1  C   UNL     1       2.874   5.639  17.883  0.00  0.00    +0.000 A 
ATOM      2  C   UNL     1       3.018   6.995  18.124  0.00  0.00    +0.000 A 
ATOM      3  O   UNL     1       4.188   7.447  17.578  0.00  0.00    +0.000 OA
ATOM      4  C   UNL     1       4.812   6.372  17.013  0.00  0.00    +0.000 A 
ATOM      5  C   UNL     1       6.038   6.391  16.346  0.00  0.00    +0.000 A 
ATOM      6  C   UNL     1       6.496   5.169  15.830  0.00  0.00    +0.000 A 
ATOM      7  C   UNL     1       5.742   4.006  15.986  0.00  0.00    +0.000 A 
ATOM      8  C   UNL     1       4.517   4.012  16.656  0.00  0.00    +0.000 A 
ATOM      9  C   UNL     1       4.045   5.227  17.184  0.00  0.00    +0.000 A 
ENDROOT
BRANCH   2  10
ATOM     10  C   UNL     1       2.192   7.978  18.822  0.00  0.00    +0.000 A 
ATOM     11  C   UNL     1       1.903   7.803  20.186  0.00  0.00    +0.000 A 
ATOM     12  C   UNL     1       0.986   8.627  20.838  0.00  0.00    +0.000 A 
ATOM     13  C   UNL     1       0.373   9.662  20.137  0.00  0.00    +0.000 A 
ATOM     14 CL   UNL     1      -0.800  10.642  20.925  0.00  0.00    +0.000 Cl
ATOM     15  C   UNL     1       0.698   9.896  18.802  0.00  0.00    +0.000 A 
ATOM     16  C   UNL     1       1.609   9.057  18.146  0.00  0.00    +0.000 A 
ENDBRANCH   2  10
BRANCH   1  18
ATOM     17  O   UNL     1       1.116   4.120  17.461  0.00  0.00    +0.000 OA
ATOM     18  C   UNL     1       1.732   4.831  18.249  0.00  0.00    +0.000 C 
ENDBRANCH   1  18
BRANCH   7  19
ATOM     19  O   UNL     1       6.166   2.811  15.484  0.00  0.00    +0.000 OA
ATOM     20  H   UNL     1       5.424   2.185  15.484  0.00  0.00    +0.000 HD
ENDBRANCH   7  19
TORSDOF 3
ENDMDL
MODEL 4
REMARK VINA RESULT:      -7.1      4.737      7.003
REMARK  Name = 
REMARK  3 active torsions:
REMARK  status: ('A' for Active; 'I' for Inactive)
REMARK    1  A    between atoms: C_2  and  C_3
REMARK    2  A    between atoms: C_4  and  C_5
REMARK    3  A    between atoms: C_16  and  O_17
REMARK                            x       y       z     vdW  Elec       q    Type
REMARK                         _______ _______ _______ _____ _____    ______ ____
ROOT
ATOM      1  C   UNL     1       4.715   4.306  18.687  0.00  0.00    +0.000 A 
ATOM      2  C   UNL     1       4.690   3.858  17.376  0.00  0.00    +0.000 A 
ATOM      3  O   UNL     1       3.624   3.023  17.186  0.00  0.00    +0.000 OA
ATOM      4  C   UNL     1       2.981   2.908  18.385  0.00  0.00    +0.000 A 
ATOM      5  C   UNL     1       1.838   2.147  18.635  0.00  0.00    +0.000 A 
ATOM      6  C   UNL     1       1.331   2.177  19.943  0.00  0.00    +0.000 A 
ATOM      7  C   UNL     1       1.957   2.941  20.928  0.00  0.00    +0.000 A 
ATOM      8  C   UNL     1       3.099   3.696  20.654  0.00  0.00    +0.000 A 
ATOM      9  C   UNL     1       3.623   3.674  19.349  0.00  0.00    +0.000 A 
ENDROOT
BRANCH   2  10
ATOM     10  C   UNL     1       5.553   4.101  16.222  0.00  0.00    +0.000 A 
ATOM     11  C   UNL     1       6.779   4.767  16.396  0.00  0.00    +0.000 A 
ATOM     12  C   UNL     1       7.544   5.161  15.299  0.00  0.00    +0.000 A 
ATOM     13  C   UNL     1       7.107   4.860  14.012  0.00  0.00    +0.000 A 
ATOM     14 CL   UNL     1       8.020   5.396  12.658  0.00  0.00    +0.000 Cl
ATOM     15  C   UNL     1       5.929   4.140  13.821  0.00  0.00    +0.000 A 
ATOM     16  C   UNL     1       5.155   3.758  14.925  0.00  0.00    +0.000 A 
ENDBRANCH   2  10
BRANCH   1  18
ATOM     17  O   UNL     1       6.676   4.937  19.842  0.00  0.00    +0.000 OA
ATOM     18  C   UNL     1       5.655   5.255  19.239  0.00  0.00    +0.000 C 
ENDBRANCH   1  18
BRANCH   7  19
ATOM     19  O   UNL     1       1.475   2.991  22.203  0.00  0.00    +0.000 OA
ATOM     20  H   UNL     1       1.988   2.383  22.760  0.00  0.00    +0.000 HD
ENDBRANCH   7  19
TORSDOF 3
ENDMDL
MODEL 5
REMARK VINA RESULT:      -7.0      1.926      3.428
REMARK  Name = 
REMARK  3 active torsions:
REMARK  status: ('A' for Active; 'I' for Inactive)
REMARK    1  A    between atoms: C_2  and  C_3
REMARK    2  A    between atoms: C_4  and  C_5
REMARK    3  A    between atoms: C_16  and  O_17
REMARK                            x       y       z     vdW  Elec       q    Type
REMARK                         _______ _______ _______ _____ _____    ______ ____
ROOT
ATOM      1  C   UNL     1       3.557   5.628  18.257  0.00  0.00    +0.000 A 
ATOM      2  C   UNL     1       2.495   6.309  18.829  0.00  0.00    +0.000 A 
ATOM      3  O   UNL     1       1.627   5.425  19.408  0.00  0.00    +0.000 OA
ATOM      4  C   UNL     1       2.116   4.170  19.180  0.00  0.00    +0.000 A 
ATOM      5  C   UNL     1       1.535   2.973  19.601  0.00  0.00    +0.000 A 
ATOM      6  C   UNL     1       2.212   1.790  19.267  0.00  0.00    +0.000 A 
ATOM      7  C   UNL     1       3.407   1.835  18.550  0.00  0.00    +0.000 A 
ATOM      8  C   UNL     1       3.970   3.045  18.140  0.00  0.00    +0.000 A 
ATOM      9  C   UNL     1       3.303   4.241  18.463  0.00  0.00    +0.000 A 
ENDROOT
BRANCH   2  10
ATOM     10  C   UNL     1       2.150   7.726  18.917  0.00  0.00    +0.000 A 
ATOM     11  C   UNL     1       1.592   8.236  20.102  0.00  0.00    +0.000 A 
ATOM     12  C   UNL     1       1.100   9.539  20.163  0.00  0.00    +0.000 A 
ATOM     13  C   UNL     1       1.194  10.362  19.043  0.00  0.00    +0.000 A 
ATOM     14 CL   UNL     1       0.535  11.949  19.099  0.00  0.00    +0.000 Cl
ATOM     15  C   UNL     1       1.806   9.898  17.880  0.00  0.00    +0.000 A 
ATOM     16  C   UNL     1       2.287   8.583  17.818  0.00  0.00    +0.000 A 
ENDBRANCH   2  10
BRANCH   1  18
ATOM     17  O   UNL     1       4.838   6.324  16.400  0.00  0.00    +0.000 OA
ATOM     18  C   UNL     1       4.703   6.232  17.617  0.00  0.00    +0.000 C 
ENDBRANCH   1  18
BRANCH   7  19
ATOM     19  O   UNL     1       4.084   0.697  18.223  0.00  0.00    +0.000 OA
ATOM     20  H   UNL     1       4.104   0.107  18.993  0.00  0.00    +0.000 HD
ENDBRANCH   7  19
TORSDOF 3
ENDMDL
MODEL 6
REMARK VINA RESULT:      -7.0      4.699      6.835
REMARK  Name = 
REMARK  3 active torsions:
REMARK  status: ('A' for Active; 'I' for Inactive)
REMARK    1  A    between atoms: C_2  and  C_3
REMARK    2  A    between atoms: C_4  and  C_5
REMARK    3  A    between atoms: C_16  and  O_17
REMARK                            x       y       z     vdW  Elec       q    Type
REMARK                         _______ _______ _______ _____ _____    ______ ____
ROOT
ATOM      1  C   UNL     1       4.513   3.977  18.684  0.00  0.00    +0.000 A 
ATOM      2  C   UNL     1       4.221   4.053  17.331  0.00  0.00    +0.000 A 
ATOM      3  O   UNL     1       2.915   3.710  17.113  0.00  0.00    +0.000 OA
ATOM      4  C   UNL     1       2.375   3.382  18.324  0.00  0.00    +0.000 A 
ATOM      5  C   UNL     1       1.061   2.971  18.553  0.00  0.00    +0.000 A 
ATOM      6  C   UNL     1       0.709   2.690  19.882  0.00  0.00    +0.000 A 
ATOM      7  C   UNL     1       1.645   2.825  20.907  0.00  0.00    +0.000 A 
ATOM      8  C   UNL     1       2.955   3.238  20.653  0.00  0.00    +0.000 A 
ATOM      9  C   UNL     1       3.326   3.520  19.326  0.00  0.00    +0.000 A 
ENDROOT
BRANCH   2  10
ATOM     10  C   UNL     1       5.015   4.412  16.158  0.00  0.00    +0.000 A 
ATOM     11  C   UNL     1       5.481   3.404  15.297  0.00  0.00    +0.000 A 
ATOM     12  C   UNL     1       6.376   3.695  14.268  0.00  0.00    +0.000 A 
ATOM     13  C   UNL     1       6.788   5.010  14.067  0.00  0.00    +0.000 A 
ATOM     14 CL   UNL     1       7.936   5.360  12.836  0.00  0.00    +0.000 Cl
ATOM     15  C   UNL     1       6.284   6.034  14.866  0.00  0.00    +0.000 A 
ATOM     16  C   UNL     1       5.396   5.736  15.909  0.00  0.00    +0.000 A 
ENDBRANCH   2  10
BRANCH   1  18
ATOM     17  O   UNL     1       6.060   5.469  19.661  0.00  0.00    +0.000 OA
ATOM     18  C   UNL     1       5.771   4.333  19.299  0.00  0.00    +0.000 C 
ENDBRANCH   1  18
BRANCH   7  19
ATOM     19  O   UNL     1       1.320   2.564  22.206  0.00  0.00    +0.000 OA
ATOM     20  H   UNL     1       1.734   3.231  22.777  0.00  0.00    +0.000 HD
ENDBRANCH   7  19
TORSDOF 3
ENDMDL
MODEL 7
REMARK VINA RESULT:      -6.9      2.411      3.597
REMARK  Name = 
REMARK  3 active torsions:
REMARK  status: ('A' for Active; 'I' for Inactive)
REMARK    1  A    between atoms: C_2  and  C_3
REMARK    2  A    between atoms: C_4  and  C_5
REMARK    3  A    between atoms: C_16  and  O_17
REMARK                            x       y       z     vdW  Elec       q    Type
REMARK                         _______ _______ _______ _____ _____    ______ ____
ROOT
ATOM      1  C   UNL     1       3.626   5.953  18.850  0.00  0.00    +0.000 A 
ATOM      2  C   UNL     1       2.568   6.601  19.467  0.00  0.00    +0.000 A 
ATOM      3  O   UNL     1       2.006   5.788  20.413  0.00  0.00    +0.000 OA
ATOM      4  C   UNL     1       2.684   4.603  20.381  0.00  0.00    +0.000 A 
ATOM      5  C   UNL     1       2.432   3.491  21.187  0.00  0.00    +0.000 A 
ATOM      6  C   UNL     1       3.258   2.373  20.996  0.00  0.00    +0.000 A 
ATOM      7  C   UNL     1       4.275   2.396  20.043  0.00  0.00    +0.000 A 
ATOM      8  C   UNL     1       4.509   3.521  19.249  0.00  0.00    +0.000 A 
ATOM      9  C   UNL     1       3.688   4.650  19.424  0.00  0.00    +0.000 A 
ENDROOT
BRANCH   2  10
ATOM     10  C   UNL     1       1.973   7.925  19.297  0.00  0.00    +0.000 A 
ATOM     11  C   UNL     1       1.364   8.562  20.392  0.00  0.00    +0.000 A 
ATOM     12  C   UNL     1       0.644   9.745  20.226  0.00  0.00    +0.000 A 
ATOM     13  C   UNL     1       0.557  10.325  18.964  0.00  0.00    +0.000 A 
ATOM     14 CL   UNL     1      -0.378  11.751  18.748  0.00  0.00    +0.000 Cl
ATOM     15  C   UNL     1       1.211   9.746  17.878  0.00  0.00    +0.000 A 
ATOM     16  C   UNL     1       1.922   8.550  18.045  0.00  0.00    +0.000 A 
ENDBRANCH   2  10
BRANCH   1  18
ATOM     17  O   UNL     1       4.679   6.034  16.739  0.00  0.00    +0.000 OA
ATOM     18  C   UNL     1       4.500   6.523  17.851  0.00  0.00    +0.000 C 
ENDBRANCH   1  18
BRANCH   7  19
ATOM     19  O   UNL     1       5.094   1.323  19.849  0.00  0.00    +0.000 OA
ATOM     20  H   UNL     1       4.941   0.675  20.556  0.00  0.00    +0.000 HD
ENDBRANCH   7  19
TORSDOF 3
ENDMDL
MODEL 8
REMARK VINA RESULT:      -6.9      3.855      4.908
REMARK  Name = 
REMARK  3 active torsions:
REMARK  status: ('A' for Active; 'I' for Inactive)
REMARK    1  A    between atoms: C_2  and  C_3
REMARK    2  A    between atoms: C_4  and  C_5
REMARK    3  A    between atoms: C_16  and  O_17
REMARK                            x       y       z     vdW  Elec       q    Type
REMARK                         _______ _______ _______ _____ _____    ______ ____
ROOT
ATOM      1  C   UNL     1       5.875   4.836  17.357  0.00  0.00    +0.000 A 
ATOM      2  C   UNL     1       4.789   3.976  17.383  0.00  0.00    +0.000 A 
ATOM      3  O   UNL     1       4.584   3.440  16.142  0.00  0.00    +0.000 OA
ATOM      4  C   UNL     1       5.521   3.981  15.309  0.00  0.00    +0.000 A 
ATOM      5  C   UNL     1       5.667   3.706  13.948  0.00  0.00    +0.000 A 
ATOM      6  C   UNL     1       6.707   4.368  13.277  0.00  0.00    +0.000 A 
ATOM      7  C   UNL     1       7.541   5.252  13.960  0.00  0.00    +0.000 A 
ATOM      8  C   UNL     1       7.376   5.512  15.322  0.00  0.00    +0.000 A 
ATOM      9  C   UNL     1       6.336   4.860  16.009  0.00  0.00    +0.000 A 
ENDROOT
BRANCH   2  10
ATOM     10  C   UNL     1       3.869   3.563  18.441  0.00  0.00    +0.000 A 
ATOM     11  C   UNL     1       2.563   4.082  18.472  0.00  0.00    +0.000 A 
ATOM     12  C   UNL     1       1.719   3.839  19.556  0.00  0.00    +0.000 A 
ATOM     13  C   UNL     1       2.162   3.042  20.607  0.00  0.00    +0.000 A 
ATOM     14 CL   UNL     1       1.144   2.790  21.969  0.00  0.00    +0.000 Cl
ATOM     15  C   UNL     1       3.428   2.461  20.563  0.00  0.00    +0.000 A 
ATOM     16  C   UNL     1       4.280   2.719  19.480  0.00  0.00    +0.000 A 
ENDBRANCH   2  10
BRANCH   1  18
ATOM     17  O   UNL     1       7.097   4.989  19.372  0.00  0.00    +0.000 OA
ATOM     18  C   UNL     1       6.431   5.532  18.495  0.00  0.00    +0.000 C 
ENDBRANCH   1  18
BRANCH   7  19
ATOM     19  O   UNL     1       8.562   5.899  13.327  0.00  0.00    +0.000 OA
ATOM     20  H   UNL     1       8.909   6.592  13.911  0.00  0.00    +0.000 HD
ENDBRANCH   7  19
TORSDOF 3
ENDMDL
MODEL 9
REMARK VINA RESULT:      -6.8      2.419      3.481
REMARK  Name = 
REMARK  3 active torsions:
REMARK  status: ('A' for Active; 'I' for Inactive)
REMARK    1  A    between atoms: C_2  and  C_3
REMARK    2  A    between atoms: C_4  and  C_5
REMARK    3  A    between atoms: C_16  and  O_17
REMARK                            x       y       z     vdW  Elec       q    Type
REMARK                         _______ _______ _______ _____ _____    ______ ____
ROOT
ATOM      1  C   UNL     1       3.530   6.036  18.842  0.00  0.00    +0.000 A 
ATOM      2  C   UNL     1       2.477   6.688  19.463  0.00  0.00    +0.000 A 
ATOM      3  O   UNL     1       1.931   5.885  20.427  0.00  0.00    +0.000 OA
ATOM      4  C   UNL     1       2.613   4.703  20.402  0.00  0.00    +0.000 A 
ATOM      5  C   UNL     1       2.377   3.601  21.226  0.00  0.00    +0.000 A 
ATOM      6  C   UNL     1       3.205   2.483  21.039  0.00  0.00    +0.000 A 
ATOM      7  C   UNL     1       4.211   2.499  20.073  0.00  0.00    +0.000 A 
ATOM      8  C   UNL     1       4.429   3.614  19.262  0.00  0.00    +0.000 A 
ATOM      9  C   UNL     1       3.606   4.741  19.431  0.00  0.00    +0.000 A 
ENDROOT
BRANCH   2  10
ATOM     10  C   UNL     1       1.875   8.007  19.283  0.00  0.00    +0.000 A 
ATOM     11  C   UNL     1       1.977   8.656  18.041  0.00  0.00    +0.000 A 
ATOM     12  C   UNL     1       1.561   9.979  17.885  0.00  0.00    +0.000 A 
ATOM     13  C   UNL     1       1.004  10.656  18.966  0.00  0.00    +0.000 A 
ATOM     14 CL   UNL     1       0.545  12.303  18.790  0.00  0.00    +0.000 Cl
ATOM     15  C   UNL     1       0.831  10.008  20.187  0.00  0.00    +0.000 A 
ATOM     16  C   UNL     1       1.262   8.684  20.345  0.00  0.00    +0.000 A 
ENDBRANCH   2  10
BRANCH   1  18
ATOM     17  O   UNL     1       4.544   6.102  16.710  0.00  0.00    +0.000 OA
ATOM     18  C   UNL     1       4.389   6.596  17.823  0.00  0.00    +0.000 C 
ENDBRANCH   1  18
BRANCH   7  19
ATOM     19  O   UNL     1       5.031   1.426  19.883  0.00  0.00    +0.000 OA
ATOM     20  H   UNL     1       5.926   1.653  20.184  0.00  0.00    +0.000 HD
ENDBRANCH   7  19
TORSDOF 3
ENDMDL
