MODEL 1
REMARK VINA RESULT:      -8.7      0.000      0.000
REMARK  Name = 
REMARK  7 active torsions:
REMARK  status: ('A' for Active; 'I' for Inactive)
REMARK    1  A    between atoms: C_2  and  C_11
REMARK    2  A    between atoms: N_3  and  S_4
REMARK    3  A    between atoms: S_4  and  N_7
REMARK    4  A    between atoms: C_13  and  C_14
REMARK    5  A    between atoms: C_17  and  O_18
REMARK    6  A    between atoms: O_18  and  C_19
REMARK    7  A    between atoms: C_19  and  C_20
REMARK                            x       y       z     vdW  Elec       q    Type
REMARK                         _______ _______ _______ _____ _____    ______ ____
ROOT
ATOM      1  C   UNL     1       1.618   7.786  20.357  0.00  0.00    +0.000 A 
ATOM      2  C   UNL     1       1.433   6.491  20.862  0.00  0.00    +0.000 A 
ATOM      3  C   UNL     1       1.729   5.322  20.134  0.00  0.00    +0.000 A 
ATOM      4  C   UNL     1       2.296   5.489  18.846  0.00  0.00    +0.000 A 
ATOM      5  C   UNL     1       2.488   6.784  18.329  0.00  0.00    +0.000 A 
ATOM      6  C   UNL     1       2.138   7.918  19.082  0.00  0.00    +0.000 A 
ATOM      7  F   UNL     1       2.323   9.127  18.530  0.00  0.00    +0.000 F 
ENDROOT
BRANCH   1   9
ATOM      8  O   UNL     1       1.786   9.004  22.338  0.00  0.00    +0.000 OA
ATOM      9  C   UNL     1       1.233   8.906  21.253  0.00  0.00    +0.000 C 
ATOM     10  N   UNL     1       0.263   9.800  20.802  0.00  0.00    +0.000 N 
ATOM     11  H   UNL     1      -0.342   9.576  20.017  0.00  0.00    +0.000 HD
BRANCH  10  12
ATOM     12  S   UNL     1      -0.289  11.087  21.680  0.00  0.00    +0.000 S 
ATOM     13  O   UNL     1      -1.489  11.528  21.008  0.00  0.00    +0.000 OA
ATOM     14  O   UNL     1      -0.315  10.748  23.079  0.00  0.00    +0.000 OA
BRANCH  12  15
ATOM     15  N   UNL     1       0.901  12.246  21.409  0.00  0.00    +0.000 NA
ATOM     16  C   UNL     1       1.530  12.463  20.068  0.00  0.00    +0.000 C 
ATOM     17  C   UNL     1       1.804  13.928  20.445  0.00  0.00    +0.000 C 
ATOM     18  C   UNL     1       0.718  13.728  21.511  0.00  0.00    +0.000 C 
ENDBRANCH  12  15
ENDBRANCH  10  12
ENDBRANCH   1   9
BRANCH   3  19
ATOM     19  C   UNL     1       1.389   3.944  20.695  0.00  0.00    +0.000 C 
ATOM     20  C   UNL     1       2.260   2.744  20.416  0.00  0.00    +0.000 C 
ATOM     21  C   UNL     1       2.201   3.309  21.805  0.00  0.00    +0.000 C 
ENDBRANCH   3  19
BRANCH   4  22
ATOM     22  O   UNL     1       2.635   4.319  18.199  0.00  0.00    +0.000 OA
BRANCH  22  23
ATOM     23  C   UNL     1       3.491   4.420  17.068  0.00  0.00    +0.000 C 
BRANCH  23  24
ATOM     24  C   UNL     1       4.904   3.879  17.377  0.00  0.00    +0.000 C 
ATOM     25  C   UNL     1       5.346   4.088  18.841  0.00  0.00    +0.000 C 
ATOM     26  C   UNL     1       6.224   5.307  19.120  0.00  0.00    +0.000 C 
ATOM     27  C   UNL     1       7.314   5.472  18.084  0.00  0.00    +0.000 C 
ATOM     28  F   UNL     1       8.167   4.418  18.144  0.00  0.00    +0.000 F 
ATOM     29  F   UNL     1       8.047   6.577  18.363  0.00  0.00    +0.000 F 
ATOM     30  C   UNL     1       6.734   5.582  16.692  0.00  0.00    +0.000 C 
ATOM     31  C   UNL     1       5.940   4.334  16.330  0.00  0.00    +0.000 C 
ENDBRANCH  23  24
ENDBRANCH  22  23
ENDBRANCH   4  22
TORSDOF 7
ENDMDL
MODEL 2
REMARK VINA RESULT:      -8.7      1.229      1.386
REMARK  Name = 
REMARK  7 active torsions:
REMARK  status: ('A' for Active; 'I' for Inactive)
REMARK    1  A    between atoms: C_2  and  C_11
REMARK    2  A    between atoms: N_3  and  S_4
REMARK    3  A    between atoms: S_4  and  N_7
REMARK    4  A    between atoms: C_13  and  C_14
REMARK    5  A    between atoms: C_17  and  O_18
REMARK    6  A    between atoms: O_18  and  C_19
REMARK    7  A    between atoms: C_19  and  C_20
REMARK                            x       y       z     vdW  Elec       q    Type
REMARK                         _______ _______ _______ _____ _____    ______ ____
ROOT
ATOM      1  C   UNL     1       1.681   7.630  20.214  0.00  0.00    +0.000 A 
ATOM      2  C   UNL     1       1.424   6.366  20.763  0.00  0.00    +0.000 A 
ATOM      3  C   UNL     1       1.708   5.156  20.098  0.00  0.00    +0.000 A 
ATOM      4  C   UNL     1       2.338   5.248  18.832  0.00  0.00    +0.000 A 
ATOM      5  C   UNL     1       2.603   6.511  18.272  0.00  0.00    +0.000 A 
ATOM      6  C   UNL     1       2.263   7.688  18.960  0.00  0.00    +0.000 A 
ATOM      7  F   UNL     1       2.519   8.865  18.369  0.00  0.00    +0.000 F 
ENDROOT
BRANCH   1   9
ATOM      8  O   UNL     1       1.698   8.855  22.198  0.00  0.00    +0.000 OA
ATOM      9  C   UNL     1       1.300   8.801  21.044  0.00  0.00    +0.000 C 
ATOM     10  N   UNL     1       0.514   9.790  20.457  0.00  0.00    +0.000 N 
ATOM     11  H   UNL     1       0.008   9.622  19.592  0.00  0.00    +0.000 HD
BRANCH  10  12
ATOM     12  S   UNL     1      -0.011  11.146  21.245  0.00  0.00    +0.000 S 
ATOM     13  O   UNL     1      -0.924  10.674  22.261  0.00  0.00    +0.000 OA
ATOM     14  O   UNL     1       1.115  11.972  21.597  0.00  0.00    +0.000 OA
BRANCH  12  15
ATOM     15  N   UNL     1      -0.923  11.920  20.061  0.00  0.00    +0.000 NA
ATOM     16  C   UNL     1      -0.306  12.721  18.958  0.00  0.00    +0.000 C 
ATOM     17  C   UNL     1      -1.519  12.411  18.066  0.00  0.00    +0.000 C 
ATOM     18  C   UNL     1      -1.773  11.244  19.031  0.00  0.00    +0.000 C 
ENDBRANCH  12  15
ENDBRANCH  10  12
ENDBRANCH   1   9
BRANCH   3  19
ATOM     19  C   UNL     1       1.289   3.818  20.699  0.00  0.00    +0.000 C 
ATOM     20  C   UNL     1       2.026   2.542  20.369  0.00  0.00    +0.000 C 
ATOM     21  C   UNL     1       2.124   3.116  21.752  0.00  0.00    +0.000 C 
ENDBRANCH   3  19
BRANCH   4  22
ATOM     22  O   UNL     1       2.660   4.039  18.250  0.00  0.00    +0.000 OA
BRANCH  22  23
ATOM     23  C   UNL     1       3.462   4.070  17.076  0.00  0.00    +0.000 C 
BRANCH  23  24
ATOM     24  C   UNL     1       4.917   3.647  17.372  0.00  0.00    +0.000 C 
ATOM     25  C   UNL     1       5.384   3.979  18.805  0.00  0.00    +0.000 C 
ATOM     26  C   UNL     1       6.181   5.270  18.981  0.00  0.00    +0.000 C 
ATOM     27  C   UNL     1       7.228   5.443  17.902  0.00  0.00    +0.000 C 
ATOM     28  F   UNL     1       8.154   4.456  17.999  0.00  0.00    +0.000 F 
ATOM     29  F   UNL     1       7.890   6.611  18.089  0.00  0.00    +0.000 F 
ATOM     30  C   UNL     1       6.603   5.425  16.525  0.00  0.00    +0.000 C 
ATOM     31  C   UNL     1       5.889   4.105  16.266  0.00  0.00    +0.000 C 
ENDBRANCH  23  24
ENDBRANCH  22  23
ENDBRANCH   4  22
TORSDOF 7
ENDMDL
MODEL 3
REMARK VINA RESULT:      -8.6      4.192      8.673
REMARK  Name = 
REMARK  7 active torsions:
REMARK  status: ('A' for Active; 'I' for Inactive)
REMARK    1  A    between atoms: C_2  and  C_11
REMARK    2  A    between atoms: N_3  and  S_4
REMARK    3  A    between atoms: S_4  and  N_7
REMARK    4  A    between atoms: C_13  and  C_14
REMARK    5  A    between atoms: C_17  and  O_18
REMARK    6  A    between atoms: O_18  and  C_19
REMARK    7  A    between atoms: C_19  and  C_20
REMARK                            x       y       z     vdW  Elec       q    Type
REMARK                         _______ _______ _______ _____ _____    ______ ____
ROOT
ATOM      1  C   UNL     1       2.365   7.458  18.940  0.00  0.00    +0.000 A 
ATOM      2  C   UNL     1       1.622   7.910  20.040  0.00  0.00    +0.000 A 
ATOM      3  C   UNL     1       1.065   9.202  20.125  0.00  0.00    +0.000 A 
ATOM      4  C   UNL     1       1.231  10.052  19.003  0.00  0.00    +0.000 A 
ATOM      5  C   UNL     1       1.974   9.608  17.893  0.00  0.00    +0.000 A 
ATOM      6  C   UNL     1       2.542   8.323  17.875  0.00  0.00    +0.000 A 
ATOM      7  F   UNL     1       3.258   7.961  16.800  0.00  0.00    +0.000 F 
ENDROOT
BRANCH   1   9
ATOM      8  O   UNL     1       3.799   5.842  19.815  0.00  0.00    +0.000 OA
ATOM      9  C   UNL     1       2.897   6.074  19.026  0.00  0.00    +0.000 C 
ATOM     10  N   UNL     1       2.326   5.102  18.206  0.00  0.00    +0.000 N 
ATOM     11  H   UNL     1       1.751   5.354  17.406  0.00  0.00    +0.000 HD
BRANCH  10  12
ATOM     12  S   UNL     1       2.811   3.523  18.165  0.00  0.00    +0.000 S 
ATOM     13  O   UNL     1       2.154   2.944  17.016  0.00  0.00    +0.000 OA
ATOM     14  O   UNL     1       4.242   3.448  18.306  0.00  0.00    +0.000 OA
BRANCH  12  15
ATOM     15  N   UNL     1       2.082   2.887  19.542  0.00  0.00    +0.000 NA
ATOM     16  C   UNL     1       2.807   2.722  20.841  0.00  0.00    +0.000 C 
ATOM     17  C   UNL     1       1.473   2.859  21.593  0.00  0.00    +0.000 C 
ATOM     18  C   UNL     1       0.956   3.514  20.305  0.00  0.00    +0.000 C 
ENDBRANCH  12  15
ENDBRANCH  10  12
ENDBRANCH   1   9
BRANCH   3  19
ATOM     19  C   UNL     1       0.374   9.672  21.401  0.00  0.00    +0.000 C 
ATOM     20  C   UNL     1      -0.426   8.721  22.259  0.00  0.00    +0.000 C 
ATOM     21  C   UNL     1       0.871   9.272  22.776  0.00  0.00    +0.000 C 
ENDBRANCH   3  19
BRANCH   4  22
ATOM     22  O   UNL     1       0.610  11.280  19.103  0.00  0.00    +0.000 OA
BRANCH  22  23
ATOM     23  C   UNL     1      -0.464  11.545  18.208  0.00  0.00    +0.000 C 
BRANCH  23  24
ATOM     24  C   UNL     1      -1.700  10.679  18.536  0.00  0.00    +0.000 C 
ATOM     25  C   UNL     1      -2.240   9.881  17.330  0.00  0.00    +0.000 C 
ATOM     26  C   UNL     1      -3.414  10.500  16.573  0.00  0.00    +0.000 C 
ATOM     27  C   UNL     1      -4.467  11.052  17.510  0.00  0.00    +0.000 C 
ATOM     28  F   UNL     1      -5.020  10.039  18.226  0.00  0.00    +0.000 F 
ATOM     29  F   UNL     1      -5.472  11.609  16.792  0.00  0.00    +0.000 F 
ATOM     30  C   UNL     1      -3.879  12.080  18.450  0.00  0.00    +0.000 C 
ATOM     31  C   UNL     1      -2.775  11.471  19.305  0.00  0.00    +0.000 C 
ENDBRANCH  23  24
ENDBRANCH  22  23
ENDBRANCH   4  22
TORSDOF 7
ENDMDL
MODEL 4
REMARK VINA RESULT:      -8.3      1.531      1.685
REMARK  Name = 
REMARK  7 active torsions:
REMARK  status: ('A' for Active; 'I' for Inactive)
REMARK    1  A    between atoms: C_2  and  C_11
REMARK    2  A    between atoms: N_3  and  S_4
REMARK    3  A    between atoms: S_4  and  N_7
REMARK    4  A    between atoms: C_13  and  C_14
REMARK    5  A    between atoms: C_17  and  O_18
REMARK    6  A    between atoms: O_18  and  C_19
REMARK    7  A    between atoms: C_19  and  C_20
REMARK                            x       y       z     vdW  Elec       q    Type
REMARK                         _______ _______ _______ _____ _____    ______ ____
ROOT
ATOM      1  C   UNL     1       1.713   7.957  20.077  0.00  0.00    +0.000 A 
ATOM      2  C   UNL     1       1.846   6.663  20.602  0.00  0.00    +0.000 A 
ATOM      3  C   UNL     1       2.260   5.553  19.839  0.00  0.00    +0.000 A 
ATOM      4  C   UNL     1       2.611   5.792  18.487  0.00  0.00    +0.000 A 
ATOM      5  C   UNL     1       2.483   7.086  17.950  0.00  0.00    +0.000 A 
ATOM      6  C   UNL     1       2.026   8.153  18.744  0.00  0.00    +0.000 A 
ATOM      7  F   UNL     1       1.904   9.361  18.173  0.00  0.00    +0.000 F 
ENDROOT
BRANCH   1   9
ATOM      8  O   UNL     1       1.608   8.954  22.182  0.00  0.00    +0.000 OA
ATOM      9  C   UNL     1       1.244   9.006  21.017  0.00  0.00    +0.000 C 
ATOM     10  N   UNL     1       0.418  10.011  20.516  0.00  0.00    +0.000 N 
ATOM     11  H   UNL     1      -0.055   9.912  19.621  0.00  0.00    +0.000 HD
BRANCH  10  12
ATOM     12  S   UNL     1      -0.203  11.240  21.429  0.00  0.00    +0.000 S 
ATOM     13  O   UNL     1      -0.989  10.600  22.459  0.00  0.00    +0.000 OA
ATOM     14  O   UNL     1       0.842  12.168  21.775  0.00  0.00    +0.000 OA
BRANCH  12  15
ATOM     15  N   UNL     1      -1.272  11.979  20.359  0.00  0.00    +0.000 NA
ATOM     16  C   UNL     1      -1.819  11.285  19.151  0.00  0.00    +0.000 C 
ATOM     17  C   UNL     1      -3.073  12.171  19.221  0.00  0.00    +0.000 C 
ATOM     18  C   UNL     1      -2.667  12.418  20.680  0.00  0.00    +0.000 C 
ENDBRANCH  12  15
ENDBRANCH  10  12
ENDBRANCH   1   9
BRANCH   3  19
ATOM     19  C   UNL     1       2.264   4.150  20.441  0.00  0.00    +0.000 C 
ATOM     20  C   UNL     1       1.025   3.559  21.067  0.00  0.00    +0.000 C 
ATOM     21  C   UNL     1       1.545   2.992  19.779  0.00  0.00    +0.000 C 
ENDBRANCH   3  19
BRANCH   4  22
ATOM     22  O   UNL     1       3.077   4.690  17.800  0.00  0.00    +0.000 OA
BRANCH  22  23
ATOM     23  C   UNL     1       4.076   4.910  16.812  0.00  0.00    +0.000 C 
BRANCH  23  24
ATOM     24  C   UNL     1       5.434   4.311  17.237  0.00  0.00    +0.000 C 
ATOM     25  C   UNL     1       5.656   4.288  18.764  0.00  0.00    +0.000 C 
ATOM     26  C   UNL     1       6.469   5.438  19.353  0.00  0.00    +0.000 C 
ATOM     27  C   UNL     1       7.697   5.748  18.526  0.00  0.00    +0.000 C 
ATOM     28  F   UNL     1       8.544   4.687  18.546  0.00  0.00    +0.000 F 
ATOM     29  F   UNL     1       8.370   6.788  19.075  0.00  0.00    +0.000 F 
ATOM     30  C   UNL     1       7.326   6.078  17.097  0.00  0.00    +0.000 C 
ATOM     31  C   UNL     1       6.607   4.909  16.436  0.00  0.00    +0.000 C 
ENDBRANCH  23  24
ENDBRANCH  22  23
ENDBRANCH   4  22
TORSDOF 7
ENDMDL
MODEL 5
REMARK VINA RESULT:      -8.2      3.106      4.376
REMARK  Name = 
REMARK  7 active torsions:
REMARK  status: ('A' for Active; 'I' for Inactive)
REMARK    1  A    between atoms: C_2  and  C_11
REMARK    2  A    between atoms: N_3  and  S_4
REMARK    3  A    between atoms: S_4  and  N_7
REMARK    4  A    between atoms: C_13  and  C_14
REMARK    5  A    between atoms: C_17  and  O_18
REMARK    6  A    between atoms: O_18  and  C_19
REMARK    7  A    between atoms: C_19  and  C_20
REMARK                            x       y       z     vdW  Elec       q    Type
REMARK                         _______ _______ _______ _____ _____    ______ ____
ROOT
ATOM      1  C   UNL     1       1.048   9.300  19.832  0.00  0.00    +0.000 A 
ATOM      2  C   UNL     1       1.710   8.572  18.833  0.00  0.00    +0.000 A 
ATOM      3  C   UNL     1       2.206   7.266  19.021  0.00  0.00    +0.000 A 
ATOM      4  C   UNL     1       1.961   6.656  20.277  0.00  0.00    +0.000 A 
ATOM      5  C   UNL     1       1.296   7.376  21.287  0.00  0.00    +0.000 A 
ATOM      6  C   UNL     1       0.856   8.692  21.060  0.00  0.00    +0.000 A 
ATOM      7  F   UNL     1       0.247   9.338  22.067  0.00  0.00    +0.000 F 
ENDROOT
BRANCH   1   9
ATOM      8  O   UNL     1       1.414  11.586  19.562  0.00  0.00    +0.000 OA
ATOM      9  C   UNL     1       0.610  10.671  19.470  0.00  0.00    +0.000 C 
ATOM     10  N   UNL     1      -0.701  10.844  19.029  0.00  0.00    +0.000 N 
ATOM     11  H   UNL     1      -1.410  10.131  19.179  0.00  0.00    +0.000 HD
BRANCH  10  12
ATOM     12  S   UNL     1      -1.350  12.303  18.604  0.00  0.00    +0.000 S 
ATOM     13  O   UNL     1      -1.894  12.855  19.824  0.00  0.00    +0.000 OA
ATOM     14  O   UNL     1      -0.401  13.050  17.821  0.00  0.00    +0.000 OA
BRANCH  12  15
ATOM     15  N   UNL     1      -2.646  11.851  17.629  0.00  0.00    +0.000 NA
ATOM     16  C   UNL     1      -2.469  11.128  16.331  0.00  0.00    +0.000 C 
ATOM     17  C   UNL     1      -3.861  10.500  16.502  0.00  0.00    +0.000 C 
ATOM     18  C   UNL     1      -3.703  10.853  17.987  0.00  0.00    +0.000 C 
ENDBRANCH  12  15
ENDBRANCH  10  12
ENDBRANCH   1   9
BRANCH   3  19
ATOM     19  C   UNL     1       3.025   6.578  17.933  0.00  0.00    +0.000 C 
ATOM     20  C   UNL     1       4.087   7.321  17.159  0.00  0.00    +0.000 C 
ATOM     21  C   UNL     1       4.491   6.245  18.124  0.00  0.00    +0.000 C 
ENDBRANCH   3  19
BRANCH   4  22
ATOM     22  O   UNL     1       2.402   5.354  20.390  0.00  0.00    +0.000 OA
BRANCH  22  23
ATOM     23  C   UNL     1       1.461   4.379  20.823  0.00  0.00    +0.000 C 
BRANCH  23  24
ATOM     24  C   UNL     1       1.798   2.980  20.264  0.00  0.00    +0.000 C 
ATOM     25  C   UNL     1       3.266   2.557  20.482  0.00  0.00    +0.000 C 
ATOM     26  C   UNL     1       4.221   2.779  19.311  0.00  0.00    +0.000 C 
ATOM     27  C   UNL     1       3.613   2.351  17.993  0.00  0.00    +0.000 C 
ATOM     28  F   UNL     1       3.391   1.012  18.003  0.00  0.00    +0.000 F 
ATOM     29  F   UNL     1       4.487   2.589  16.986  0.00  0.00    +0.000 F 
ATOM     30  C   UNL     1       2.315   3.081  17.726  0.00  0.00    +0.000 C 
ATOM     31  C   UNL     1       1.293   2.797  18.819  0.00  0.00    +0.000 C 
ENDBRANCH  23  24
ENDBRANCH  22  23
ENDBRANCH   4  22
TORSDOF 7
ENDMDL
MODEL 6
REMARK VINA RESULT:      -8.1      2.868      4.614
REMARK  Name = 
REMARK  7 active torsions:
REMARK  status: ('A' for Active; 'I' for Inactive)
REMARK    1  A    between atoms: C_2  and  C_11
REMARK    2  A    between atoms: N_3  and  S_4
REMARK    3  A    between atoms: S_4  and  N_7
REMARK    4  A    between atoms: C_13  and  C_14
REMARK    5  A    between atoms: C_17  and  O_18
REMARK    6  A    between atoms: O_18  and  C_19
REMARK    7  A    between atoms: C_19  and  C_20
REMARK                            x       y       z     vdW  Elec       q    Type
REMARK                         _______ _______ _______ _____ _____    ______ ____
ROOT
ATOM      1  C   UNL     1       2.547   7.861  18.568  0.00  0.00    +0.000 A 
ATOM      2  C   UNL     1       3.509   7.561  17.594  0.00  0.00    +0.000 A 
ATOM      3  C   UNL     1       4.328   6.415  17.635  0.00  0.00    +0.000 A 
ATOM      4  C   UNL     1       4.111   5.504  18.698  0.00  0.00    +0.000 A 
ATOM      5  C   UNL     1       3.147   5.793  19.682  0.00  0.00    +0.000 A 
ATOM      6  C   UNL     1       2.383   6.971  19.615  0.00  0.00    +0.000 A 
ATOM      7  F   UNL     1       1.494   7.206  20.592  0.00  0.00    +0.000 F 
ENDROOT
BRANCH   1   9
ATOM      8  O   UNL     1       1.931   9.743  17.338  0.00  0.00    +0.000 OA
ATOM      9  C   UNL     1       1.786   9.122  18.380  0.00  0.00    +0.000 C 
ATOM     10  N   UNL     1       0.930   9.528  19.402  0.00  0.00    +0.000 N 
ATOM     11  H   UNL     1       0.996   9.135  20.338  0.00  0.00    +0.000 HD
BRANCH  10  12
ATOM     12  S   UNL     1       0.026  10.912  19.359  0.00  0.00    +0.000 S 
ATOM     13  O   UNL     1       0.977  11.998  19.424  0.00  0.00    +0.000 OA
ATOM     14  O   UNL     1      -0.929  10.837  18.284  0.00  0.00    +0.000 OA
BRANCH  12  15
ATOM     15  N   UNL     1      -0.786  10.857  20.832  0.00  0.00    +0.000 NA
ATOM     16  C   UNL     1      -0.338  10.000  21.974  0.00  0.00    +0.000 C 
ATOM     17  C   UNL     1      -0.984  10.988  22.958  0.00  0.00    +0.000 C 
ATOM     18  C   UNL     1      -0.920  11.992  21.799  0.00  0.00    +0.000 C 
ENDBRANCH  12  15
ENDBRANCH  10  12
ENDBRANCH   1   9
BRANCH   3  19
ATOM     19  C   UNL     1       5.440   6.212  16.609  0.00  0.00    +0.000 C 
ATOM     20  C   UNL     1       5.489   4.983  15.736  0.00  0.00    +0.000 C 
ATOM     21  C   UNL     1       5.183   6.316  15.119  0.00  0.00    +0.000 C 
ENDBRANCH   3  19
BRANCH   4  22
ATOM     22  O   UNL     1       4.886   4.363  18.658  0.00  0.00    +0.000 OA
BRANCH  22  23
ATOM     23  C   UNL     1       4.949   3.573  19.840  0.00  0.00    +0.000 C 
BRANCH  23  24
ATOM     24  C   UNL     1       4.039   2.330  19.738  0.00  0.00    +0.000 C 
ATOM     25  C   UNL     1       3.622   1.977  18.294  0.00  0.00    +0.000 C 
ATOM     26  C   UNL     1       2.255   2.480  17.837  0.00  0.00    +0.000 C 
ATOM     27  C   UNL     1       1.189   2.266  18.889  0.00  0.00    +0.000 C 
ATOM     28  F   UNL     1       1.010   0.936  19.097  0.00  0.00    +0.000 F 
ATOM     29  F   UNL     1       0.003   2.748  18.445  0.00  0.00    +0.000 F 
ATOM     30  C   UNL     1       1.560   2.941  20.191  0.00  0.00    +0.000 C 
ATOM     31  C   UNL     1       2.868   2.386  20.740  0.00  0.00    +0.000 C 
ENDBRANCH  23  24
ENDBRANCH  22  23
ENDBRANCH   4  22
TORSDOF 7
ENDMDL
MODEL 7
REMARK VINA RESULT:      -8.1      2.948      4.499
REMARK  Name = 
REMARK  7 active torsions:
REMARK  status: ('A' for Active; 'I' for Inactive)
REMARK    1  A    between atoms: C_2  and  C_11
REMARK    2  A    between atoms: N_3  and  S_4
REMARK    3  A    between atoms: S_4  and  N_7
REMARK    4  A    between atoms: C_13  and  C_14
REMARK    5  A    between atoms: C_17  and  O_18
REMARK    6  A    between atoms: O_18  and  C_19
REMARK    7  A    between atoms: C_19  and  C_20
REMARK                            x       y       z     vdW  Elec       q    Type
REMARK                         _______ _______ _______ _____ _____    ______ ____
ROOT
ATOM      1  C   UNL     1       2.394   7.829  18.778  0.00  0.00    +0.000 A 
ATOM      2  C   UNL     1       3.323   7.402  17.819  0.00  0.00    +0.000 A 
ATOM      3  C   UNL     1       4.126   6.254  17.970  0.00  0.00    +0.000 A 
ATOM      4  C   UNL     1       3.925   5.473  19.135  0.00  0.00    +0.000 A 
ATOM      5  C   UNL     1       2.993   5.891  20.104  0.00  0.00    +0.000 A 
ATOM      6  C   UNL     1       2.246   7.067  19.923  0.00  0.00    +0.000 A 
ATOM      7  F   UNL     1       1.388   7.428  20.890  0.00  0.00    +0.000 F 
ENDROOT
BRANCH   1   9
ATOM      8  O   UNL     1       1.814   9.599  17.376  0.00  0.00    +0.000 OA
ATOM      9  C   UNL     1       1.648   9.074  18.466  0.00  0.00    +0.000 C 
ATOM     10  N   UNL     1       0.779   9.575  19.435  0.00  0.00    +0.000 N 
ATOM     11  H   UNL     1       0.827   9.266  20.402  0.00  0.00    +0.000 HD
BRANCH  10  12
ATOM     12  S   UNL     1      -0.111  10.956  19.254  0.00  0.00    +0.000 S 
ATOM     13  O   UNL     1       0.851  12.033  19.198  0.00  0.00    +0.000 OA
ATOM     14  O   UNL     1      -1.077  10.780  18.201  0.00  0.00    +0.000 OA
BRANCH  12  15
ATOM     15  N   UNL     1      -0.910  11.064  20.732  0.00  0.00    +0.000 NA
ATOM     16  C   UNL     1      -0.254  10.732  22.035  0.00  0.00    +0.000 C 
ATOM     17  C   UNL     1      -1.202  11.707  22.751  0.00  0.00    +0.000 C 
ATOM     18  C   UNL     1      -1.417  12.325  21.362  0.00  0.00    +0.000 C 
ENDBRANCH  12  15
ENDBRANCH  10  12
ENDBRANCH   1   9
BRANCH   3  19
ATOM     19  C   UNL     1       5.205   5.915  16.945  0.00  0.00    +0.000 C 
ATOM     20  C   UNL     1       5.317   6.668  15.642  0.00  0.00    +0.000 C 
ATOM     21  C   UNL     1       6.382   6.833  16.686  0.00  0.00    +0.000 C 
ENDBRANCH   3  19
BRANCH   4  22
ATOM     22  O   UNL     1       4.681   4.322  19.206  0.00  0.00    +0.000 OA
BRANCH  22  23
ATOM     23  C   UNL     1       4.812   3.550  18.018  0.00  0.00    +0.000 C 
BRANCH  23  24
ATOM     24  C   UNL     1       3.623   2.581  17.840  0.00  0.00    +0.000 C 
ATOM     25  C   UNL     1       2.398   3.216  17.149  0.00  0.00    +0.000 C 
ATOM     26  C   UNL     1       1.286   3.724  18.064  0.00  0.00    +0.000 C 
ATOM     27  C   UNL     1       0.968   2.743  19.172  0.00  0.00    +0.000 C 
ATOM     28  F   UNL     1       0.474   1.596  18.641  0.00  0.00    +0.000 F 
ATOM     29  F   UNL     1      -0.005   3.250  19.967  0.00  0.00    +0.000 F 
ATOM     30  C   UNL     1       2.196   2.436  20.000  0.00  0.00    +0.000 C 
ATOM     31  C   UNL     1       3.294   1.822  19.141  0.00  0.00    +0.000 C 
ENDBRANCH  23  24
ENDBRANCH  22  23
ENDBRANCH   4  22
TORSDOF 7
ENDMDL
MODEL 8
REMARK VINA RESULT:      -8.1      1.226      1.494
REMARK  Name = 
REMARK  7 active torsions:
REMARK  status: ('A' for Active; 'I' for Inactive)
REMARK    1  A    between atoms: C_2  and  C_11
REMARK    2  A    between atoms: N_3  and  S_4
REMARK    3  A    between atoms: S_4  and  N_7
REMARK    4  A    between atoms: C_13  and  C_14
REMARK    5  A    between atoms: C_17  and  O_18
REMARK    6  A    between atoms: O_18  and  C_19
REMARK    7  A    between atoms: C_19  and  C_20
REMARK                            x       y       z     vdW  Elec       q    Type
REMARK                         _______ _______ _______ _____ _____    ______ ____
ROOT
ATOM      1  C   UNL     1       1.896   7.248  19.898  0.00  0.00    +0.000 A 
ATOM      2  C   UNL     1       2.010   6.034  20.590  0.00  0.00    +0.000 A 
ATOM      3  C   UNL     1       2.555   4.864  20.024  0.00  0.00    +0.000 A 
ATOM      4  C   UNL     1       3.059   4.960  18.703  0.00  0.00    +0.000 A 
ATOM      5  C   UNL     1       2.952   6.174  17.999  0.00  0.00    +0.000 A 
ATOM      6  C   UNL     1       2.363   7.301  18.597  0.00  0.00    +0.000 A 
ATOM      7  F   UNL     1       2.268   8.426  17.871  0.00  0.00    +0.000 F 
ENDROOT
BRANCH   1   9
ATOM      8  O   UNL     1       0.961   8.205  21.807  0.00  0.00    +0.000 OA
ATOM      9  C   UNL     1       1.278   8.376  20.640  0.00  0.00    +0.000 C 
ATOM     10  N   UNL     1       1.102   9.583  19.967  0.00  0.00    +0.000 N 
ATOM     11  H   UNL     1       1.153   9.638  18.953  0.00  0.00    +0.000 HD
BRANCH  10  12
ATOM     12  S   UNL     1       0.415  10.928  20.640  0.00  0.00    +0.000 S 
ATOM     13  O   UNL     1      -0.997  10.827  20.353  0.00  0.00    +0.000 OA
ATOM     14  O   UNL     1       0.879  11.087  21.993  0.00  0.00    +0.000 OA
BRANCH  12  15
ATOM     15  N   UNL     1       1.040  12.167  19.687  0.00  0.00    +0.000 NA
ATOM     16  C   UNL     1       2.010  13.181  20.209  0.00  0.00    +0.000 C 
ATOM     17  C   UNL     1       2.577  13.354  18.791  0.00  0.00    +0.000 C 
ATOM     18  C   UNL     1       1.936  11.990  18.500  0.00  0.00    +0.000 C 
ENDBRANCH  12  15
ENDBRANCH  10  12
ENDBRANCH   1   9
BRANCH   3  19
ATOM     19  C   UNL     1       2.536   3.544  20.790  0.00  0.00    +0.000 C 
ATOM     20  C   UNL     1       1.402   3.191  21.721  0.00  0.00    +0.000 C 
ATOM     21  C   UNL     1       1.572   2.429  20.440  0.00  0.00    +0.000 C 
ENDBRANCH   3  19
BRANCH   4  22
ATOM     22  O   UNL     1       3.646   3.809  18.216  0.00  0.00    +0.000 OA
BRANCH  22  23
ATOM     23  C   UNL     1       3.929   3.758  16.823  0.00  0.00    +0.000 C 
BRANCH  23  24
ATOM     24  C   UNL     1       5.396   4.140  16.530  0.00  0.00    +0.000 C 
ATOM     25  C   UNL     1       6.248   4.365  17.797  0.00  0.00    +0.000 C 
ATOM     26  C   UNL     1       6.418   5.811  18.257  0.00  0.00    +0.000 C 
ATOM     27  C   UNL     1       6.715   6.744  17.103  0.00  0.00    +0.000 C 
ATOM     28  F   UNL     1       7.911   6.420  16.548  0.00  0.00    +0.000 F 
ATOM     29  F   UNL     1       6.834   8.014  17.559  0.00  0.00    +0.000 F 
ATOM     30  C   UNL     1       5.630   6.677  16.051  0.00  0.00    +0.000 C 
ATOM     31  C   UNL     1       5.503   5.269  15.486  0.00  0.00    +0.000 C 
ENDBRANCH  23  24
ENDBRANCH  22  23
ENDBRANCH   4  22
TORSDOF 7
ENDMDL
MODEL 9
REMARK VINA RESULT:      -8.1      2.701      4.044
REMARK  Name = 
REMARK  7 active torsions:
REMARK  status: ('A' for Active; 'I' for Inactive)
REMARK    1  A    between atoms: C_2  and  C_11
REMARK    2  A    between atoms: N_3  and  S_4
REMARK    3  A    between atoms: S_4  and  N_7
REMARK    4  A    between atoms: C_13  and  C_14
REMARK    5  A    between atoms: C_17  and  O_18
REMARK    6  A    between atoms: O_18  and  C_19
REMARK    7  A    between atoms: C_19  and  C_20
REMARK                            x       y       z     vdW  Elec       q    Type
REMARK                         _______ _______ _______ _____ _____    ______ ____
ROOT
ATOM      1  C   UNL     1       1.286   9.275  19.647  0.00  0.00    +0.000 A 
ATOM      2  C   UNL     1       1.977   8.458  18.742  0.00  0.00    +0.000 A 
ATOM      3  C   UNL     1       2.372   7.136  19.030  0.00  0.00    +0.000 A 
ATOM      4  C   UNL     1       1.989   6.608  20.288  0.00  0.00    +0.000 A 
ATOM      5  C   UNL     1       1.293   7.418  21.205  0.00  0.00    +0.000 A 
ATOM      6  C   UNL     1       0.958   8.744  20.882  0.00  0.00    +0.000 A 
ATOM      7  F   UNL     1       0.314   9.477  21.803  0.00  0.00    +0.000 F 
ENDROOT
BRANCH   1   9
ATOM      8  O   UNL     1       1.689  11.169  18.348  0.00  0.00    +0.000 OA
ATOM      9  C   UNL     1       0.967  10.650  19.187  0.00  0.00    +0.000 C 
ATOM     10  N   UNL     1      -0.153  11.278  19.728  0.00  0.00    +0.000 N 
ATOM     11  H   UNL     1      -0.597  10.934  20.576  0.00  0.00    +0.000 HD
BRANCH  10  12
ATOM     12  S   UNL     1      -0.636  12.809  19.337  0.00  0.00    +0.000 S 
ATOM     13  O   UNL     1       0.416  13.680  19.809  0.00  0.00    +0.000 OA
ATOM     14  O   UNL     1      -1.061  12.851  17.962  0.00  0.00    +0.000 OA
BRANCH  12  15
ATOM     15  N   UNL     1      -1.969  13.034  20.340  0.00  0.00    +0.000 NA
ATOM     16  C   UNL     1      -2.434  14.386  20.780  0.00  0.00    +0.000 C 
ATOM     17  C   UNL     1      -3.864  13.840  20.917  0.00  0.00    +0.000 C 
ATOM     18  C   UNL     1      -3.389  12.710  19.993  0.00  0.00    +0.000 C 
ENDBRANCH  12  15
ENDBRANCH  10  12
ENDBRANCH   1   9
BRANCH   3  19
ATOM     19  C   UNL     1       3.229   6.345  18.047  0.00  0.00    +0.000 C 
ATOM     20  C   UNL     1       4.169   7.036  17.089  0.00  0.00    +0.000 C 
ATOM     21  C   UNL     1       4.730   6.217  18.214  0.00  0.00    +0.000 C 
ENDBRANCH   3  19
BRANCH   4  22
ATOM     22  O   UNL     1       2.335   5.289  20.498  0.00  0.00    +0.000 OA
BRANCH  22  23
ATOM     23  C   UNL     1       1.278   4.343  20.604  0.00  0.00    +0.000 C 
BRANCH  23  24
ATOM     24  C   UNL     1       1.688   2.969  20.031  0.00  0.00    +0.000 C 
ATOM     25  C   UNL     1       3.148   2.574  20.340  0.00  0.00    +0.000 C 
ATOM     26  C   UNL     1       4.176   2.853  19.245  0.00  0.00    +0.000 C 
ATOM     27  C   UNL     1       3.672   2.450  17.876  0.00  0.00    +0.000 C 
ATOM     28  F   UNL     1       3.484   1.106  17.833  0.00  0.00    +0.000 F 
ATOM     29  F   UNL     1       4.608   2.738  16.941  0.00  0.00    +0.000 F 
ATOM     30  C   UNL     1       2.378   3.158  17.539  0.00  0.00    +0.000 C 
ATOM     31  C   UNL     1       1.290   2.817  18.550  0.00  0.00    +0.000 C 
ENDBRANCH  23  24
ENDBRANCH  22  23
ENDBRANCH   4  22
TORSDOF 7
ENDMDL
