MODEL 1
REMARK VINA RESULT:      -8.0      0.000      0.000
REMARK  Name = 
REMARK  3 active torsions:
REMARK  status: ('A' for Active; 'I' for Inactive)
REMARK    1  A    between atoms: C_2  and  O_3
REMARK    2  A    between atoms: C_2  and  C_4
REMARK    3  A    between atoms: C_15  and  O_16
REMARK                            x       y       z     vdW  Elec       q    Type
REMARK                         _______ _______ _______ _____ _____    ______ ____
ROOT
ATOM      1  C   UNL     1       5.850   4.585  15.467  0.00  0.00    +0.000 A 
ATOM      2  C   UNL     1       5.281   5.692  16.121  0.00  0.00    +0.000 A 
ATOM      3  C   UNL     1       4.477   5.166  17.102  0.00  0.00    +0.000 A 
ATOM      4  N   UNL     1       3.667   5.778  18.007  0.00  0.00    +0.000 NA
ATOM      5  C   UNL     1       3.048   5.000  18.845  0.00  0.00    +0.000 A 
ATOM      6  C   UNL     1       2.131   5.629  19.838  0.00  0.00    +0.000 A 
ATOM      7  C   UNL     1       1.476   4.881  20.736  0.00  0.00    +0.000 A 
ATOM      8  C   UNL     1       1.630   3.453  20.791  0.00  0.00    +0.000 A 
ATOM      9  F   UNL     1       0.939   2.787  21.738  0.00  0.00    +0.000 F 
ATOM     10  C   UNL     1       2.419   2.781  19.943  0.00  0.00    +0.000 A 
ATOM     11  C   UNL     1       3.167   3.485  18.914  0.00  0.00    +0.000 A 
ATOM     12  C   UNL     1       3.974   2.937  17.976  0.00  0.00    +0.000 A 
ATOM     13  N   UNL     1       4.627   3.779  17.043  0.00  0.00    +0.000 N 
ATOM     14  N   UNL     1       5.456   3.419  16.012  0.00  0.00    +0.000 NA
ENDROOT
BRANCH   1  16
ATOM     15  O   UNL     1       7.675   5.404  14.173  0.00  0.00    +0.000 OA
ATOM     16  C   UNL     1       6.763   4.601  14.319  0.00  0.00    +0.000 C 
BRANCH  16  17
ATOM     17  O   UNL     1       6.481   3.621  13.418  0.00  0.00    +0.000 OA
ATOM     18  H   UNL     1       6.038   4.061  12.656  0.00  0.00    +0.000 HD
ENDBRANCH  16  17
ENDBRANCH   1  16
BRANCH  12  19
ATOM     19  O   UNL     1       4.215   1.571  17.871  0.00  0.00    +0.000 OA
ATOM     20  H   UNL     1       4.705   1.374  17.059  0.00  0.00    +0.000 HD
ENDBRANCH  12  19
TORSDOF 3
ENDMDL
MODEL 2
REMARK VINA RESULT:      -7.1      1.566      1.778
REMARK  Name = 
REMARK  3 active torsions:
REMARK  status: ('A' for Active; 'I' for Inactive)
REMARK    1  A    between atoms: C_2  and  O_3
REMARK    2  A    between atoms: C_2  and  C_4
REMARK    3  A    between atoms: C_15  and  O_16
REMARK                            x       y       z     vdW  Elec       q    Type
REMARK                         _______ _______ _______ _____ _____    ______ ____
ROOT
ATOM      1  C   UNL     1       5.812   4.498  15.762  0.00  0.00    +0.000 A 
ATOM      2  C   UNL     1       4.478   4.160  15.474  0.00  0.00    +0.000 A 
ATOM      3  C   UNL     1       3.907   3.854  16.685  0.00  0.00    +0.000 A 
ATOM      4  N   UNL     1       2.651   3.431  16.991  0.00  0.00    +0.000 NA
ATOM      5  C   UNL     1       2.393   3.256  18.254  0.00  0.00    +0.000 A 
ATOM      6  C   UNL     1       1.037   2.769  18.630  0.00  0.00    +0.000 A 
ATOM      7  C   UNL     1       0.708   2.582  19.916  0.00  0.00    +0.000 A 
ATOM      8  C   UNL     1       1.634   2.847  20.982  0.00  0.00    +0.000 A 
ATOM      9  F   UNL     1       1.207   2.642  22.244  0.00  0.00    +0.000 F 
ATOM     10  C   UNL     1       2.882   3.279  20.761  0.00  0.00    +0.000 A 
ATOM     11  C   UNL     1       3.358   3.501  19.405  0.00  0.00    +0.000 A 
ATOM     12  C   UNL     1       4.594   3.904  19.032  0.00  0.00    +0.000 A 
ATOM     13  N   UNL     1       4.886   4.067  17.656  0.00  0.00    +0.000 N 
ATOM     14  N   UNL     1       6.075   4.439  17.081  0.00  0.00    +0.000 NA
ENDROOT
BRANCH   1  16
ATOM     15  O   UNL     1       7.761   5.667  15.048  0.00  0.00    +0.000 OA
ATOM     16  C   UNL     1       6.861   4.873  14.809  0.00  0.00    +0.000 C 
BRANCH  16  17
ATOM     17  O   UNL     1       6.724   4.243  13.611  0.00  0.00    +0.000 OA
ATOM     18  H   UNL     1       6.052   4.753  13.102  0.00  0.00    +0.000 HD
ENDBRANCH  16  17
ENDBRANCH   1  16
BRANCH  12  19
ATOM     19  O   UNL     1       5.618   4.180  19.932  0.00  0.00    +0.000 OA
ATOM     20  H   UNL     1       5.352   3.946  20.834  0.00  0.00    +0.000 HD
ENDBRANCH  12  19
TORSDOF 3
ENDMDL
MODEL 3
REMARK VINA RESULT:      -7.0      1.934      2.499
REMARK  Name = 
REMARK  3 active torsions:
REMARK  status: ('A' for Active; 'I' for Inactive)
REMARK    1  A    between atoms: C_2  and  O_3
REMARK    2  A    between atoms: C_2  and  C_4
REMARK    3  A    between atoms: C_15  and  O_16
REMARK                            x       y       z     vdW  Elec       q    Type
REMARK                         _______ _______ _______ _____ _____    ______ ____
ROOT
ATOM      1  C   UNL     1       6.194   4.805  14.962  0.00  0.00    +0.000 A 
ATOM      2  C   UNL     1       5.727   3.640  15.594  0.00  0.00    +0.000 A 
ATOM      3  C   UNL     1       4.921   4.074  16.617  0.00  0.00    +0.000 A 
ATOM      4  N   UNL     1       4.240   3.378  17.566  0.00  0.00    +0.000 NA
ATOM      5  C   UNL     1       3.521   4.080  18.392  0.00  0.00    +0.000 A 
ATOM      6  C   UNL     1       2.779   3.357  19.463  0.00  0.00    +0.000 A 
ATOM      7  C   UNL     1       2.011   4.025  20.335  0.00  0.00    +0.000 A 
ATOM      8  C   UNL     1       1.863   5.453  20.277  0.00  0.00    +0.000 A 
ATOM      9  F   UNL     1       1.060   6.034  21.190  0.00  0.00    +0.000 F 
ATOM     10  C   UNL     1       2.491   6.205  19.364  0.00  0.00    +0.000 A 
ATOM     11  C   UNL     1       3.364   5.593  18.375  0.00  0.00    +0.000 A 
ATOM     12  C   UNL     1       4.080   6.228  17.419  0.00  0.00    +0.000 A 
ATOM     13  N   UNL     1       4.886   5.468  16.536  0.00  0.00    +0.000 N 
ATOM     14  N   UNL     1       5.697   5.921  15.528  0.00  0.00    +0.000 NA
ENDROOT
BRANCH   1  16
ATOM     15  O   UNL     1       8.077   5.651  13.772  0.00  0.00    +0.000 OA
ATOM     16  C   UNL     1       7.117   4.893  13.826  0.00  0.00    +0.000 C 
BRANCH  16  17
ATOM     17  O   UNL     1       6.788   4.038  12.821  0.00  0.00    +0.000 OA
ATOM     18  H   UNL     1       6.413   4.590  12.095  0.00  0.00    +0.000 HD
ENDBRANCH  16  17
ENDBRANCH   1  16
BRANCH  12  19
ATOM     19  O   UNL     1       4.072   7.606  17.238  0.00  0.00    +0.000 OA
ATOM     20  H   UNL     1       3.175   7.959  17.341  0.00  0.00    +0.000 HD
ENDBRANCH  12  19
TORSDOF 3
ENDMDL
MODEL 4
REMARK VINA RESULT:      -7.0      1.409      1.703
REMARK  Name = 
REMARK  3 active torsions:
REMARK  status: ('A' for Active; 'I' for Inactive)
REMARK    1  A    between atoms: C_2  and  O_3
REMARK    2  A    between atoms: C_2  and  C_4
REMARK    3  A    between atoms: C_15  and  O_16
REMARK                            x       y       z     vdW  Elec       q    Type
REMARK                         _______ _______ _______ _____ _____    ______ ____
ROOT
ATOM      1  C   UNL     1       6.070   5.430  16.811  0.00  0.00    +0.000 A 
ATOM      2  C   UNL     1       4.834   6.086  16.945  0.00  0.00    +0.000 A 
ATOM      3  C   UNL     1       4.129   5.358  17.871  0.00  0.00    +0.000 A 
ATOM      4  N   UNL     1       2.868   5.521  18.353  0.00  0.00    +0.000 NA
ATOM      5  C   UNL     1       2.486   4.677  19.266  0.00  0.00    +0.000 A 
ATOM      6  C   UNL     1       1.102   4.805  19.803  0.00  0.00    +0.000 A 
ATOM      7  C   UNL     1       0.656   3.973  20.755  0.00  0.00    +0.000 A 
ATOM      8  C   UNL     1       1.484   2.934  21.303  0.00  0.00    +0.000 A 
ATOM      9  F   UNL     1       0.951   2.155  22.265  0.00  0.00    +0.000 F 
ATOM     10  C   UNL     1       2.739   2.721  20.889  0.00  0.00    +0.000 A 
ATOM     11  C   UNL     1       3.326   3.550  19.849  0.00  0.00    +0.000 A 
ATOM     12  C   UNL     1       4.564   3.431  19.316  0.00  0.00    +0.000 A 
ATOM     13  N   UNL     1       4.972   4.331  18.301  0.00  0.00    +0.000 N 
ATOM     14  N   UNL     1       6.164   4.359  17.623  0.00  0.00    +0.000 NA
ENDROOT
BRANCH   1  16
ATOM     15  O   UNL     1       7.439   5.204  14.875  0.00  0.00    +0.000 OA
ATOM     16  C   UNL     1       7.177   5.787  15.919  0.00  0.00    +0.000 C 
BRANCH  16  17
ATOM     17  O   UNL     1       7.896   6.845  16.381  0.00  0.00    +0.000 OA
ATOM     18  H   UNL     1       7.610   7.628  15.855  0.00  0.00    +0.000 HD
ENDBRANCH  16  17
ENDBRANCH   1  16
BRANCH  12  19
ATOM     19  O   UNL     1       5.484   2.467  19.712  0.00  0.00    +0.000 OA
ATOM     20  H   UNL     1       6.063   2.225  18.974  0.00  0.00    +0.000 HD
ENDBRANCH  12  19
TORSDOF 3
ENDMDL
MODEL 5
REMARK VINA RESULT:      -6.9      2.020      2.665
REMARK  Name = 
REMARK  3 active torsions:
REMARK  status: ('A' for Active; 'I' for Inactive)
REMARK    1  A    between atoms: C_2  and  O_3
REMARK    2  A    between atoms: C_2  and  C_4
REMARK    3  A    between atoms: C_15  and  O_16
REMARK                            x       y       z     vdW  Elec       q    Type
REMARK                         _______ _______ _______ _____ _____    ______ ____
ROOT
ATOM      1  C   UNL     1       6.961   5.037  14.280  0.00  0.00    +0.000 A 
ATOM      2  C   UNL     1       5.791   4.258  14.254  0.00  0.00    +0.000 A 
ATOM      3  C   UNL     1       5.255   4.356  15.513  0.00  0.00    +0.000 A 
ATOM      4  N   UNL     1       4.148   3.779  16.053  0.00  0.00    +0.000 NA
ATOM      5  C   UNL     1       3.873   4.097  17.284  0.00  0.00    +0.000 A 
ATOM      6  C   UNL     1       2.683   3.467  17.921  0.00  0.00    +0.000 A 
ATOM      7  C   UNL     1       2.341   3.766  19.182  0.00  0.00    +0.000 A 
ATOM      8  C   UNL     1       3.094   4.703  19.969  0.00  0.00    +0.000 A 
ATOM      9  F   UNL     1       2.666   4.949  21.224  0.00  0.00    +0.000 F 
ATOM     10  C   UNL     1       4.187   5.321  19.504  0.00  0.00    +0.000 A 
ATOM     11  C   UNL     1       4.663   5.064  18.154  0.00  0.00    +0.000 A 
ATOM     12  C   UNL     1       5.761   5.590  17.565  0.00  0.00    +0.000 A 
ATOM     13  N   UNL     1       6.079   5.222  16.234  0.00  0.00    +0.000 N 
ATOM     14  N   UNL     1       7.151   5.622  15.478  0.00  0.00    +0.000 NA
ENDROOT
BRANCH   1  16
ATOM     15  O   UNL     1       8.929   5.929  13.278  0.00  0.00    +0.000 OA
ATOM     16  C   UNL     1       7.922   5.239  13.192  0.00  0.00    +0.000 C 
BRANCH  16  17
ATOM     17  O   UNL     1       7.568   4.577  12.057  0.00  0.00    +0.000 OA
ATOM     18  H   UNL     1       6.823   5.084  11.658  0.00  0.00    +0.000 HD
ENDBRANCH  16  17
ENDBRANCH   1  16
BRANCH  12  19
ATOM     19  O   UNL     1       6.614   6.492  18.191  0.00  0.00    +0.000 OA
ATOM     20  H   UNL     1       7.536   6.208  18.104  0.00  0.00    +0.000 HD
ENDBRANCH  12  19
TORSDOF 3
ENDMDL
MODEL 6
REMARK VINA RESULT:      -6.8      3.782      6.138
REMARK  Name = 
REMARK  3 active torsions:
REMARK  status: ('A' for Active; 'I' for Inactive)
REMARK    1  A    between atoms: C_2  and  O_3
REMARK    2  A    between atoms: C_2  and  C_4
REMARK    3  A    between atoms: C_15  and  O_16
REMARK                            x       y       z     vdW  Elec       q    Type
REMARK                         _______ _______ _______ _____ _____    ______ ____
ROOT
ATOM      1  C   UNL     1       2.140   3.495  19.103  0.00  0.00    +0.000 A 
ATOM      2  C   UNL     1       3.370   3.201  19.715  0.00  0.00    +0.000 A 
ATOM      3  C   UNL     1       4.252   4.139  19.238  0.00  0.00    +0.000 A 
ATOM      4  N   UNL     1       5.582   4.304  19.471  0.00  0.00    +0.000 NA
ATOM      5  C   UNL     1       6.146   5.324  18.892  0.00  0.00    +0.000 A 
ATOM      6  C   UNL     1       7.607   5.527  19.100  0.00  0.00    +0.000 A 
ATOM      7  C   UNL     1       8.241   6.567  18.541  0.00  0.00    +0.000 A 
ATOM      8  C   UNL     1       7.550   7.529  17.729  0.00  0.00    +0.000 A 
ATOM      9  F   UNL     1       8.271   8.549  17.219  0.00  0.00    +0.000 F 
ATOM     10  C   UNL     1       6.240   7.441  17.466  0.00  0.00    +0.000 A 
ATOM     11  C   UNL     1       5.450   6.345  18.005  0.00  0.00    +0.000 A 
ATOM     12  C   UNL     1       4.133   6.114  17.800  0.00  0.00    +0.000 A 
ATOM     13  N   UNL     1       3.523   4.989  18.405  0.00  0.00    +0.000 N 
ATOM     14  N   UNL     1       2.220   4.572  18.300  0.00  0.00    +0.000 NA
ENDROOT
BRANCH   1  16
ATOM     15  O   UNL     1       0.359   2.092  18.372  0.00  0.00    +0.000 OA
ATOM     16  C   UNL     1       0.875   2.769  19.251  0.00  0.00    +0.000 C 
BRANCH  16  17
ATOM     17  O   UNL     1       0.323   2.933  20.484  0.00  0.00    +0.000 OA
ATOM     18  H   UNL     1       1.014   2.671  21.136  0.00  0.00    +0.000 HD
ENDBRANCH  16  17
ENDBRANCH   1  16
BRANCH  12  19
ATOM     19  O   UNL     1       3.320   6.931  17.021  0.00  0.00    +0.000 OA
ATOM     20  H   UNL     1       2.826   6.404  16.375  0.00  0.00    +0.000 HD
ENDBRANCH  12  19
TORSDOF 3
ENDMDL
MODEL 7
REMARK VINA RESULT:      -6.8      2.004      2.390
REMARK  Name = 
REMARK  3 active torsions:
REMARK  status: ('A' for Active; 'I' for Inactive)
REMARK    1  A    between atoms: C_2  and  O_3
REMARK    2  A    between atoms: C_2  and  C_4
REMARK    3  A    between atoms: C_15  and  O_16
REMARK                            x       y       z     vdW  Elec       q    Type
REMARK                         _______ _______ _______ _____ _____    ______ ____
ROOT
ATOM      1  C   UNL     1       6.959   4.876  14.403  0.00  0.00    +0.000 A 
ATOM      2  C   UNL     1       5.606   4.524  14.261  0.00  0.00    +0.000 A 
ATOM      3  C   UNL     1       5.168   4.227  15.527  0.00  0.00    +0.000 A 
ATOM      4  N   UNL     1       3.955   3.797  15.967  0.00  0.00    +0.000 NA
ATOM      5  C   UNL     1       3.833   3.633  17.252  0.00  0.00    +0.000 A 
ATOM      6  C   UNL     1       2.527   3.139  17.774  0.00  0.00    +0.000 A 
ATOM      7  C   UNL     1       2.337   2.964  19.088  0.00  0.00    +0.000 A 
ATOM      8  C   UNL     1       3.367   3.246  20.049  0.00  0.00    +0.000 A 
ATOM      9  F   UNL     1       3.078   3.050  21.351  0.00  0.00    +0.000 F 
ATOM     10  C   UNL     1       4.582   3.685  19.693  0.00  0.00    +0.000 A 
ATOM     11  C   UNL     1       4.910   3.897  18.293  0.00  0.00    +0.000 A 
ATOM     12  C   UNL     1       6.097   4.306  17.789  0.00  0.00    +0.000 A 
ATOM     13  N   UNL     1       6.242   4.457  16.388  0.00  0.00    +0.000 N 
ATOM     14  N   UNL     1       7.360   4.833  15.688  0.00  0.00    +0.000 NA
ENDROOT
BRANCH   1  16
ATOM     15  O   UNL     1       8.881   5.961  13.506  0.00  0.00    +0.000 OA
ATOM     16  C   UNL     1       7.899   5.249  13.342  0.00  0.00    +0.000 C 
BRANCH  16  17
ATOM     17  O   UNL     1       7.558   4.720  12.135  0.00  0.00    +0.000 OA
ATOM     18  H   UNL     1       8.315   4.156  11.853  0.00  0.00    +0.000 HD
ENDBRANCH  16  17
ENDBRANCH   1  16
BRANCH  12  19
ATOM     19  O   UNL     1       7.208   4.599  18.574  0.00  0.00    +0.000 OA
ATOM     20  H   UNL     1       7.493   3.816  19.067  0.00  0.00    +0.000 HD
ENDBRANCH  12  19
TORSDOF 3
ENDMDL
MODEL 8
REMARK VINA RESULT:      -6.7      3.009      3.756
REMARK  Name = 
REMARK  3 active torsions:
REMARK  status: ('A' for Active; 'I' for Inactive)
REMARK    1  A    between atoms: C_2  and  O_3
REMARK    2  A    between atoms: C_2  and  C_4
REMARK    3  A    between atoms: C_15  and  O_16
REMARK                            x       y       z     vdW  Elec       q    Type
REMARK                         _______ _______ _______ _____ _____    ______ ____
ROOT
ATOM      1  C   UNL     1       5.404   5.310  16.912  0.00  0.00    +0.000 A 
ATOM      2  C   UNL     1       4.947   6.524  16.372  0.00  0.00    +0.000 A 
ATOM      3  C   UNL     1       4.011   6.993  17.260  0.00  0.00    +0.000 A 
ATOM      4  N   UNL     1       3.230   8.106  17.220  0.00  0.00    +0.000 NA
ATOM      5  C   UNL     1       2.453   8.302  18.244  0.00  0.00    +0.000 A 
ATOM      6  C   UNL     1       1.562   9.497  18.229  0.00  0.00    +0.000 A 
ATOM      7  C   UNL     1       0.749   9.759  19.261  0.00  0.00    +0.000 A 
ATOM      8  C   UNL     1       0.702   8.915  20.423  0.00  0.00    +0.000 A 
ATOM      9  F   UNL     1      -0.139   9.268  21.416  0.00  0.00    +0.000 F 
ATOM     10  C   UNL     1       1.450   7.811  20.541  0.00  0.00    +0.000 A 
ATOM     11  C   UNL     1       2.358   7.416  19.477  0.00  0.00    +0.000 A 
ATOM     12  C   UNL     1       3.147   6.317  19.447  0.00  0.00    +0.000 A 
ATOM     13  N   UNL     1       3.973   6.086  18.320  0.00  0.00    +0.000 N 
ATOM     14  N   UNL     1       4.817   5.028  18.090  0.00  0.00    +0.000 NA
ENDROOT
BRANCH   1  16
ATOM     15  O   UNL     1       7.567   4.668  16.148  0.00  0.00    +0.000 OA
ATOM     16  C   UNL     1       6.389   4.392  16.332  0.00  0.00    +0.000 C 
BRANCH  16  17
ATOM     17  O   UNL     1       5.849   3.186  16.009  0.00  0.00    +0.000 OA
ATOM     18  H   UNL     1       6.121   2.559  16.719  0.00  0.00    +0.000 HD
ENDBRANCH  16  17
ENDBRANCH   1  16
BRANCH  12  19
ATOM     19  O   UNL     1       3.207   5.383  20.476  0.00  0.00    +0.000 OA
ATOM     20  H   UNL     1       2.694   4.593  20.248  0.00  0.00    +0.000 HD
ENDBRANCH  12  19
TORSDOF 3
ENDMDL
MODEL 9
REMARK VINA RESULT:      -6.7      3.032      3.636
REMARK  Name = 
REMARK  3 active torsions:
REMARK  status: ('A' for Active; 'I' for Inactive)
REMARK    1  A    between atoms: C_2  and  O_3
REMARK    2  A    between atoms: C_2  and  C_4
REMARK    3  A    between atoms: C_15  and  O_16
REMARK                            x       y       z     vdW  Elec       q    Type
REMARK                         _______ _______ _______ _____ _____    ______ ____
ROOT
ATOM      1  C   UNL     1       6.842   6.642  18.136  0.00  0.00    +0.000 A 
ATOM      2  C   UNL     1       7.004   5.308  18.548  0.00  0.00    +0.000 A 
ATOM      3  C   UNL     1       5.738   4.779  18.591  0.00  0.00    +0.000 A 
ATOM      4  N   UNL     1       5.305   3.542  18.955  0.00  0.00    +0.000 NA
ATOM      5  C   UNL     1       4.027   3.326  18.854  0.00  0.00    +0.000 A 
ATOM      6  C   UNL     1       3.508   1.991  19.267  0.00  0.00    +0.000 A 
ATOM      7  C   UNL     1       2.203   1.704  19.173  0.00  0.00    +0.000 A 
ATOM      8  C   UNL     1       1.251   2.656  18.669  0.00  0.00    +0.000 A 
ATOM      9  F   UNL     1      -0.040   2.271  18.601  0.00  0.00    +0.000 F 
ATOM     10  C   UNL     1       1.602   3.888  18.279  0.00  0.00    +0.000 A 
ATOM     11  C   UNL     1       2.989   4.318  18.351  0.00  0.00    +0.000 A 
ATOM     12  C   UNL     1       3.481   5.535  18.021  0.00  0.00    +0.000 A 
ATOM     13  N   UNL     1       4.869   5.783  18.157  0.00  0.00    +0.000 N 
ATOM     14  N   UNL     1       5.551   6.946  17.903  0.00  0.00    +0.000 NA
ENDROOT
BRANCH   1  16
ATOM     15  O   UNL     1       7.999   8.372  16.978  0.00  0.00    +0.000 OA
ATOM     16  C   UNL     1       7.888   7.655  17.964  0.00  0.00    +0.000 C 
BRANCH  16  17
ATOM     17  O   UNL     1       8.738   7.710  19.024  0.00  0.00    +0.000 OA
ATOM     18  H   UNL     1       9.063   8.639  19.073  0.00  0.00    +0.000 HD
ENDBRANCH  16  17
ENDBRANCH   1  16
BRANCH  12  19
ATOM     19  O   UNL     1       2.697   6.578  17.541  0.00  0.00    +0.000 OA
ATOM     20  H   UNL     1       1.805   6.535  17.915  0.00  0.00    +0.000 HD
ENDBRANCH  12  19
TORSDOF 3
ENDMDL
