MODEL 1
REMARK VINA RESULT:      -7.5      0.000      0.000
REMARK  Name = 
REMARK  8 active torsions:
REMARK  status: ('A' for Active; 'I' for Inactive)
REMARK    1  A    between atoms: C_1  and  C_2
REMARK    2  A    between atoms: C_2  and  N_3
REMARK    3  A    between atoms: C_4  and  C_5
REMARK    4  A    between atoms: C_6  and  C_7
REMARK    5  A    between atoms: C_10  and  O_11
REMARK    6  A    between atoms: O_11  and  C_12
REMARK    7  A    between atoms: C_13  and  O_14
REMARK    8  A    between atoms: O_14  and  C_15
REMARK                            x       y       z     vdW  Elec       q    Type
REMARK                         _______ _______ _______ _____ _____    ______ ____
ROOT
ATOM      1  N   UNL     1       0.247   9.962  19.831  0.00  0.00    +0.000 N 
ATOM      2  C   UNL     1       1.026   8.910  20.231  0.00  0.00    +0.000 A 
ATOM      3  C   UNL     1       1.083   8.529  21.569  0.00  0.00    +0.000 A 
ATOM      4  C   UNL     1       0.371   9.234  22.521  0.00  0.00    +0.000 A 
ATOM      5  C   UNL     1      -0.419  10.307  22.126  0.00  0.00    +0.000 A 
ATOM      6  C   UNL     1      -1.115  11.050  23.094  0.00  0.00    +0.000 A 
ATOM      7  C   UNL     1      -1.918  12.125  22.722  0.00  0.00    +0.000 A 
ATOM      8  C   UNL     1      -2.064  12.444  21.381  0.00  0.00    +0.000 A 
ATOM      9  C   UNL     1      -1.380  11.711  20.404  0.00  0.00    +0.000 A 
ATOM     10  C   UNL     1      -0.515  10.652  20.751  0.00  0.00    +0.000 A 
ENDROOT
BRANCH   1  12
ATOM     11  C   UNL     1      -0.901   9.844  17.646  0.00  0.00    +0.000 C 
ATOM     12  C   UNL     1       0.290  10.400  18.404  0.00  0.00    +0.000 C 
ENDBRANCH   1  12
BRANCH   2  13
ATOM     13  C   UNL     1       1.915   8.222  19.286  0.00  0.00    +0.000 C 
ATOM     14  C   UNL     1       2.378   6.970  19.451  0.00  0.00    +0.000 C 
BRANCH  14  15
ATOM     15  C   UNL     1       3.239   6.313  18.448  0.00  0.00    +0.000 A 
ATOM     16  C   UNL     1       4.015   7.048  17.543  0.00  0.00    +0.000 A 
ATOM     17  C   UNL     1       4.781   6.405  16.568  0.00  0.00    +0.000 A 
ATOM     18  C   UNL     1       4.795   5.012  16.484  0.00  0.00    +0.000 A 
ATOM     19  C   UNL     1       4.058   4.256  17.418  0.00  0.00    +0.000 A 
ATOM     20  C   UNL     1       3.299   4.912  18.401  0.00  0.00    +0.000 A 
BRANCH  18  21
ATOM     21  O   UNL     1       5.487   4.305  15.533  0.00  0.00    +0.000 OA
ATOM     22  C   UNL     1       6.776   4.780  15.164  0.00  0.00    +0.000 C 
ENDBRANCH  18  21
BRANCH  19  23
ATOM     23  O   UNL     1       4.128   2.894  17.275  0.00  0.00    +0.000 OA
ATOM     24  C   UNL     1       3.534   2.080  18.276  0.00  0.00    +0.000 C 
ENDBRANCH  19  23
ENDBRANCH  14  15
ENDBRANCH   2  13
TORSDOF 5
ENDMDL
MODEL 2
REMARK VINA RESULT:      -7.4      0.915      1.922
REMARK  Name = 
REMARK  8 active torsions:
REMARK  status: ('A' for Active; 'I' for Inactive)
REMARK    1  A    between atoms: C_1  and  C_2
REMARK    2  A    between atoms: C_2  and  N_3
REMARK    3  A    between atoms: C_4  and  C_5
REMARK    4  A    between atoms: C_6  and  C_7
REMARK    5  A    between atoms: C_10  and  O_11
REMARK    6  A    between atoms: O_11  and  C_12
REMARK    7  A    between atoms: C_13  and  O_14
REMARK    8  A    between atoms: O_14  and  C_15
REMARK                            x       y       z     vdW  Elec       q    Type
REMARK                         _______ _______ _______ _____ _____    ______ ____
ROOT
ATOM      1  N   UNL     1       0.304   9.911  19.860  0.00  0.00    +0.000 N 
ATOM      2  C   UNL     1       1.075   8.859  20.272  0.00  0.00    +0.000 A 
ATOM      3  C   UNL     1       1.109   8.479  21.612  0.00  0.00    +0.000 A 
ATOM      4  C   UNL     1       0.383   9.186  22.552  0.00  0.00    +0.000 A 
ATOM      5  C   UNL     1      -0.399  10.260  22.143  0.00  0.00    +0.000 A 
ATOM      6  C   UNL     1      -1.109  11.005  23.098  0.00  0.00    +0.000 A 
ATOM      7  C   UNL     1      -1.904  12.081  22.713  0.00  0.00    +0.000 A 
ATOM      8  C   UNL     1      -2.028  12.399  21.369  0.00  0.00    +0.000 A 
ATOM      9  C   UNL     1      -1.330  11.664  20.404  0.00  0.00    +0.000 A 
ATOM     10  C   UNL     1      -0.472  10.604  20.766  0.00  0.00    +0.000 A 
ENDROOT
BRANCH   1  12
ATOM     11  C   UNL     1      -0.851   9.862  17.675  0.00  0.00    +0.000 C 
ATOM     12  C   UNL     1       0.371  10.349  18.433  0.00  0.00    +0.000 C 
ENDBRANCH   1  12
BRANCH   2  13
ATOM     13  C   UNL     1       1.977   8.169  19.342  0.00  0.00    +0.000 C 
ATOM     14  C   UNL     1       2.310   6.868  19.429  0.00  0.00    +0.000 C 
BRANCH  14  15
ATOM     15  C   UNL     1       3.193   6.216  18.443  0.00  0.00    +0.000 A 
ATOM     16  C   UNL     1       2.972   4.905  18.003  0.00  0.00    +0.000 A 
ATOM     17  C   UNL     1       3.853   4.291  17.110  0.00  0.00    +0.000 A 
ATOM     18  C   UNL     1       4.969   4.977  16.631  0.00  0.00    +0.000 A 
ATOM     19  C   UNL     1       5.180   6.313  17.027  0.00  0.00    +0.000 A 
ATOM     20  C   UNL     1       4.283   6.926  17.917  0.00  0.00    +0.000 A 
BRANCH  18  21
ATOM     21  O   UNL     1       5.903   4.433  15.785  0.00  0.00    +0.000 OA
ATOM     22  C   UNL     1       5.573   4.347  14.404  0.00  0.00    +0.000 C 
ENDBRANCH  18  21
BRANCH  19  23
ATOM     23  O   UNL     1       6.294   6.923  16.509  0.00  0.00    +0.000 OA
ATOM     24  C   UNL     1       7.355   7.252  17.394  0.00  0.00    +0.000 C 
ENDBRANCH  19  23
ENDBRANCH  14  15
ENDBRANCH   2  13
TORSDOF 5
ENDMDL
MODEL 3
REMARK VINA RESULT:      -7.3      1.056      1.192
REMARK  Name = 
REMARK  8 active torsions:
REMARK  status: ('A' for Active; 'I' for Inactive)
REMARK    1  A    between atoms: C_1  and  C_2
REMARK    2  A    between atoms: C_2  and  N_3
REMARK    3  A    between atoms: C_4  and  C_5
REMARK    4  A    between atoms: C_6  and  C_7
REMARK    5  A    between atoms: C_10  and  O_11
REMARK    6  A    between atoms: O_11  and  C_12
REMARK    7  A    between atoms: C_13  and  O_14
REMARK    8  A    between atoms: O_14  and  C_15
REMARK                            x       y       z     vdW  Elec       q    Type
REMARK                         _______ _______ _______ _____ _____    ______ ____
ROOT
ATOM      1  N   UNL     1       0.162  10.091  20.149  0.00  0.00    +0.000 N 
ATOM      2  C   UNL     1       0.897   9.106  20.751  0.00  0.00    +0.000 A 
ATOM      3  C   UNL     1       0.787   8.865  22.118  0.00  0.00    +0.000 A 
ATOM      4  C   UNL     1      -0.051   9.644  22.894  0.00  0.00    +0.000 A 
ATOM      5  C   UNL     1      -0.798  10.650  22.293  0.00  0.00    +0.000 A 
ATOM      6  C   UNL     1      -1.622  11.468  23.082  0.00  0.00    +0.000 A 
ATOM      7  C   UNL     1      -2.384  12.478  22.502  0.00  0.00    +0.000 A 
ATOM      8  C   UNL     1      -2.361  12.656  21.128  0.00  0.00    +0.000 A 
ATOM      9  C   UNL     1      -1.548  11.846  20.326  0.00  0.00    +0.000 A 
ATOM     10  C   UNL     1      -0.720  10.851  20.888  0.00  0.00    +0.000 A 
ENDROOT
BRANCH   1  12
ATOM     11  C   UNL     1       1.421  11.478  18.537  0.00  0.00    +0.000 C 
ATOM     12  C   UNL     1       0.383  10.384  18.701  0.00  0.00    +0.000 C 
ENDBRANCH   1  12
BRANCH   2  13
ATOM     13  C   UNL     1       1.909   8.350  20.002  0.00  0.00    +0.000 C 
ATOM     14  C   UNL     1       1.975   7.007  19.956  0.00  0.00    +0.000 C 
BRANCH  14  15
ATOM     15  C   UNL     1       2.992   6.298  19.155  0.00  0.00    +0.000 A 
ATOM     16  C   UNL     1       3.332   6.707  17.859  0.00  0.00    +0.000 A 
ATOM     17  C   UNL     1       4.258   5.988  17.101  0.00  0.00    +0.000 A 
ATOM     18  C   UNL     1       4.872   4.850  17.625  0.00  0.00    +0.000 A 
ATOM     19  C   UNL     1       4.578   4.453  18.945  0.00  0.00    +0.000 A 
ATOM     20  C   UNL     1       3.652   5.188  19.703  0.00  0.00    +0.000 A 
BRANCH  18  21
ATOM     21  O   UNL     1       5.761   4.066  16.933  0.00  0.00    +0.000 OA
ATOM     22  C   UNL     1       7.009   4.645  16.569  0.00  0.00    +0.000 C 
ENDBRANCH  18  21
BRANCH  19  23
ATOM     23  O   UNL     1       5.226   3.330  19.392  0.00  0.00    +0.000 OA
ATOM     24  C   UNL     1       4.444   2.254  19.891  0.00  0.00    +0.000 C 
ENDBRANCH  19  23
ENDBRANCH  14  15
ENDBRANCH   2  13
TORSDOF 5
ENDMDL
MODEL 4
REMARK VINA RESULT:      -7.1      1.844      2.782
REMARK  Name = 
REMARK  8 active torsions:
REMARK  status: ('A' for Active; 'I' for Inactive)
REMARK    1  A    between atoms: C_1  and  C_2
REMARK    2  A    between atoms: C_2  and  N_3
REMARK    3  A    between atoms: C_4  and  C_5
REMARK    4  A    between atoms: C_6  and  C_7
REMARK    5  A    between atoms: C_10  and  O_11
REMARK    6  A    between atoms: O_11  and  C_12
REMARK    7  A    between atoms: C_13  and  O_14
REMARK    8  A    between atoms: O_14  and  C_15
REMARK                            x       y       z     vdW  Elec       q    Type
REMARK                         _______ _______ _______ _____ _____    ______ ____
ROOT
ATOM      1  N   UNL     1       0.488  10.278  20.472  0.00  0.00    +0.000 N 
ATOM      2  C   UNL     1       0.606   9.164  21.258  0.00  0.00    +0.000 A 
ATOM      3  C   UNL     1       0.105   9.149  22.557  0.00  0.00    +0.000 A 
ATOM      4  C   UNL     1      -0.495  10.278  23.082  0.00  0.00    +0.000 A 
ATOM      5  C   UNL     1      -0.615  11.416  22.293  0.00  0.00    +0.000 A 
ATOM      6  C   UNL     1      -1.190  12.578  22.834  0.00  0.00    +0.000 A 
ATOM      7  C   UNL     1      -1.326  13.728  22.062  0.00  0.00    +0.000 A 
ATOM      8  C   UNL     1      -0.927  13.719  20.735  0.00  0.00    +0.000 A 
ATOM      9  C   UNL     1      -0.356  12.567  20.179  0.00  0.00    +0.000 A 
ATOM     10  C   UNL     1      -0.151  11.403  20.950  0.00  0.00    +0.000 A 
ENDROOT
BRANCH   1  12
ATOM     11  C   UNL     1       0.133   9.829  18.068  0.00  0.00    +0.000 C 
ATOM     12  C   UNL     1       1.125  10.288  19.121  0.00  0.00    +0.000 C 
ENDBRANCH   1  12
BRANCH   2  13
ATOM     13  C   UNL     1       1.363   7.991  20.803  0.00  0.00    +0.000 C 
ATOM     14  C   UNL     1       0.998   6.716  21.029  0.00  0.00    +0.000 C 
BRANCH  14  15
ATOM     15  C   UNL     1       1.778   5.574  20.514  0.00  0.00    +0.000 A 
ATOM     16  C   UNL     1       1.406   4.248  20.769  0.00  0.00    +0.000 A 
ATOM     17  C   UNL     1       2.190   3.184  20.317  0.00  0.00    +0.000 A 
ATOM     18  C   UNL     1       3.359   3.423  19.594  0.00  0.00    +0.000 A 
ATOM     19  C   UNL     1       3.722   4.749  19.288  0.00  0.00    +0.000 A 
ATOM     20  C   UNL     1       2.922   5.812  19.738  0.00  0.00    +0.000 A 
BRANCH  18  21
ATOM     21  O   UNL     1       4.204   2.437  19.150  0.00  0.00    +0.000 OA
ATOM     22  C   UNL     1       3.669   1.451  18.276  0.00  0.00    +0.000 C 
ENDBRANCH  18  21
BRANCH  19  23
ATOM     23  O   UNL     1       4.879   4.903  18.568  0.00  0.00    +0.000 OA
ATOM     24  C   UNL     1       6.042   5.355  19.248  0.00  0.00    +0.000 C 
ENDBRANCH  19  23
ENDBRANCH  14  15
ENDBRANCH   2  13
TORSDOF 5
ENDMDL
MODEL 5
REMARK VINA RESULT:      -6.9      3.973      9.014
REMARK  Name = 
REMARK  8 active torsions:
REMARK  status: ('A' for Active; 'I' for Inactive)
REMARK    1  A    between atoms: C_1  and  C_2
REMARK    2  A    between atoms: C_2  and  N_3
REMARK    3  A    between atoms: C_4  and  C_5
REMARK    4  A    between atoms: C_6  and  C_7
REMARK    5  A    between atoms: C_10  and  O_11
REMARK    6  A    between atoms: O_11  and  C_12
REMARK    7  A    between atoms: C_13  and  O_14
REMARK    8  A    between atoms: O_14  and  C_15
REMARK                            x       y       z     vdW  Elec       q    Type
REMARK                         _______ _______ _______ _____ _____    ______ ____
ROOT
ATOM      1  N   UNL     1       2.596   5.835  19.416  0.00  0.00    +0.000 N 
ATOM      2  C   UNL     1       2.413   7.175  19.210  0.00  0.00    +0.000 A 
ATOM      3  C   UNL     1       2.965   7.811  18.101  0.00  0.00    +0.000 A 
ATOM      4  C   UNL     1       3.737   7.096  17.205  0.00  0.00    +0.000 A 
ATOM      5  C   UNL     1       3.933   5.735  17.408  0.00  0.00    +0.000 A 
ATOM      6  C   UNL     1       4.747   5.012  16.521  0.00  0.00    +0.000 A 
ATOM      7  C   UNL     1       4.953   3.646  16.700  0.00  0.00    +0.000 A 
ATOM      8  C   UNL     1       4.320   2.984  17.741  0.00  0.00    +0.000 A 
ATOM      9  C   UNL     1       3.503   3.691  18.631  0.00  0.00    +0.000 A 
ATOM     10  C   UNL     1       3.318   5.084  18.512  0.00  0.00    +0.000 A 
ENDROOT
BRANCH   1  12
ATOM     11  C   UNL     1       0.910   4.288  20.348  0.00  0.00    +0.000 C 
ATOM     12  C   UNL     1       2.071   5.211  20.667  0.00  0.00    +0.000 C 
ENDBRANCH   1  12
BRANCH   2  13
ATOM     13  C   UNL     1       1.728   8.009  20.207  0.00  0.00    +0.000 C 
ATOM     14  C   UNL     1       1.139   9.188  19.936  0.00  0.00    +0.000 C 
BRANCH  14  15
ATOM     15  C   UNL     1       0.431   9.967  20.971  0.00  0.00    +0.000 A 
ATOM     16  C   UNL     1      -0.078   9.369  22.130  0.00  0.00    +0.000 A 
ATOM     17  C   UNL     1      -0.791  10.117  23.069  0.00  0.00    +0.000 A 
ATOM     18  C   UNL     1      -1.003  11.482  22.873  0.00  0.00    +0.000 A 
ATOM     19  C   UNL     1      -0.456  12.110  21.736  0.00  0.00    +0.000 A 
ATOM     20  C   UNL     1       0.268  11.350  20.802  0.00  0.00    +0.000 A 
BRANCH  18  21
ATOM     21  O   UNL     1      -1.726  12.279  23.725  0.00  0.00    +0.000 OA
ATOM     22  C   UNL     1      -3.145  12.201  23.660  0.00  0.00    +0.000 C 
ENDBRANCH  18  21
BRANCH  19  23
ATOM     23  O   UNL     1      -0.701  13.454  21.617  0.00  0.00    +0.000 OA
ATOM     24  C   UNL     1      -1.026  13.969  20.334  0.00  0.00    +0.000 C 
ENDBRANCH  19  23
ENDBRANCH  14  15
ENDBRANCH   2  13
TORSDOF 5
ENDMDL
MODEL 6
REMARK VINA RESULT:      -6.8      1.126      2.409
REMARK  Name = 
REMARK  8 active torsions:
REMARK  status: ('A' for Active; 'I' for Inactive)
REMARK    1  A    between atoms: C_1  and  C_2
REMARK    2  A    between atoms: C_2  and  N_3
REMARK    3  A    between atoms: C_4  and  C_5
REMARK    4  A    between atoms: C_6  and  C_7
REMARK    5  A    between atoms: C_10  and  O_11
REMARK    6  A    between atoms: O_11  and  C_12
REMARK    7  A    between atoms: C_13  and  O_14
REMARK    8  A    between atoms: O_14  and  C_15
REMARK                            x       y       z     vdW  Elec       q    Type
REMARK                         _______ _______ _______ _____ _____    ______ ____
ROOT
ATOM      1  N   UNL     1       1.343   8.489  20.236  0.00  0.00    +0.000 N 
ATOM      2  C   UNL     1       1.507   8.662  18.888  0.00  0.00    +0.000 A 
ATOM      3  C   UNL     1       0.904   9.728  18.225  0.00  0.00    +0.000 A 
ATOM      4  C   UNL     1       0.102  10.613  18.921  0.00  0.00    +0.000 A 
ATOM      5  C   UNL     1      -0.074  10.442  20.289  0.00  0.00    +0.000 A 
ATOM      6  C   UNL     1      -0.917  11.317  20.994  0.00  0.00    +0.000 A 
ATOM      7  C   UNL     1      -1.105  11.170  22.366  0.00  0.00    +0.000 A 
ATOM      8  C   UNL     1      -0.425  10.176  23.052  0.00  0.00    +0.000 A 
ATOM      9  C   UNL     1       0.422   9.299  22.365  0.00  0.00    +0.000 A 
ATOM     10  C   UNL     1       0.590   9.384  20.966  0.00  0.00    +0.000 A 
ENDROOT
BRANCH   1  12
ATOM     11  C   UNL     1       1.062   6.062  20.607  0.00  0.00    +0.000 C 
ATOM     12  C   UNL     1       1.924   7.278  20.891  0.00  0.00    +0.000 C 
ENDBRANCH   1  12
BRANCH   2  13
ATOM     13  C   UNL     1       2.224   7.670  18.077  0.00  0.00    +0.000 C 
ATOM     14  C   UNL     1       3.563   7.609  17.959  0.00  0.00    +0.000 C 
BRANCH  14  15
ATOM     15  C   UNL     1       4.234   6.566  17.160  0.00  0.00    +0.000 A 
ATOM     16  C   UNL     1       5.002   6.877  16.031  0.00  0.00    +0.000 A 
ATOM     17  C   UNL     1       5.583   5.869  15.259  0.00  0.00    +0.000 A 
ATOM     18  C   UNL     1       5.415   4.527  15.603  0.00  0.00    +0.000 A 
ATOM     19  C   UNL     1       4.685   4.199  16.763  0.00  0.00    +0.000 A 
ATOM     20  C   UNL     1       4.113   5.220  17.539  0.00  0.00    +0.000 A 
BRANCH  18  21
ATOM     21  O   UNL     1       5.917   3.477  14.877  0.00  0.00    +0.000 OA
ATOM     22  C   UNL     1       6.215   3.704  13.504  0.00  0.00    +0.000 C 
ENDBRANCH  18  21
BRANCH  19  23
ATOM     23  O   UNL     1       4.570   2.860  17.040  0.00  0.00    +0.000 OA
ATOM     24  C   UNL     1       3.458   2.424  17.808  0.00  0.00    +0.000 C 
ENDBRANCH  19  23
ENDBRANCH  14  15
ENDBRANCH   2  13
TORSDOF 5
ENDMDL
MODEL 7
REMARK VINA RESULT:      -6.8      1.727      2.461
REMARK  Name = 
REMARK  8 active torsions:
REMARK  status: ('A' for Active; 'I' for Inactive)
REMARK    1  A    between atoms: C_1  and  C_2
REMARK    2  A    between atoms: C_2  and  N_3
REMARK    3  A    between atoms: C_4  and  C_5
REMARK    4  A    between atoms: C_6  and  C_7
REMARK    5  A    between atoms: C_10  and  O_11
REMARK    6  A    between atoms: O_11  and  C_12
REMARK    7  A    between atoms: C_13  and  O_14
REMARK    8  A    between atoms: O_14  and  C_15
REMARK                            x       y       z     vdW  Elec       q    Type
REMARK                         _______ _______ _______ _____ _____    ______ ____
ROOT
ATOM      1  N   UNL     1      -0.525  10.579  20.458  0.00  0.00    +0.000 N 
ATOM      2  C   UNL     1      -0.243   9.446  21.170  0.00  0.00    +0.000 A 
ATOM      3  C   UNL     1      -0.416   9.407  22.551  0.00  0.00    +0.000 A 
ATOM      4  C   UNL     1      -0.851  10.531  23.227  0.00  0.00    +0.000 A 
ATOM      5  C   UNL     1      -1.135  11.689  22.513  0.00  0.00    +0.000 A 
ATOM      6  C   UNL     1      -1.541  12.845  23.199  0.00  0.00    +0.000 A 
ATOM      7  C   UNL     1      -1.837  14.016  22.505  0.00  0.00    +0.000 A 
ATOM      8  C   UNL     1      -1.769  14.031  21.121  0.00  0.00    +0.000 A 
ATOM      9  C   UNL     1      -1.371  12.886  20.422  0.00  0.00    +0.000 A 
ATOM     10  C   UNL     1      -1.009  11.702  21.098  0.00  0.00    +0.000 A 
ENDROOT
BRANCH   1  12
ATOM     11  C   UNL     1      -1.472  10.244  18.200  0.00  0.00    +0.000 C 
ATOM     12  C   UNL     1      -0.232  10.612  18.993  0.00  0.00    +0.000 C 
ENDBRANCH   1  12
BRANCH   2  13
ATOM     13  C   UNL     1       0.360   8.274  20.523  0.00  0.00    +0.000 C 
ATOM     14  C   UNL     1       1.635   7.880  20.698  0.00  0.00    +0.000 C 
BRANCH  14  15
ATOM     15  C   UNL     1       2.178   6.670  20.051  0.00  0.00    +0.000 A 
ATOM     16  C   UNL     1       2.705   6.696  18.753  0.00  0.00    +0.000 A 
ATOM     17  C   UNL     1       3.164   5.528  18.142  0.00  0.00    +0.000 A 
ATOM     18  C   UNL     1       3.115   4.308  18.818  0.00  0.00    +0.000 A 
ATOM     19  C   UNL     1       2.632   4.272  20.142  0.00  0.00    +0.000 A 
ATOM     20  C   UNL     1       2.182   5.455  20.752  0.00  0.00    +0.000 A 
BRANCH  18  21
ATOM     21  O   UNL     1       3.507   3.110  18.276  0.00  0.00    +0.000 OA
ATOM     22  C   UNL     1       2.551   2.386  17.511  0.00  0.00    +0.000 C 
ENDBRANCH  18  21
BRANCH  19  23
ATOM     23  O   UNL     1       2.621   3.039  20.742  0.00  0.00    +0.000 OA
ATOM     24  C   UNL     1       1.541   2.720  21.608  0.00  0.00    +0.000 C 
ENDBRANCH  19  23
ENDBRANCH  14  15
ENDBRANCH   2  13
TORSDOF 5
ENDMDL
MODEL 8
REMARK VINA RESULT:      -6.8      3.909      8.625
REMARK  Name = 
REMARK  8 active torsions:
REMARK  status: ('A' for Active; 'I' for Inactive)
REMARK    1  A    between atoms: C_1  and  C_2
REMARK    2  A    between atoms: C_2  and  N_3
REMARK    3  A    between atoms: C_4  and  C_5
REMARK    4  A    between atoms: C_6  and  C_7
REMARK    5  A    between atoms: C_10  and  O_11
REMARK    6  A    between atoms: O_11  and  C_12
REMARK    7  A    between atoms: C_13  and  O_14
REMARK    8  A    between atoms: O_14  and  C_15
REMARK                            x       y       z     vdW  Elec       q    Type
REMARK                         _______ _______ _______ _____ _____    ______ ____
ROOT
ATOM      1  N   UNL     1       2.666   6.603  19.028  0.00  0.00    +0.000 N 
ATOM      2  C   UNL     1       1.964   6.822  20.182  0.00  0.00    +0.000 A 
ATOM      3  C   UNL     1       1.509   5.758  20.956  0.00  0.00    +0.000 A 
ATOM      4  C   UNL     1       1.736   4.457  20.549  0.00  0.00    +0.000 A 
ATOM      5  C   UNL     1       2.444   4.224  19.375  0.00  0.00    +0.000 A 
ATOM      6  C   UNL     1       2.646   2.905  18.938  0.00  0.00    +0.000 A 
ATOM      7  C   UNL     1       3.357   2.646  17.769  0.00  0.00    +0.000 A 
ATOM      8  C   UNL     1       3.905   3.696  17.049  0.00  0.00    +0.000 A 
ATOM      9  C   UNL     1       3.716   5.016  17.474  0.00  0.00    +0.000 A 
ATOM     10  C   UNL     1       2.953   5.316  18.622  0.00  0.00    +0.000 A 
ENDROOT
BRANCH   1  12
ATOM     11  C   UNL     1       1.813   8.420  17.587  0.00  0.00    +0.000 C 
ATOM     12  C   UNL     1       3.050   7.768  18.176  0.00  0.00    +0.000 C 
ENDBRANCH   1  12
BRANCH   2  13
ATOM     13  C   UNL     1       1.567   8.178  20.583  0.00  0.00    +0.000 C 
ATOM     14  C   UNL     1       0.403   8.484  21.184  0.00  0.00    +0.000 C 
BRANCH  14  15
ATOM     15  C   UNL     1       0.072   9.861  21.600  0.00  0.00    +0.000 A 
ATOM     16  C   UNL     1      -0.734  10.125  22.714  0.00  0.00    +0.000 A 
ATOM     17  C   UNL     1      -1.078  11.434  23.056  0.00  0.00    +0.000 A 
ATOM     18  C   UNL     1      -0.616  12.509  22.296  0.00  0.00    +0.000 A 
ATOM     19  C   UNL     1       0.236  12.264  21.200  0.00  0.00    +0.000 A 
ATOM     20  C   UNL     1       0.584  10.944  20.870  0.00  0.00    +0.000 A 
BRANCH  18  21
ATOM     21  O   UNL     1      -0.939  13.820  22.540  0.00  0.00    +0.000 OA
ATOM     22  C   UNL     1      -1.477  14.142  23.817  0.00  0.00    +0.000 C 
ENDBRANCH  18  21
BRANCH  19  23
ATOM     23  O   UNL     1       0.654  13.371  20.508  0.00  0.00    +0.000 OA
ATOM     24  C   UNL     1       0.194  13.547  19.176  0.00  0.00    +0.000 C 
ENDBRANCH  19  23
ENDBRANCH  14  15
ENDBRANCH   2  13
TORSDOF 5
ENDMDL
MODEL 9
REMARK VINA RESULT:      -6.8      1.333      2.656
REMARK  Name = 
REMARK  8 active torsions:
REMARK  status: ('A' for Active; 'I' for Inactive)
REMARK    1  A    between atoms: C_1  and  C_2
REMARK    2  A    between atoms: C_2  and  N_3
REMARK    3  A    between atoms: C_4  and  C_5
REMARK    4  A    between atoms: C_6  and  C_7
REMARK    5  A    between atoms: C_10  and  O_11
REMARK    6  A    between atoms: O_11  and  C_12
REMARK    7  A    between atoms: C_13  and  O_14
REMARK    8  A    between atoms: O_14  and  C_15
REMARK                            x       y       z     vdW  Elec       q    Type
REMARK                         _______ _______ _______ _____ _____    ______ ____
ROOT
ATOM      1  N   UNL     1      -0.361  10.529  20.399  0.00  0.00    +0.000 N 
ATOM      2  C   UNL     1      -0.037   9.386  21.078  0.00  0.00    +0.000 A 
ATOM      3  C   UNL     1      -0.227   9.293  22.455  0.00  0.00    +0.000 A 
ATOM      4  C   UNL     1      -0.721  10.374  23.161  0.00  0.00    +0.000 A 
ATOM      5  C   UNL     1      -1.049  11.541  22.480  0.00  0.00    +0.000 A 
ATOM      6  C   UNL     1      -1.516  12.654  23.197  0.00  0.00    +0.000 A 
ATOM      7  C   UNL     1      -1.856  13.832  22.538  0.00  0.00    +0.000 A 
ATOM      8  C   UNL     1      -1.770  13.897  21.156  0.00  0.00    +0.000 A 
ATOM      9  C   UNL     1      -1.311  12.794  20.426  0.00  0.00    +0.000 A 
ATOM     10  C   UNL     1      -0.904  11.606  21.068  0.00  0.00    +0.000 A 
ENDROOT
BRANCH   1  12
ATOM     11  C   UNL     1       1.358  11.151  18.737  0.00  0.00    +0.000 C 
ATOM     12  C   UNL     1      -0.050  10.623  18.941  0.00  0.00    +0.000 C 
ENDBRANCH   1  12
BRANCH   2  13
ATOM     13  C   UNL     1       0.628   8.264  20.403  0.00  0.00    +0.000 C 
ATOM     14  C   UNL     1       1.434   7.377  21.015  0.00  0.00    +0.000 C 
BRANCH  14  15
ATOM     15  C   UNL     1       2.046   6.245  20.293  0.00  0.00    +0.000 A 
ATOM     16  C   UNL     1       2.026   4.942  20.805  0.00  0.00    +0.000 A 
ATOM     17  C   UNL     1       2.658   3.896  20.130  0.00  0.00    +0.000 A 
ATOM     18  C   UNL     1       3.319   4.129  18.923  0.00  0.00    +0.000 A 
ATOM     19  C   UNL     1       3.308   5.425  18.369  0.00  0.00    +0.000 A 
ATOM     20  C   UNL     1       2.659   6.468  19.051  0.00  0.00    +0.000 A 
BRANCH  18  21
ATOM     21  O   UNL     1       3.998   3.168  18.218  0.00  0.00    +0.000 OA
ATOM     22  C   UNL     1       3.466   1.848  18.218  0.00  0.00    +0.000 C 
ENDBRANCH  18  21
BRANCH  19  23
ATOM     23  O   UNL     1       3.971   5.574  17.178  0.00  0.00    +0.000 OA
ATOM     24  C   UNL     1       4.948   6.599  17.074  0.00  0.00    +0.000 C 
ENDBRANCH  19  23
ENDBRANCH  14  15
ENDBRANCH   2  13
TORSDOF 5
ENDMDL
