MODEL 1
REMARK VINA RESULT:      -6.6      0.000      0.000
REMARK  Name = 
REMARK  8 active torsions:
REMARK  status: ('A' for Active; 'I' for Inactive)
REMARK    1  A    between atoms: C_1  and  C_2
REMARK    2  A    between atoms: C_2  and  C_3
REMARK    3  A    between atoms: C_5  and  O_6
REMARK    4  A    between atoms: C_7  and  N_8
REMARK    5  A    between atoms: N_12  and  C_13
REMARK    6  A    between atoms: C_13  and  C_14
REMARK    7  A    between atoms: C_14  and  C_15
REMARK    8  A    between atoms: C_15  and  O_16
REMARK                            x       y       z     vdW  Elec       q    Type
REMARK                         _______ _______ _______ _____ _____    ______ ____
ROOT
ATOM      1  C   UNL     1       2.740   2.201  18.011  0.00  0.00    +0.000 C 
ATOM      2  C   UNL     1       3.301   3.629  17.823  0.00  0.00    +0.000 C 
ATOM      3  C   UNL     1       2.097   4.600  17.835  0.00  0.00    +0.000 C 
ATOM      4  C   UNL     1       4.214   3.955  19.032  0.00  0.00    +0.000 C 
ATOM      5  C   UNL     1       5.594   4.470  18.752  0.00  0.00    +0.000 C 
ATOM      6  C   UNL     1       6.099   4.589  17.519  0.00  0.00    +0.000 C 
ATOM      7  C   UNL     1       5.374   4.239  16.285  0.00  0.00    +0.000 C 
ATOM      8  N   UNL     1       5.929   4.371  15.122  0.00  0.00    +0.000 NA
ATOM      9  C   UNL     1       3.962   3.691  16.430  0.00  0.00    +0.000 C 
ENDROOT
BRANCH   6  10
ATOM     10  N   UNL     1       7.460   5.039  17.398  0.00  0.00    +0.000 N 
ATOM     11  O   UNL     1       7.642   6.257  17.257  0.00  0.00    +0.000 OA
ATOM     12  O   UNL     1       8.348   4.173  17.468  0.00  0.00    +0.000 OA
ENDBRANCH   6  10
BRANCH   5  13
ATOM     13  O   UNL     1       6.332   4.797  19.882  0.00  0.00    +0.000 OA
ATOM     14  H   UNL     1       6.207   5.735  20.111  0.00  0.00    +0.000 HD
ENDBRANCH   5  13
BRANCH   8  15
ATOM     15  C   UNL     1       5.189   3.988  13.920  0.00  0.00    +0.000 C 
BRANCH  15  16
ATOM     16  C   UNL     1       6.156   3.535  12.834  0.00  0.00    +0.000 C 
BRANCH  16  17
ATOM     17  C   UNL     1       5.462   2.762  11.720  0.00  0.00    +0.000 C 
BRANCH  17  18
ATOM     18  O   UNL     1       5.991   1.442  11.646  0.00  0.00    +0.000 OA
ATOM     19  H   UNL     1       6.366   1.324  10.757  0.00  0.00    +0.000 HD
ENDBRANCH  17  18
ENDBRANCH  16  17
ENDBRANCH  15  16
ENDBRANCH   8  15
TORSDOF 6
ENDMDL
MODEL 2
REMARK VINA RESULT:      -6.3      1.227      1.500
REMARK  Name = 
REMARK  8 active torsions:
REMARK  status: ('A' for Active; 'I' for Inactive)
REMARK    1  A    between atoms: C_1  and  C_2
REMARK    2  A    between atoms: C_2  and  C_3
REMARK    3  A    between atoms: C_5  and  O_6
REMARK    4  A    between atoms: C_7  and  N_8
REMARK    5  A    between atoms: N_12  and  C_13
REMARK    6  A    between atoms: C_13  and  C_14
REMARK    7  A    between atoms: C_14  and  C_15
REMARK    8  A    between atoms: C_15  and  O_16
REMARK                            x       y       z     vdW  Elec       q    Type
REMARK                         _______ _______ _______ _____ _____    ______ ____
ROOT
ATOM      1  C   UNL     1       2.652   2.493  17.943  0.00  0.00    +0.000 C 
ATOM      2  C   UNL     1       3.308   3.889  17.840  0.00  0.00    +0.000 C 
ATOM      3  C   UNL     1       2.168   4.934  17.840  0.00  0.00    +0.000 C 
ATOM      4  C   UNL     1       4.183   4.109  19.100  0.00  0.00    +0.000 C 
ATOM      5  C   UNL     1       5.603   4.545  18.904  0.00  0.00    +0.000 C 
ATOM      6  C   UNL     1       6.172   4.680  17.700  0.00  0.00    +0.000 C 
ATOM      7  C   UNL     1       5.485   4.426  16.422  0.00  0.00    +0.000 C 
ATOM      8  N   UNL     1       6.099   4.567  15.291  0.00  0.00    +0.000 NA
ATOM      9  C   UNL     1       4.035   3.963  16.481  0.00  0.00    +0.000 C 
ENDROOT
BRANCH   6  10
ATOM     10  N   UNL     1       7.562   5.046  17.658  0.00  0.00    +0.000 N 
ATOM     11  O   UNL     1       8.391   4.128  17.745  0.00  0.00    +0.000 OA
ATOM     12  O   UNL     1       7.823   6.251  17.513  0.00  0.00    +0.000 OA
ENDBRANCH   6  10
BRANCH   5  13
ATOM     13  O   UNL     1       6.307   4.780  20.078  0.00  0.00    +0.000 OA
ATOM     14  H   UNL     1       6.075   5.651  20.445  0.00  0.00    +0.000 HD
ENDBRANCH   5  13
BRANCH   8  15
ATOM     15  C   UNL     1       5.394   4.280  14.042  0.00  0.00    +0.000 C 
BRANCH  15  16
ATOM     16  C   UNL     1       6.313   3.536  13.083  0.00  0.00    +0.000 C 
BRANCH  16  17
ATOM     17  C   UNL     1       7.157   4.478  12.235  0.00  0.00    +0.000 C 
BRANCH  17  18
ATOM     18  O   UNL     1       7.801   5.436  13.070  0.00  0.00    +0.000 OA
ATOM     19  H   UNL     1       7.447   6.311  12.843  0.00  0.00    +0.000 HD
ENDBRANCH  17  18
ENDBRANCH  16  17
ENDBRANCH  15  16
ENDBRANCH   8  15
TORSDOF 6
ENDMDL
MODEL 3
REMARK VINA RESULT:      -6.3      3.879      5.286
REMARK  Name = 
REMARK  8 active torsions:
REMARK  status: ('A' for Active; 'I' for Inactive)
REMARK    1  A    between atoms: C_1  and  C_2
REMARK    2  A    between atoms: C_2  and  C_3
REMARK    3  A    between atoms: C_5  and  O_6
REMARK    4  A    between atoms: C_7  and  N_8
REMARK    5  A    between atoms: N_12  and  C_13
REMARK    6  A    between atoms: C_13  and  C_14
REMARK    7  A    between atoms: C_14  and  C_15
REMARK    8  A    between atoms: C_15  and  O_16
REMARK                            x       y       z     vdW  Elec       q    Type
REMARK                         _______ _______ _______ _____ _____    ______ ____
ROOT
ATOM      1  C   UNL     1       0.615   2.631  19.096  0.00  0.00    +0.000 C 
ATOM      2  C   UNL     1       1.731   3.197  20.004  0.00  0.00    +0.000 C 
ATOM      3  C   UNL     1       1.223   3.110  21.463  0.00  0.00    +0.000 C 
ATOM      4  C   UNL     1       2.981   2.293  19.859  0.00  0.00    +0.000 C 
ATOM      5  C   UNL     1       4.294   2.950  19.557  0.00  0.00    +0.000 C 
ATOM      6  C   UNL     1       4.425   4.262  19.332  0.00  0.00    +0.000 C 
ATOM      7  C   UNL     1       3.311   5.227  19.357  0.00  0.00    +0.000 C 
ATOM      8  N   UNL     1       3.509   6.484  19.121  0.00  0.00    +0.000 NA
ATOM      9  C   UNL     1       1.917   4.685  19.642  0.00  0.00    +0.000 C 
ENDROOT
BRANCH   6  10
ATOM     10  N   UNL     1       5.734   4.752  18.991  0.00  0.00    +0.000 N 
ATOM     11  O   UNL     1       6.025   4.793  17.787  0.00  0.00    +0.000 OA
ATOM     12  O   UNL     1       6.460   5.117  19.930  0.00  0.00    +0.000 OA
ENDBRANCH   6  10
BRANCH   5  13
ATOM     13  O   UNL     1       5.377   2.084  19.500  0.00  0.00    +0.000 OA
ATOM     14  H   UNL     1       5.074   1.159  19.514  0.00  0.00    +0.000 HD
ENDBRANCH   5  13
BRANCH   8  15
ATOM     15  C   UNL     1       2.375   7.409  19.127  0.00  0.00    +0.000 C 
BRANCH  15  16
ATOM     16  C   UNL     1       2.346   8.208  17.831  0.00  0.00    +0.000 C 
BRANCH  16  17
ATOM     17  C   UNL     1       1.247   9.262  17.819  0.00  0.00    +0.000 C 
BRANCH  17  18
ATOM     18  O   UNL     1       1.825  10.563  17.802  0.00  0.00    +0.000 OA
ATOM     19  H   UNL     1       1.691  10.957  18.680  0.00  0.00    +0.000 HD
ENDBRANCH  17  18
ENDBRANCH  16  17
ENDBRANCH  15  16
ENDBRANCH   8  15
TORSDOF 6
ENDMDL
MODEL 4
REMARK VINA RESULT:      -6.1      3.592      5.527
REMARK  Name = 
REMARK  8 active torsions:
REMARK  status: ('A' for Active; 'I' for Inactive)
REMARK    1  A    between atoms: C_1  and  C_2
REMARK    2  A    between atoms: C_2  and  C_3
REMARK    3  A    between atoms: C_5  and  O_6
REMARK    4  A    between atoms: C_7  and  N_8
REMARK    5  A    between atoms: N_12  and  C_13
REMARK    6  A    between atoms: C_13  and  C_14
REMARK    7  A    between atoms: C_14  and  C_15
REMARK    8  A    between atoms: C_15  and  O_16
REMARK                            x       y       z     vdW  Elec       q    Type
REMARK                         _______ _______ _______ _____ _____    ______ ____
ROOT
ATOM      1  C   UNL     1       1.521   3.144  18.210  0.00  0.00    +0.000 C 
ATOM      2  C   UNL     1       2.813   3.881  18.633  0.00  0.00    +0.000 C 
ATOM      3  C   UNL     1       3.074   3.532  20.117  0.00  0.00    +0.000 C 
ATOM      4  C   UNL     1       3.985   3.334  17.781  0.00  0.00    +0.000 C 
ATOM      5  C   UNL     1       4.863   4.322  17.074  0.00  0.00    +0.000 C 
ATOM      6  C   UNL     1       4.639   5.642  17.081  0.00  0.00    +0.000 C 
ATOM      7  C   UNL     1       3.517   6.292  17.781  0.00  0.00    +0.000 C 
ATOM      8  N   UNL     1       3.355   7.576  17.738  0.00  0.00    +0.000 NA
ATOM      9  C   UNL     1       2.541   5.396  18.531  0.00  0.00    +0.000 C 
ENDROOT
BRANCH   6  10
ATOM     10  N   UNL     1       5.525   6.471  16.309  0.00  0.00    +0.000 N 
ATOM     11  O   UNL     1       6.531   6.912  16.885  0.00  0.00    +0.000 OA
ATOM     12  O   UNL     1       5.225   6.661  15.120  0.00  0.00    +0.000 OA
ENDBRANCH   6  10
BRANCH   5  13
ATOM     13  O   UNL     1       5.927   3.762  16.380  0.00  0.00    +0.000 OA
ATOM     14  H   UNL     1       5.607   3.286  15.594  0.00  0.00    +0.000 HD
ENDBRANCH   5  13
BRANCH   8  15
ATOM     15  C   UNL     1       2.214   8.184  18.422  0.00  0.00    +0.000 C 
BRANCH  15  16
ATOM     16  C   UNL     1       1.889   9.534  17.795  0.00  0.00    +0.000 C 
BRANCH  16  17
ATOM     17  C   UNL     1       0.908  10.345  18.631  0.00  0.00    +0.000 C 
BRANCH  17  18
ATOM     18  O   UNL     1      -0.302  10.538  17.905  0.00  0.00    +0.000 OA
ATOM     19  H   UNL     1      -0.185  11.317  17.338  0.00  0.00    +0.000 HD
ENDBRANCH  17  18
ENDBRANCH  16  17
ENDBRANCH  15  16
ENDBRANCH   8  15
TORSDOF 6
ENDMDL
MODEL 5
REMARK VINA RESULT:      -6.1      3.642      5.225
REMARK  Name = 
REMARK  8 active torsions:
REMARK  status: ('A' for Active; 'I' for Inactive)
REMARK    1  A    between atoms: C_1  and  C_2
REMARK    2  A    between atoms: C_2  and  C_3
REMARK    3  A    between atoms: C_5  and  O_6
REMARK    4  A    between atoms: C_7  and  N_8
REMARK    5  A    between atoms: N_12  and  C_13
REMARK    6  A    between atoms: C_13  and  C_14
REMARK    7  A    between atoms: C_14  and  C_15
REMARK    8  A    between atoms: C_15  and  O_16
REMARK                            x       y       z     vdW  Elec       q    Type
REMARK                         _______ _______ _______ _____ _____    ______ ____
ROOT
ATOM      1  C   UNL     1       0.693   2.538  18.587  0.00  0.00    +0.000 C 
ATOM      2  C   UNL     1       1.671   3.327  19.487  0.00  0.00    +0.000 C 
ATOM      3  C   UNL     1       0.937   3.617  20.818  0.00  0.00    +0.000 C 
ATOM      4  C   UNL     1       2.896   2.426  19.781  0.00  0.00    +0.000 C 
ATOM      5  C   UNL     1       4.262   2.993  19.536  0.00  0.00    +0.000 C 
ATOM      6  C   UNL     1       4.472   4.204  19.006  0.00  0.00    +0.000 C 
ATOM      7  C   UNL     1       3.402   5.133  18.604  0.00  0.00    +0.000 C 
ATOM      8  N   UNL     1       3.677   6.289  18.088  0.00  0.00    +0.000 NA
ATOM      9  C   UNL     1       1.963   4.673  18.790  0.00  0.00    +0.000 C 
ENDROOT
BRANCH   6  10
ATOM     10  N   UNL     1       5.834   4.598  18.767  0.00  0.00    +0.000 N 
ATOM     11  O   UNL     1       6.444   5.124  19.711  0.00  0.00    +0.000 OA
ATOM     12  O   UNL     1       6.300   4.360  17.642  0.00  0.00    +0.000 OA
ENDBRANCH   6  10
BRANCH   5  13
ATOM     13  O   UNL     1       5.311   2.150  19.878  0.00  0.00    +0.000 OA
ATOM     14  H   UNL     1       5.000   1.229  19.944  0.00  0.00    +0.000 HD
ENDBRANCH   5  13
BRANCH   8  15
ATOM     15  C   UNL     1       2.589   7.174  17.675  0.00  0.00    +0.000 C 
BRANCH  15  16
ATOM     16  C   UNL     1       2.270   8.163  18.788  0.00  0.00    +0.000 C 
BRANCH  16  17
ATOM     17  C   UNL     1       1.389   9.311  18.314  0.00  0.00    +0.000 C 
BRANCH  17  18
ATOM     18  O   UNL     1       0.583   9.780  19.391  0.00  0.00    +0.000 OA
ATOM     19  H   UNL     1      -0.345   9.718  19.114  0.00  0.00    +0.000 HD
ENDBRANCH  17  18
ENDBRANCH  16  17
ENDBRANCH  15  16
ENDBRANCH   8  15
TORSDOF 6
ENDMDL
MODEL 6
REMARK VINA RESULT:      -6.0      4.078      5.353
REMARK  Name = 
REMARK  8 active torsions:
REMARK  status: ('A' for Active; 'I' for Inactive)
REMARK    1  A    between atoms: C_1  and  C_2
REMARK    2  A    between atoms: C_2  and  C_3
REMARK    3  A    between atoms: C_5  and  O_6
REMARK    4  A    between atoms: C_7  and  N_8
REMARK    5  A    between atoms: N_12  and  C_13
REMARK    6  A    between atoms: C_13  and  C_14
REMARK    7  A    between atoms: C_14  and  C_15
REMARK    8  A    between atoms: C_15  and  O_16
REMARK                            x       y       z     vdW  Elec       q    Type
REMARK                         _______ _______ _______ _____ _____    ______ ____
ROOT
ATOM      1  C   UNL     1       0.500   2.691  19.325  0.00  0.00    +0.000 C 
ATOM      2  C   UNL     1       1.669   3.206  20.196  0.00  0.00    +0.000 C 
ATOM      3  C   UNL     1       1.382   2.772  21.652  0.00  0.00    +0.000 C 
ATOM      4  C   UNL     1       2.971   2.516  19.720  0.00  0.00    +0.000 C 
ATOM      5  C   UNL     1       4.155   3.382  19.412  0.00  0.00    +0.000 C 
ATOM      6  C   UNL     1       4.120   4.719  19.455  0.00  0.00    +0.000 C 
ATOM      7  C   UNL     1       2.928   5.509  19.812  0.00  0.00    +0.000 C 
ATOM      8  N   UNL     1       2.962   6.803  19.824  0.00  0.00    +0.000 NA
ATOM      9  C   UNL     1       1.650   4.748  20.136  0.00  0.00    +0.000 C 
ENDROOT
BRANCH   6  10
ATOM     10  N   UNL     1       5.312   5.429  19.076  0.00  0.00    +0.000 N 
ATOM     11  O   UNL     1       6.307   5.288  19.801  0.00  0.00    +0.000 OA
ATOM     12  O   UNL     1       5.257   6.109  18.038  0.00  0.00    +0.000 OA
ENDBRANCH   6  10
BRANCH   5  13
ATOM     13  O   UNL     1       5.303   2.690  19.049  0.00  0.00    +0.000 OA
ATOM     14  H   UNL     1       5.454   2.760  18.090  0.00  0.00    +0.000 HD
ENDBRANCH   5  13
BRANCH   8  15
ATOM     15  C   UNL     1       1.752   7.556  20.156  0.00  0.00    +0.000 C 
BRANCH  15  16
ATOM     16  C   UNL     1       1.634   8.778  19.255  0.00  0.00    +0.000 C 
BRANCH  16  17
ATOM     17  C   UNL     1       1.828   8.439  17.784  0.00  0.00    +0.000 C 
BRANCH  17  18
ATOM     18  O   UNL     1       3.218   8.327  17.492  0.00  0.00    +0.000 OA
ATOM     19  H   UNL     1       3.590   9.224  17.478  0.00  0.00    +0.000 HD
ENDBRANCH  17  18
ENDBRANCH  16  17
ENDBRANCH  15  16
ENDBRANCH   8  15
TORSDOF 6
ENDMDL
MODEL 7
REMARK VINA RESULT:      -6.0      3.265      5.474
REMARK  Name = 
REMARK  8 active torsions:
REMARK  status: ('A' for Active; 'I' for Inactive)
REMARK    1  A    between atoms: C_1  and  C_2
REMARK    2  A    between atoms: C_2  and  C_3
REMARK    3  A    between atoms: C_5  and  O_6
REMARK    4  A    between atoms: C_7  and  N_8
REMARK    5  A    between atoms: N_12  and  C_13
REMARK    6  A    between atoms: C_13  and  C_14
REMARK    7  A    between atoms: C_14  and  C_15
REMARK    8  A    between atoms: C_15  and  O_16
REMARK                            x       y       z     vdW  Elec       q    Type
REMARK                         _______ _______ _______ _____ _____    ______ ____
ROOT
ATOM      1  C   UNL     1       1.600   2.955  18.189  0.00  0.00    +0.000 C 
ATOM      2  C   UNL     1       2.904   3.681  18.590  0.00  0.00    +0.000 C 
ATOM      3  C   UNL     1       3.211   3.299  20.057  0.00  0.00    +0.000 C 
ATOM      4  C   UNL     1       4.050   3.154  17.690  0.00  0.00    +0.000 C 
ATOM      5  C   UNL     1       4.906   4.159  16.980  0.00  0.00    +0.000 C 
ATOM      6  C   UNL     1       4.683   5.477  17.024  0.00  0.00    +0.000 C 
ATOM      7  C   UNL     1       3.584   6.111  17.772  0.00  0.00    +0.000 C 
ATOM      8  N   UNL     1       3.421   7.396  17.763  0.00  0.00    +0.000 NA
ATOM      9  C   UNL     1       2.630   5.198  18.530  0.00  0.00    +0.000 C 
ENDROOT
BRANCH   6  10
ATOM     10  N   UNL     1       5.546   6.324  16.244  0.00  0.00    +0.000 N 
ATOM     11  O   UNL     1       5.188   6.581  15.086  0.00  0.00    +0.000 OA
ATOM     12  O   UNL     1       6.570   6.751  16.802  0.00  0.00    +0.000 OA
ENDBRANCH   6  10
BRANCH   5  13
ATOM     13  O   UNL     1       5.948   3.615  16.241  0.00  0.00    +0.000 OA
ATOM     14  H   UNL     1       5.602   3.025  15.548  0.00  0.00    +0.000 HD
ENDBRANCH   5  13
BRANCH   8  15
ATOM     15  C   UNL     1       2.302   7.988  18.495  0.00  0.00    +0.000 C 
BRANCH  15  16
ATOM     16  C   UNL     1       1.868   9.285  17.825  0.00  0.00    +0.000 C 
BRANCH  16  17
ATOM     17  C   UNL     1       1.081  10.192  18.761  0.00  0.00    +0.000 C 
BRANCH  17  18
ATOM     18  O   UNL     1       0.917   9.556  20.025  0.00  0.00    +0.000 OA
ATOM     19  H   UNL     1       0.891   8.598  19.872  0.00  0.00    +0.000 HD
ENDBRANCH  17  18
ENDBRANCH  16  17
ENDBRANCH  15  16
ENDBRANCH   8  15
TORSDOF 6
ENDMDL
MODEL 8
REMARK VINA RESULT:      -6.0      3.058      4.574
REMARK  Name = 
REMARK  8 active torsions:
REMARK  status: ('A' for Active; 'I' for Inactive)
REMARK    1  A    between atoms: C_1  and  C_2
REMARK    2  A    between atoms: C_2  and  C_3
REMARK    3  A    between atoms: C_5  and  O_6
REMARK    4  A    between atoms: C_7  and  N_8
REMARK    5  A    between atoms: N_12  and  C_13
REMARK    6  A    between atoms: C_13  and  C_14
REMARK    7  A    between atoms: C_14  and  C_15
REMARK    8  A    between atoms: C_15  and  O_16
REMARK                            x       y       z     vdW  Elec       q    Type
REMARK                         _______ _______ _______ _____ _____    ______ ____
ROOT
ATOM      1  C   UNL     1       2.001   6.775  17.834  0.00  0.00    +0.000 C 
ATOM      2  C   UNL     1       2.461   6.024  19.104  0.00  0.00    +0.000 C 
ATOM      3  C   UNL     1       2.176   6.947  20.312  0.00  0.00    +0.000 C 
ATOM      4  C   UNL     1       1.604   4.741  19.247  0.00  0.00    +0.000 C 
ATOM      5  C   UNL     1       2.317   3.437  19.448  0.00  0.00    +0.000 C 
ATOM      6  C   UNL     1       3.649   3.317  19.434  0.00  0.00    +0.000 C 
ATOM      7  C   UNL     1       4.584   4.437  19.227  0.00  0.00    +0.000 C 
ATOM      8  N   UNL     1       5.865   4.248  19.216  0.00  0.00    +0.000 NA
ATOM      9  C   UNL     1       3.987   5.819  18.998  0.00  0.00    +0.000 C 
ENDROOT
BRANCH   6  10
ATOM     10  N   UNL     1       4.200   1.996  19.577  0.00  0.00    +0.000 N 
ATOM     11  O   UNL     1       4.875   1.773  20.593  0.00  0.00    +0.000 OA
ATOM     12  O   UNL     1       3.936   1.175  18.684  0.00  0.00    +0.000 OA
ENDBRANCH   6  10
BRANCH   5  13
ATOM     13  O   UNL     1       1.483   2.341  19.628  0.00  0.00    +0.000 OA
ATOM     14  H   UNL     1       1.632   1.682  18.927  0.00  0.00    +0.000 HD
ENDBRANCH   5  13
BRANCH   8  15
ATOM     15  C   UNL     1       6.762   5.379  18.980  0.00  0.00    +0.000 C 
BRANCH  15  16
ATOM     16  C   UNL     1       7.709   5.063  17.830  0.00  0.00    +0.000 C 
BRANCH  16  17
ATOM     17  C   UNL     1       6.972   4.789  16.526  0.00  0.00    +0.000 C 
BRANCH  17  18
ATOM     18  O   UNL     1       7.566   5.534  15.468  0.00  0.00    +0.000 OA
ATOM     19  H   UNL     1       8.530   5.445  15.549  0.00  0.00    +0.000 HD
ENDBRANCH  17  18
ENDBRANCH  16  17
ENDBRANCH  15  16
ENDBRANCH   8  15
TORSDOF 6
ENDMDL
MODEL 9
REMARK VINA RESULT:      -5.9      3.727      6.130
REMARK  Name = 
REMARK  8 active torsions:
REMARK  status: ('A' for Active; 'I' for Inactive)
REMARK    1  A    between atoms: C_1  and  C_2
REMARK    2  A    between atoms: C_2  and  C_3
REMARK    3  A    between atoms: C_5  and  O_6
REMARK    4  A    between atoms: C_7  and  N_8
REMARK    5  A    between atoms: N_12  and  C_13
REMARK    6  A    between atoms: C_13  and  C_14
REMARK    7  A    between atoms: C_14  and  C_15
REMARK    8  A    between atoms: C_15  and  O_16
REMARK                            x       y       z     vdW  Elec       q    Type
REMARK                         _______ _______ _______ _____ _____    ______ ____
ROOT
ATOM      1  C   UNL     1       7.119   6.750  17.432  0.00  0.00    +0.000 C 
ATOM      2  C   UNL     1       5.901   5.857  17.102  0.00  0.00    +0.000 C 
ATOM      3  C   UNL     1       5.932   5.582  15.580  0.00  0.00    +0.000 C 
ATOM      4  C   UNL     1       6.066   4.512  17.853  0.00  0.00    +0.000 C 
ATOM      5  C   UNL     1       4.917   4.023  18.683  0.00  0.00    +0.000 C 
ATOM      6  C   UNL     1       3.792   4.724  18.867  0.00  0.00    +0.000 C 
ATOM      7  C   UNL     1       3.533   6.051  18.281  0.00  0.00    +0.000 C 
ATOM      8  N   UNL     1       2.423   6.678  18.509  0.00  0.00    +0.000 NA
ATOM      9  C   UNL     1       4.628   6.668  17.424  0.00  0.00    +0.000 C 
ENDROOT
BRANCH   6  10
ATOM     10  N   UNL     1       2.794   4.164  19.738  0.00  0.00    +0.000 N 
ATOM     11  O   UNL     1       1.982   3.375  19.233  0.00  0.00    +0.000 OA
ATOM     12  O   UNL     1       2.840   4.495  20.934  0.00  0.00    +0.000 OA
ENDBRANCH   6  10
BRANCH   5  13
ATOM     13  O   UNL     1       5.116   2.785  19.277  0.00  0.00    +0.000 OA
ATOM     14  H   UNL     1       6.046   2.680  19.543  0.00  0.00    +0.000 HD
ENDBRANCH   5  13
BRANCH   8  15
ATOM     15  C   UNL     1       2.210   8.006  17.933  0.00  0.00    +0.000 C 
BRANCH  15  16
ATOM     16  C   UNL     1       1.592   8.932  18.972  0.00  0.00    +0.000 C 
BRANCH  16  17
ATOM     17  C   UNL     1       1.141  10.258  18.376  0.00  0.00    +0.000 C 
BRANCH  17  18
ATOM     18  O   UNL     1       2.082  10.697  17.401  0.00  0.00    +0.000 OA
ATOM     19  H   UNL     1       2.049  10.073  16.658  0.00  0.00    +0.000 HD
ENDBRANCH  17  18
ENDBRANCH  16  17
ENDBRANCH  15  16
ENDBRANCH   8  15
TORSDOF 6
ENDMDL
