MODEL 1
REMARK VINA RESULT:      -5.4      0.000      0.000
REMARK  Name = 
REMARK  4 active torsions:
REMARK  status: ('A' for Active; 'I' for Inactive)
REMARK    1  A    between atoms: C_1  and  O_2
REMARK    2  A    between atoms: O_2  and  C_3
REMARK    3  A    between atoms: C_8  and  C_9
REMARK    4  A    between atoms: C_11  and  O_12
REMARK                            x       y       z     vdW  Elec       q    Type
REMARK                         _______ _______ _______ _____ _____    ______ ____
ROOT
ATOM      1  C   UNL     1       5.272   4.371  18.797  0.00  0.00    +0.000 A 
ATOM      2  C   UNL     1       4.672   5.582  18.428  0.00  0.00    +0.000 A 
ATOM      3  C   UNL     1       3.360   5.865  18.801  0.00  0.00    +0.000 A 
ATOM      4 BR   UNL     1       2.567   7.499  18.277  0.00  0.00    +0.000 Br
ATOM      5  C   UNL     1       2.628   4.958  19.559  0.00  0.00    +0.000 A 
ATOM      6  C   UNL     1       3.230   3.758  19.952  0.00  0.00    +0.000 A 
ATOM      7  C   UNL     1       4.551   3.458  19.577  0.00  0.00    +0.000 A 
ENDROOT
BRANCH   1   9
ATOM      8  C   UNL     1       7.277   5.470  18.155  0.00  0.00    +0.000 C 
ATOM      9  O   UNL     1       6.573   4.254  18.383  0.00  0.00    +0.000 OA
ENDBRANCH   1   9
BRANCH   6  10
ATOM     10  C   UNL     1       2.434   2.830  20.780  0.00  0.00    +0.000 C 
ATOM     11  O   UNL     1       2.808   2.516  21.907  0.00  0.00    +0.000 OA
ENDBRANCH   6  10
BRANCH   7  12
ATOM     12  O   UNL     1       5.150   2.297  19.995  0.00  0.00    +0.000 OA
ATOM     13  H   UNL     1       5.042   1.612  19.297  0.00  0.00    +0.000 HD
ENDBRANCH   7  12
TORSDOF 3
ENDMDL
MODEL 2
REMARK VINA RESULT:      -5.4      1.470      1.473
REMARK  Name = 
REMARK  4 active torsions:
REMARK  status: ('A' for Active; 'I' for Inactive)
REMARK    1  A    between atoms: C_1  and  O_2
REMARK    2  A    between atoms: O_2  and  C_3
REMARK    3  A    between atoms: C_8  and  C_9
REMARK    4  A    between atoms: C_11  and  O_12
REMARK                            x       y       z     vdW  Elec       q    Type
REMARK                         _______ _______ _______ _____ _____    ______ ____
ROOT
ATOM      1  C   UNL     1       5.021   4.409  18.560  0.00  0.00    +0.000 A 
ATOM      2  C   UNL     1       4.619   5.739  18.381  0.00  0.00    +0.000 A 
ATOM      3  C   UNL     1       3.279   6.051  18.161  0.00  0.00    +0.000 A 
ATOM      4 BR   UNL     1       2.763   7.851  17.906  0.00  0.00    +0.000 Br
ATOM      5  C   UNL     1       2.315   5.048  18.132  0.00  0.00    +0.000 A 
ATOM      6  C   UNL     1       2.707   3.722  18.334  0.00  0.00    +0.000 A 
ATOM      7  C   UNL     1       4.057   3.394  18.550  0.00  0.00    +0.000 A 
ENDROOT
BRANCH   1   9
ATOM      8  C   UNL     1       7.238   4.715  17.765  0.00  0.00    +0.000 C 
ATOM      9  O   UNL     1       6.364   4.268  18.796  0.00  0.00    +0.000 OA
ENDBRANCH   1   9
BRANCH   6  10
ATOM     10  C   UNL     1       1.654   2.685  18.324  0.00  0.00    +0.000 C 
ATOM     11  O   UNL     1       1.596   1.842  19.215  0.00  0.00    +0.000 OA
ENDBRANCH   6  10
BRANCH   7  12
ATOM     12  O   UNL     1       4.432   2.096  18.786  0.00  0.00    +0.000 OA
ATOM     13  H   UNL     1       3.829   1.494  18.294  0.00  0.00    +0.000 HD
ENDBRANCH   7  12
TORSDOF 3
ENDMDL
MODEL 3
REMARK VINA RESULT:      -5.3      2.967      3.881
REMARK  Name = 
REMARK  4 active torsions:
REMARK  status: ('A' for Active; 'I' for Inactive)
REMARK    1  A    between atoms: C_1  and  O_2
REMARK    2  A    between atoms: O_2  and  C_3
REMARK    3  A    between atoms: C_8  and  C_9
REMARK    4  A    between atoms: C_11  and  O_12
REMARK                            x       y       z     vdW  Elec       q    Type
REMARK                         _______ _______ _______ _____ _____    ______ ____
ROOT
ATOM      1  C   UNL     1       5.802   4.068  16.379  0.00  0.00    +0.000 A 
ATOM      2  C   UNL     1       4.451   4.300  16.664  0.00  0.00    +0.000 A 
ATOM      3  C   UNL     1       4.077   4.985  17.819  0.00  0.00    +0.000 A 
ATOM      4 BR   UNL     1       2.246   5.272  18.189  0.00  0.00    +0.000 Br
ATOM      5  C   UNL     1       5.040   5.462  18.701  0.00  0.00    +0.000 A 
ATOM      6  C   UNL     1       6.392   5.255  18.410  0.00  0.00    +0.000 A 
ATOM      7  C   UNL     1       6.781   4.561  17.251  0.00  0.00    +0.000 A 
ENDROOT
BRANCH   1   9
ATOM      8  C   UNL     1       6.230   4.227  14.049  0.00  0.00    +0.000 C 
ATOM      9  O   UNL     1       6.009   3.411  15.194  0.00  0.00    +0.000 OA
ENDBRANCH   1   9
BRANCH   6  10
ATOM     10  C   UNL     1       7.390   5.800  19.353  0.00  0.00    +0.000 C 
ATOM     11  O   UNL     1       8.275   5.084  19.813  0.00  0.00    +0.000 OA
ENDBRANCH   6  10
BRANCH   7  12
ATOM     12  O   UNL     1       8.109   4.392  16.950  0.00  0.00    +0.000 OA
ATOM     13  H   UNL     1       8.274   3.442  16.750  0.00  0.00    +0.000 HD
ENDBRANCH   7  12
TORSDOF 3
ENDMDL
MODEL 4
REMARK VINA RESULT:      -5.3      1.063      3.685
REMARK  Name = 
REMARK  4 active torsions:
REMARK  status: ('A' for Active; 'I' for Inactive)
REMARK    1  A    between atoms: C_1  and  O_2
REMARK    2  A    between atoms: O_2  and  C_3
REMARK    3  A    between atoms: C_8  and  C_9
REMARK    4  A    between atoms: C_11  and  O_12
REMARK                            x       y       z     vdW  Elec       q    Type
REMARK                         _______ _______ _______ _____ _____    ______ ____
ROOT
ATOM      1  C   UNL     1       3.310   4.286  19.469  0.00  0.00    +0.000 A 
ATOM      2  C   UNL     1       2.678   5.493  19.144  0.00  0.00    +0.000 A 
ATOM      3  C   UNL     1       3.326   6.440  18.352  0.00  0.00    +0.000 A 
ATOM      4 BR   UNL     1       2.459   8.068  17.940  0.00  0.00    +0.000 Br
ATOM      5  C   UNL     1       4.603   6.197  17.860  0.00  0.00    +0.000 A 
ATOM      6  C   UNL     1       5.229   4.983  18.161  0.00  0.00    +0.000 A 
ATOM      7  C   UNL     1       4.589   4.022  18.963  0.00  0.00    +0.000 A 
ENDROOT
BRANCH   1   9
ATOM      8  C   UNL     1       1.246   3.932  20.589  0.00  0.00    +0.000 C 
ATOM      9  O   UNL     1       2.534   3.447  20.227  0.00  0.00    +0.000 OA
ENDBRANCH   1   9
BRANCH   6  10
ATOM     10  C   UNL     1       6.574   4.745  17.599  0.00  0.00    +0.000 C 
ATOM     11  O   UNL     1       7.513   4.437  18.327  0.00  0.00    +0.000 OA
ENDBRANCH   6  10
BRANCH   7  12
ATOM     12  O   UNL     1       5.191   2.818  19.226  0.00  0.00    +0.000 OA
ATOM     13  H   UNL     1       5.712   2.895  20.057  0.00  0.00    +0.000 HD
ENDBRANCH   7  12
TORSDOF 3
ENDMDL
MODEL 5
REMARK VINA RESULT:      -5.2      2.723      4.459
REMARK  Name = 
REMARK  4 active torsions:
REMARK  status: ('A' for Active; 'I' for Inactive)
REMARK    1  A    between atoms: C_1  and  O_2
REMARK    2  A    between atoms: O_2  and  C_3
REMARK    3  A    between atoms: C_8  and  C_9
REMARK    4  A    between atoms: C_11  and  O_12
REMARK                            x       y       z     vdW  Elec       q    Type
REMARK                         _______ _______ _______ _____ _____    ______ ____
ROOT
ATOM      1  C   UNL     1       6.263   4.627  18.152  0.00  0.00    +0.000 A 
ATOM      2  C   UNL     1       4.899   4.577  18.466  0.00  0.00    +0.000 A 
ATOM      3  C   UNL     1       3.948   4.386  17.465  0.00  0.00    +0.000 A 
ATOM      4 BR   UNL     1       2.112   4.338  17.912  0.00  0.00    +0.000 Br
ATOM      5  C   UNL     1       4.337   4.228  16.139  0.00  0.00    +0.000 A 
ATOM      6  C   UNL     1       5.699   4.253  15.823  0.00  0.00    +0.000 A 
ATOM      7  C   UNL     1       6.668   4.450  16.822  0.00  0.00    +0.000 A 
ENDROOT
BRANCH   1   9
ATOM      8  C   UNL     1       7.834   5.990  19.297  0.00  0.00    +0.000 C 
ATOM      9  O   UNL     1       7.073   4.788  19.245  0.00  0.00    +0.000 OA
ENDBRANCH   1   9
BRANCH   6  10
ATOM     10  C   UNL     1       6.080   4.053  14.410  0.00  0.00    +0.000 C 
ATOM     11  O   UNL     1       6.942   4.753  13.887  0.00  0.00    +0.000 OA
ENDBRANCH   6  10
BRANCH   7  12
ATOM     12  O   UNL     1       8.004   4.436  16.514  0.00  0.00    +0.000 OA
ATOM     13  H   UNL     1       8.524   4.365  17.346  0.00  0.00    +0.000 HD
ENDBRANCH   7  12
TORSDOF 3
ENDMDL
MODEL 6
REMARK VINA RESULT:      -5.2      3.158      4.385
REMARK  Name = 
REMARK  4 active torsions:
REMARK  status: ('A' for Active; 'I' for Inactive)
REMARK    1  A    between atoms: C_1  and  O_2
REMARK    2  A    between atoms: O_2  and  C_3
REMARK    3  A    between atoms: C_8  and  C_9
REMARK    4  A    between atoms: C_11  and  O_12
REMARK                            x       y       z     vdW  Elec       q    Type
REMARK                         _______ _______ _______ _____ _____    ______ ____
ROOT
ATOM      1  C   UNL     1       5.624   4.761  15.987  0.00  0.00    +0.000 A 
ATOM      2  C   UNL     1       4.617   3.988  16.579  0.00  0.00    +0.000 A 
ATOM      3  C   UNL     1       4.600   3.783  17.957  0.00  0.00    +0.000 A 
ATOM      4 BR   UNL     1       3.240   2.724  18.732  0.00  0.00    +0.000 Br
ATOM      5  C   UNL     1       5.574   4.353  18.770  0.00  0.00    +0.000 A 
ATOM      6  C   UNL     1       6.568   5.144  18.187  0.00  0.00    +0.000 A 
ATOM      7  C   UNL     1       6.600   5.355  16.798  0.00  0.00    +0.000 A 
ENDROOT
BRANCH   1   9
ATOM      8  C   UNL     1       6.178   3.946  13.826  0.00  0.00    +0.000 C 
ATOM      9  O   UNL     1       5.486   4.896  14.630  0.00  0.00    +0.000 OA
ENDBRANCH   1   9
BRANCH   6  10
ATOM     10  C   UNL     1       7.571   5.758  19.082  0.00  0.00    +0.000 C 
ATOM     11  O   UNL     1       7.636   5.438  20.265  0.00  0.00    +0.000 OA
ENDBRANCH   6  10
BRANCH   7  12
ATOM     12  O   UNL     1       7.554   6.162  16.234  0.00  0.00    +0.000 OA
ATOM     13  H   UNL     1       8.130   6.522  16.946  0.00  0.00    +0.000 HD
ENDBRANCH   7  12
TORSDOF 3
ENDMDL
MODEL 7
REMARK VINA RESULT:      -5.2      2.734      3.080
REMARK  Name = 
REMARK  4 active torsions:
REMARK  status: ('A' for Active; 'I' for Inactive)
REMARK    1  A    between atoms: C_1  and  O_2
REMARK    2  A    between atoms: O_2  and  C_3
REMARK    3  A    between atoms: C_8  and  C_9
REMARK    4  A    between atoms: C_11  and  O_12
REMARK                            x       y       z     vdW  Elec       q    Type
REMARK                         _______ _______ _______ _____ _____    ______ ____
ROOT
ATOM      1  C   UNL     1       5.649   5.034  18.845  0.00  0.00    +0.000 A 
ATOM      2  C   UNL     1       6.220   4.734  17.602  0.00  0.00    +0.000 A 
ATOM      3  C   UNL     1       5.414   4.392  16.517  0.00  0.00    +0.000 A 
ATOM      4 BR   UNL     1       6.209   3.976  14.853  0.00  0.00    +0.000 Br
ATOM      5  C   UNL     1       4.030   4.357  16.646  0.00  0.00    +0.000 A 
ATOM      6  C   UNL     1       3.454   4.679  17.878  0.00  0.00    +0.000 A 
ATOM      7  C   UNL     1       4.255   5.020  18.982  0.00  0.00    +0.000 A 
ENDROOT
BRANCH   1   9
ATOM      8  C   UNL     1       7.863   5.738  19.334  0.00  0.00    +0.000 C 
ATOM      9  O   UNL     1       6.567   5.381  19.802  0.00  0.00    +0.000 OA
ENDBRANCH   1   9
BRANCH   6  10
ATOM     10  C   UNL     1       1.980   4.660  17.973  0.00  0.00    +0.000 C 
ATOM     11  O   UNL     1       1.417   4.068  18.890  0.00  0.00    +0.000 OA
ENDBRANCH   6  10
BRANCH   7  12
ATOM     12  O   UNL     1       3.685   5.371  20.178  0.00  0.00    +0.000 OA
ATOM     13  H   UNL     1       4.088   4.832  20.896  0.00  0.00    +0.000 HD
ENDBRANCH   7  12
TORSDOF 3
ENDMDL
MODEL 8
REMARK VINA RESULT:      -5.2      2.432      4.343
REMARK  Name = 
REMARK  4 active torsions:
REMARK  status: ('A' for Active; 'I' for Inactive)
REMARK    1  A    between atoms: C_1  and  O_2
REMARK    2  A    between atoms: O_2  and  C_3
REMARK    3  A    between atoms: C_8  and  C_9
REMARK    4  A    between atoms: C_11  and  O_12
REMARK                            x       y       z     vdW  Elec       q    Type
REMARK                         _______ _______ _______ _____ _____    ______ ____
ROOT
ATOM      1  C   UNL     1       3.666   4.062  17.298  0.00  0.00    +0.000 A 
ATOM      2  C   UNL     1       2.894   5.148  17.730  0.00  0.00    +0.000 A 
ATOM      3  C   UNL     1       3.442   6.428  17.790  0.00  0.00    +0.000 A 
ATOM      4 BR   UNL     1       2.384   7.874  18.390  0.00  0.00    +0.000 Br
ATOM      5  C   UNL     1       4.761   6.652  17.408  0.00  0.00    +0.000 A 
ATOM      6  C   UNL     1       5.529   5.576  16.954  0.00  0.00    +0.000 A 
ATOM      7  C   UNL     1       4.990   4.279  16.894  0.00  0.00    +0.000 A 
ENDROOT
BRANCH   1   9
ATOM      8  C   UNL     1       3.081   2.054  18.422  0.00  0.00    +0.000 C 
ATOM      9  O   UNL     1       2.978   2.877  17.265  0.00  0.00    +0.000 OA
ENDBRANCH   1   9
BRANCH   6  10
ATOM     10  C   UNL     1       6.917   5.853  16.529  0.00  0.00    +0.000 C 
ATOM     11  O   UNL     1       7.305   5.538  15.408  0.00  0.00    +0.000 OA
ENDBRANCH   6  10
BRANCH   7  12
ATOM     12  O   UNL     1       5.735   3.233  16.413  0.00  0.00    +0.000 OA
ATOM     13  H   UNL     1       5.398   2.394  16.801  0.00  0.00    +0.000 HD
ENDBRANCH   7  12
TORSDOF 3
ENDMDL
MODEL 9
REMARK VINA RESULT:      -5.1      2.969      4.466
REMARK  Name = 
REMARK  4 active torsions:
REMARK  status: ('A' for Active; 'I' for Inactive)
REMARK    1  A    between atoms: C_1  and  O_2
REMARK    2  A    between atoms: O_2  and  C_3
REMARK    3  A    between atoms: C_8  and  C_9
REMARK    4  A    between atoms: C_11  and  O_12
REMARK                            x       y       z     vdW  Elec       q    Type
REMARK                         _______ _______ _______ _____ _____    ______ ____
ROOT
ATOM      1  C   UNL     1       4.223   4.425  17.660  0.00  0.00    +0.000 A 
ATOM      2  C   UNL     1       4.578   4.140  16.335  0.00  0.00    +0.000 A 
ATOM      3  C   UNL     1       5.870   4.389  15.878  0.00  0.00    +0.000 A 
ATOM      4 BR   UNL     1       6.320   4.010  14.082  0.00  0.00    +0.000 Br
ATOM      5  C   UNL     1       6.835   4.912  16.733  0.00  0.00    +0.000 A 
ATOM      6  C   UNL     1       6.494   5.176  18.063  0.00  0.00    +0.000 A 
ATOM      7  C   UNL     1       5.191   4.935  18.534  0.00  0.00    +0.000 A 
ENDROOT
BRANCH   1   9
ATOM      8  C   UNL     1       2.510   2.781  17.614  0.00  0.00    +0.000 C 
ATOM      9  O   UNL     1       2.928   4.096  17.965  0.00  0.00    +0.000 OA
ENDBRANCH   1   9
BRANCH   6  10
ATOM     10  C   UNL     1       7.549   5.704  18.951  0.00  0.00    +0.000 C 
ATOM     11  O   UNL     1       7.583   5.395  20.139  0.00  0.00    +0.000 OA
ENDBRANCH   6  10
BRANCH   7  12
ATOM     12  O   UNL     1       4.871   5.160  19.849  0.00  0.00    +0.000 OA
ATOM     13  H   UNL     1       3.892   5.218  19.934  0.00  0.00    +0.000 HD
ENDBRANCH   7  12
TORSDOF 3
ENDMDL
