MODEL 1
REMARK VINA RESULT:      -9.1      0.000      0.000
REMARK  Name = 
REMARK  6 active torsions:
REMARK  status: ('A' for Active; 'I' for Inactive)
REMARK    1  A    between atoms: C_1  and  C_2
REMARK    2  A    between atoms: C_2  and  C_3
REMARK    3  A    between atoms: C_2  and  C_4
REMARK    4  A    between atoms: C_7  and  C_8
REMARK    5  A    between atoms: C_14  and  C_15
REMARK    6  A    between atoms: C_15  and  N_16
REMARK                            x       y       z     vdW  Elec       q    Type
REMARK                         _______ _______ _______ _____ _____    ______ ____
ROOT
ATOM      1  C   UNL     1       6.398   4.963  15.566  0.00  0.00    +0.000 A 
ATOM      2  N   UNL     1       7.415   4.749  16.432  0.00  0.00    +0.000 NA
ATOM      3  C   UNL     1       7.168   4.834  17.757  0.00  0.00    +0.000 A 
ATOM      4  N   UNL     1       8.264   4.700  18.614  0.00  0.00    +0.000 N 
ATOM      5  C   UNL     1       5.862   5.064  18.199  0.00  0.00    +0.000 A 
ATOM      6  C   UNL     1       5.193   5.011  19.479  0.00  0.00    +0.000 A 
ATOM      7  C   UNL     1       3.839   5.287  19.389  0.00  0.00    +0.000 A 
ATOM      8  S   UNL     1       3.455   5.890  17.827  0.00  0.00    +0.000 S 
ATOM      9  C   UNL     1       4.951   5.397  17.203  0.00  0.00    +0.000 A 
ATOM     10  N   UNL     1       5.167   5.380  15.880  0.00  0.00    +0.000 NA
ATOM     11  H   UNL     1       9.121   4.914  18.108  0.00  0.00    +0.000 HD
ATOM     12  H   UNL     1       8.163   5.197  19.491  0.00  0.00    +0.000 HD
ENDROOT
BRANCH   1  16
ATOM     13  C   UNL     1       6.283   3.680  12.206  0.00  0.00    +0.000 A 
ATOM     14  C   UNL     1       7.447   4.409  12.063  0.00  0.00    +0.000 A 
ATOM     15  C   UNL     1       7.698   5.024  13.308  0.00  0.00    +0.000 A 
ATOM     16  C   UNL     1       6.671   4.660  14.159  0.00  0.00    +0.000 A 
ATOM     17  O   UNL     1       5.803   3.828  13.482  0.00  0.00    +0.000 OA
BRANCH  13  19
ATOM     18  C   UNL     1       5.895   1.327  11.409  0.00  0.00    +0.000 C 
ATOM     19  C   UNL     1       5.542   2.804  11.242  0.00  0.00    +0.000 C 
ATOM     20  C   UNL     1       4.031   3.009  11.297  0.00  0.00    +0.000 C 
ENDBRANCH  13  19
ENDBRANCH   1  16
BRANCH   7  21
ATOM     21  C   UNL     1       2.763   5.220  20.442  0.00  0.00    +0.000 C 
BRANCH  21  22
ATOM     22  N   UNL     1       2.132   3.924  20.685  0.00  0.00    +0.000 NA
ATOM     23  C   UNL     1       2.986   2.737  20.616  0.00  0.00    +0.000 C 
ATOM     24  C   UNL     1       3.037   2.088  19.228  0.00  0.00    +0.000 C 
ATOM     25  O   UNL     1       1.725   1.730  18.779  0.00  0.00    +0.000 OA
ATOM     26  C   UNL     1       0.848   2.861  18.741  0.00  0.00    +0.000 C 
ATOM     27  C   UNL     1       0.830   3.665  20.057  0.00  0.00    +0.000 C 
ENDBRANCH  21  22
ENDBRANCH   7  21
TORSDOF 4
ENDMDL
MODEL 2
REMARK VINA RESULT:      -7.8      3.266      3.996
REMARK  Name = 
REMARK  6 active torsions:
REMARK  status: ('A' for Active; 'I' for Inactive)
REMARK    1  A    between atoms: C_1  and  C_2
REMARK    2  A    between atoms: C_2  and  C_3
REMARK    3  A    between atoms: C_2  and  C_4
REMARK    4  A    between atoms: C_7  and  C_8
REMARK    5  A    between atoms: C_14  and  C_15
REMARK    6  A    between atoms: C_15  and  N_16
REMARK                            x       y       z     vdW  Elec       q    Type
REMARK                         _______ _______ _______ _____ _____    ______ ____
ROOT
ATOM      1  C   UNL     1       5.376   4.937  16.400  0.00  0.00    +0.000 A 
ATOM      2  N   UNL     1       5.593   3.990  17.340  0.00  0.00    +0.000 NA
ATOM      3  C   UNL     1       4.995   4.120  18.543  0.00  0.00    +0.000 A 
ATOM      4  N   UNL     1       5.319   3.171  19.516  0.00  0.00    +0.000 N 
ATOM      5  C   UNL     1       4.111   5.181  18.759  0.00  0.00    +0.000 A 
ATOM      6  C   UNL     1       3.158   5.523  19.791  0.00  0.00    +0.000 A 
ATOM      7  C   UNL     1       2.470   6.694  19.520  0.00  0.00    +0.000 A 
ATOM      8  S   UNL     1       3.184   7.511  18.189  0.00  0.00    +0.000 S 
ATOM      9  C   UNL     1       4.090   6.146  17.759  0.00  0.00    +0.000 A 
ATOM     10  N   UNL     1       4.712   6.084  16.572  0.00  0.00    +0.000 NA
ATOM     11  H   UNL     1       6.214   2.743  19.291  0.00  0.00    +0.000 HD
ATOM     12  H   UNL     1       5.250   3.517  20.467  0.00  0.00    +0.000 HD
ENDROOT
BRANCH   1  16
ATOM     13  C   UNL     1       5.867   3.626  13.085  0.00  0.00    +0.000 A 
ATOM     14  C   UNL     1       6.986   4.435  13.107  0.00  0.00    +0.000 A 
ATOM     15  C   UNL     1       6.998   5.076  14.365  0.00  0.00    +0.000 A 
ATOM     16  C   UNL     1       5.881   4.645  15.056  0.00  0.00    +0.000 A 
ATOM     17  O   UNL     1       5.188   3.747  14.270  0.00  0.00    +0.000 OA
BRANCH  13  19
ATOM     18  C   UNL     1       4.274   3.339  11.160  0.00  0.00    +0.000 C 
ATOM     19  C   UNL     1       5.346   2.691  12.035  0.00  0.00    +0.000 C 
ATOM     20  C   UNL     1       6.454   2.088  11.177  0.00  0.00    +0.000 C 
ENDBRANCH  13  19
ENDBRANCH   1  16
BRANCH   7  21
ATOM     21  C   UNL     1       1.322   7.336  20.254  0.00  0.00    +0.000 C 
BRANCH  21  22
ATOM     22  N   UNL     1       1.476   8.730  20.667  0.00  0.00    +0.000 NA
ATOM     23  C   UNL     1       1.309   9.032  22.091  0.00  0.00    +0.000 C 
ATOM     24  C   UNL     1      -0.125   9.412  22.480  0.00  0.00    +0.000 C 
ATOM     25  O   UNL     1      -0.583  10.536  21.721  0.00  0.00    +0.000 OA
ATOM     26  C   UNL     1      -0.526  10.286  20.312  0.00  0.00    +0.000 C 
ATOM     27  C   UNL     1       0.846   9.766  19.839  0.00  0.00    +0.000 C 
ENDBRANCH  21  22
ENDBRANCH   7  21
TORSDOF 4
ENDMDL
MODEL 3
REMARK VINA RESULT:      -7.7      4.050      6.321
REMARK  Name = 
REMARK  6 active torsions:
REMARK  status: ('A' for Active; 'I' for Inactive)
REMARK    1  A    between atoms: C_1  and  C_2
REMARK    2  A    between atoms: C_2  and  C_3
REMARK    3  A    between atoms: C_2  and  C_4
REMARK    4  A    between atoms: C_7  and  C_8
REMARK    5  A    between atoms: C_14  and  C_15
REMARK    6  A    between atoms: C_15  and  N_16
REMARK                            x       y       z     vdW  Elec       q    Type
REMARK                         _______ _______ _______ _____ _____    ______ ____
ROOT
ATOM      1  C   UNL     1       7.548   7.273  17.602  0.00  0.00    +0.000 A 
ATOM      2  N   UNL     1       7.721   6.841  16.332  0.00  0.00    +0.000 NA
ATOM      3  C   UNL     1       7.129   5.689  15.951  0.00  0.00    +0.000 A 
ATOM      4  N   UNL     1       7.409   5.231  14.661  0.00  0.00    +0.000 N 
ATOM      5  C   UNL     1       6.296   5.015  16.850  0.00  0.00    +0.000 A 
ATOM      6  C   UNL     1       5.361   3.918  16.749  0.00  0.00    +0.000 A 
ATOM      7  C   UNL     1       4.729   3.640  17.949  0.00  0.00    +0.000 A 
ATOM      8  S   UNL     1       5.480   4.499  19.232  0.00  0.00    +0.000 S 
ATOM      9  C   UNL     1       6.320   5.498  18.153  0.00  0.00    +0.000 A 
ATOM     10  N   UNL     1       6.938   6.606  18.587  0.00  0.00    +0.000 NA
ATOM     11  H   UNL     1       8.284   5.638  14.337  0.00  0.00    +0.000 HD
ATOM     12  H   UNL     1       7.357   4.223  14.562  0.00  0.00    +0.000 HD
ENDROOT
BRANCH   1  16
ATOM     13  C   UNL     1       9.135  10.138  19.092  0.00  0.00    +0.000 A 
ATOM     14  C   UNL     1       8.546  10.808  18.038  0.00  0.00    +0.000 A 
ATOM     15  C   UNL     1       7.841   9.843  17.287  0.00  0.00    +0.000 A 
ATOM     16  C   UNL     1       8.038   8.621  17.901  0.00  0.00    +0.000 A 
ATOM     17  O   UNL     1       8.830   8.803  19.016  0.00  0.00    +0.000 OA
BRANCH  13  19
ATOM     18  C   UNL     1      11.141  11.502  19.755  0.00  0.00    +0.000 C 
ATOM     19  C   UNL     1       9.978  10.633  20.229  0.00  0.00    +0.000 C 
ATOM     20  C   UNL     1       9.163  11.354  21.299  0.00  0.00    +0.000 C 
ENDBRANCH  13  19
ENDBRANCH   1  16
BRANCH   7  21
ATOM     21  C   UNL     1       3.613   2.676  18.256  0.00  0.00    +0.000 C 
BRANCH  21  22
ATOM     22  N   UNL     1       2.247   3.199  18.264  0.00  0.00    +0.000 NA
ATOM     23  C   UNL     1       2.083   4.647  18.404  0.00  0.00    +0.000 C 
ATOM     24  C   UNL     1       1.926   5.117  19.855  0.00  0.00    +0.000 C 
ATOM     25  O   UNL     1       0.817   4.471  20.488  0.00  0.00    +0.000 OA
ATOM     26  C   UNL     1       0.945   3.045  20.464  0.00  0.00    +0.000 C 
ATOM     27  C   UNL     1       1.241   2.482  19.059  0.00  0.00    +0.000 C 
ENDBRANCH  21  22
ENDBRANCH   7  21
TORSDOF 4
ENDMDL
MODEL 4
REMARK VINA RESULT:      -7.6      1.291      1.655
REMARK  Name = 
REMARK  6 active torsions:
REMARK  status: ('A' for Active; 'I' for Inactive)
REMARK    1  A    between atoms: C_1  and  C_2
REMARK    2  A    between atoms: C_2  and  C_3
REMARK    3  A    between atoms: C_2  and  C_4
REMARK    4  A    between atoms: C_7  and  C_8
REMARK    5  A    between atoms: C_14  and  C_15
REMARK    6  A    between atoms: C_15  and  N_16
REMARK                            x       y       z     vdW  Elec       q    Type
REMARK                         _______ _______ _______ _____ _____    ______ ____
ROOT
ATOM      1  C   UNL     1       6.187   4.570  15.575  0.00  0.00    +0.000 A 
ATOM      2  N   UNL     1       7.039   5.299  16.331  0.00  0.00    +0.000 NA
ATOM      3  C   UNL     1       6.873   5.308  17.670  0.00  0.00    +0.000 A 
ATOM      4  N   UNL     1       7.715   6.147  18.405  0.00  0.00    +0.000 N 
ATOM      5  C   UNL     1       5.880   4.509  18.245  0.00  0.00    +0.000 A 
ATOM      6  C   UNL     1       5.548   4.104  19.592  0.00  0.00    +0.000 A 
ATOM      7  C   UNL     1       4.465   3.242  19.642  0.00  0.00    +0.000 A 
ATOM      8  S   UNL     1       3.690   3.169  18.112  0.00  0.00    +0.000 S 
ATOM      9  C   UNL     1       4.998   3.924  17.345  0.00  0.00    +0.000 A 
ATOM     10  N   UNL     1       5.093   3.934  16.007  0.00  0.00    +0.000 NA
ATOM     11  H   UNL     1       8.078   6.881  17.801  0.00  0.00    +0.000 HD
ATOM     12  H   UNL     1       7.307   6.483  19.271  0.00  0.00    +0.000 HD
ENDROOT
BRANCH   1  16
ATOM     13  C   UNL     1       6.321   3.596  12.113  0.00  0.00    +0.000 A 
ATOM     14  C   UNL     1       7.391   4.468  12.079  0.00  0.00    +0.000 A 
ATOM     15  C   UNL     1       7.531   4.991  13.382  0.00  0.00    +0.000 A 
ATOM     16  C   UNL     1       6.533   4.432  14.158  0.00  0.00    +0.000 A 
ATOM     17  O   UNL     1       5.791   3.568  13.378  0.00  0.00    +0.000 OA
BRANCH  13  19
ATOM     18  C   UNL     1       6.208   1.285  11.129  0.00  0.00    +0.000 C 
ATOM     19  C   UNL     1       5.719   2.729  11.048  0.00  0.00    +0.000 C 
ATOM     20  C   UNL     1       4.194   2.785  11.033  0.00  0.00    +0.000 C 
ENDBRANCH  13  19
ENDBRANCH   1  16
BRANCH   7  21
ATOM     21  C   UNL     1       3.874   2.495  20.808  0.00  0.00    +0.000 C 
BRANCH  21  22
ATOM     22  N   UNL     1       2.690   3.066  21.450  0.00  0.00    +0.000 NA
ATOM     23  C   UNL     1       1.396   2.460  21.135  0.00  0.00    +0.000 C 
ATOM     24  C   UNL     1       0.674   3.117  19.953  0.00  0.00    +0.000 C 
ATOM     25  O   UNL     1       0.476   4.516  20.184  0.00  0.00    +0.000 OA
ATOM     26  C   UNL     1       1.712   5.197  20.421  0.00  0.00    +0.000 C 
ATOM     27  C   UNL     1       2.579   4.530  21.507  0.00  0.00    +0.000 C 
ENDBRANCH  21  22
ENDBRANCH   7  21
TORSDOF 4
ENDMDL
MODEL 5
REMARK VINA RESULT:      -7.4      0.858      1.187
REMARK  Name = 
REMARK  6 active torsions:
REMARK  status: ('A' for Active; 'I' for Inactive)
REMARK    1  A    between atoms: C_1  and  C_2
REMARK    2  A    between atoms: C_2  and  C_3
REMARK    3  A    between atoms: C_2  and  C_4
REMARK    4  A    between atoms: C_7  and  C_8
REMARK    5  A    between atoms: C_14  and  C_15
REMARK    6  A    between atoms: C_15  and  N_16
REMARK                            x       y       z     vdW  Elec       q    Type
REMARK                         _______ _______ _______ _____ _____    ______ ____
ROOT
ATOM      1  C   UNL     1       5.850   4.403  15.042  0.00  0.00    +0.000 A 
ATOM      2  N   UNL     1       6.987   4.207  15.747  0.00  0.00    +0.000 NA
ATOM      3  C   UNL     1       6.967   4.404  17.082  0.00  0.00    +0.000 A 
ATOM      4  N   UNL     1       8.183   4.283  17.758  0.00  0.00    +0.000 N 
ATOM      5  C   UNL     1       5.760   4.730  17.709  0.00  0.00    +0.000 A 
ATOM      6  C   UNL     1       5.311   4.808  19.081  0.00  0.00    +0.000 A 
ATOM      7  C   UNL     1       3.971   5.142  19.189  0.00  0.00    +0.000 A 
ATOM      8  S   UNL     1       3.357   5.642  17.665  0.00  0.00    +0.000 S 
ATOM      9  C   UNL     1       4.710   5.031  16.850  0.00  0.00    +0.000 A 
ATOM     10  N   UNL     1       4.703   4.902  15.516  0.00  0.00    +0.000 NA
ATOM     11  H   UNL     1       8.952   4.415  17.104  0.00  0.00    +0.000 HD
ATOM     12  H   UNL     1       8.247   4.850  18.596  0.00  0.00    +0.000 HD
ENDROOT
BRANCH   1  16
ATOM     13  C   UNL     1       4.961   3.388  11.707  0.00  0.00    +0.000 A 
ATOM     14  C   UNL     1       6.330   3.298  11.545  0.00  0.00    +0.000 A 
ATOM     15  C   UNL     1       6.909   3.666  12.778  0.00  0.00    +0.000 A 
ATOM     16  C   UNL     1       5.875   3.981  13.639  0.00  0.00    +0.000 A 
ATOM     17  O   UNL     1       4.675   3.804  12.982  0.00  0.00    +0.000 OA
BRANCH  13  19
ATOM     18  C   UNL     1       2.622   2.497  11.470  0.00  0.00    +0.000 C 
ATOM     19  C   UNL     1       3.835   3.097  10.761  0.00  0.00    +0.000 C 
ATOM     20  C   UNL     1       3.431   4.312   9.931  0.00  0.00    +0.000 C 
ENDBRANCH  13  19
ENDBRANCH   1  16
BRANCH   7  21
ATOM     21  C   UNL     1       3.083   5.208  20.404  0.00  0.00    +0.000 C 
BRANCH  21  22
ATOM     22  N   UNL     1       2.313   4.014  20.747  0.00  0.00    +0.000 NA
ATOM     23  C   UNL     1       3.009   2.727  20.694  0.00  0.00    +0.000 C 
ATOM     24  C   UNL     1       2.898   2.016  19.340  0.00  0.00    +0.000 C 
ATOM     25  O   UNL     1       1.528   1.806  18.980  0.00  0.00    +0.000 OA
ATOM     26  C   UNL     1       0.796   3.035  18.930  0.00  0.00    +0.000 C 
ATOM     27  C   UNL     1       0.954   3.893  20.202  0.00  0.00    +0.000 C 
ENDBRANCH  21  22
ENDBRANCH   7  21
TORSDOF 4
ENDMDL
MODEL 6
REMARK VINA RESULT:      -7.2      3.951      6.016
REMARK  Name = 
REMARK  6 active torsions:
REMARK  status: ('A' for Active; 'I' for Inactive)
REMARK    1  A    between atoms: C_1  and  C_2
REMARK    2  A    between atoms: C_2  and  C_3
REMARK    3  A    between atoms: C_2  and  C_4
REMARK    4  A    between atoms: C_7  and  C_8
REMARK    5  A    between atoms: C_14  and  C_15
REMARK    6  A    between atoms: C_15  and  N_16
REMARK                            x       y       z     vdW  Elec       q    Type
REMARK                         _______ _______ _______ _____ _____    ______ ____
ROOT
ATOM      1  C   UNL     1       7.580   7.043  17.726  0.00  0.00    +0.000 A 
ATOM      2  N   UNL     1       7.712   6.781  16.406  0.00  0.00    +0.000 NA
ATOM      3  C   UNL     1       7.037   5.737  15.881  0.00  0.00    +0.000 A 
ATOM      4  N   UNL     1       7.273   5.443  14.535  0.00  0.00    +0.000 N 
ATOM      5  C   UNL     1       6.164   5.005  16.692  0.00  0.00    +0.000 A 
ATOM      6  C   UNL     1       5.151   4.001  16.457  0.00  0.00    +0.000 A 
ATOM      7  C   UNL     1       4.509   3.604  17.618  0.00  0.00    +0.000 A 
ATOM      8  S   UNL     1       5.329   4.222  18.995  0.00  0.00    +0.000 S 
ATOM      9  C   UNL     1       6.232   5.299  18.049  0.00  0.00    +0.000 A 
ATOM     10  N   UNL     1       6.931   6.290  18.620  0.00  0.00    +0.000 NA
ATOM     11  H   UNL     1       8.172   5.829  14.255  0.00  0.00    +0.000 HD
ATOM     12  H   UNL     1       7.148   4.465  14.299  0.00  0.00    +0.000 HD
ENDROOT
BRANCH   1  16
ATOM     13  C   UNL     1       8.741  10.435  18.029  0.00  0.00    +0.000 A 
ATOM     14  C   UNL     1       9.206   9.994  19.253  0.00  0.00    +0.000 A 
ATOM     15  C   UNL     1       8.849   8.632  19.355  0.00  0.00    +0.000 A 
ATOM     16  C   UNL     1       8.168   8.299  18.200  0.00  0.00    +0.000 A 
ATOM     17  O   UNL     1       8.107   9.407  17.380  0.00  0.00    +0.000 OA
BRANCH  13  19
ATOM     18  C   UNL     1       7.496  12.484  17.269  0.00  0.00    +0.000 C 
ATOM     19  C   UNL     1       8.845  11.772  17.358  0.00  0.00    +0.000 C 
ATOM     20  C   UNL     1       9.893  12.676  17.999  0.00  0.00    +0.000 C 
ENDBRANCH  13  19
ENDBRANCH   1  16
BRANCH   7  21
ATOM     21  C   UNL     1       3.329   2.688  17.809  0.00  0.00    +0.000 C 
BRANCH  21  22
ATOM     22  N   UNL     1       2.014   3.302  17.981  0.00  0.00    +0.000 NA
ATOM     23  C   UNL     1       1.974   4.741  18.251  0.00  0.00    +0.000 C 
ATOM     24  C   UNL     1       1.976   5.093  19.744  0.00  0.00    +0.000 C 
ATOM     25  O   UNL     1       0.876   4.473  20.419  0.00  0.00    +0.000 OA
ATOM     26  C   UNL     1       0.891   3.049  20.269  0.00  0.00    +0.000 C 
ATOM     27  C   UNL     1       1.025   2.592  18.802  0.00  0.00    +0.000 C 
ENDBRANCH  21  22
ENDBRANCH   7  21
TORSDOF 4
ENDMDL
MODEL 7
REMARK VINA RESULT:      -7.2      5.317      9.638
REMARK  Name = 
REMARK  6 active torsions:
REMARK  status: ('A' for Active; 'I' for Inactive)
REMARK    1  A    between atoms: C_1  and  C_2
REMARK    2  A    between atoms: C_2  and  C_3
REMARK    3  A    between atoms: C_2  and  C_4
REMARK    4  A    between atoms: C_7  and  C_8
REMARK    5  A    between atoms: C_14  and  C_15
REMARK    6  A    between atoms: C_15  and  N_16
REMARK                            x       y       z     vdW  Elec       q    Type
REMARK                         _______ _______ _______ _____ _____    ______ ____
ROOT
ATOM      1  C   UNL     1       1.003   9.093  20.611  0.00  0.00    +0.000 A 
ATOM      2  N   UNL     1       1.200   9.782  19.465  0.00  0.00    +0.000 NA
ATOM      3  C   UNL     1       1.857   9.181  18.450  0.00  0.00    +0.000 A 
ATOM      4  N   UNL     1       2.123   9.959  17.320  0.00  0.00    +0.000 N 
ATOM      5  C   UNL     1       2.247   7.845  18.581  0.00  0.00    +0.000 A 
ATOM      6  C   UNL     1       2.757   6.837  17.679  0.00  0.00    +0.000 A 
ATOM      7  C   UNL     1       2.954   5.614  18.297  0.00  0.00    +0.000 A 
ATOM      8  S   UNL     1       2.806   5.775  20.000  0.00  0.00    +0.000 S 
ATOM      9  C   UNL     1       2.101   7.308  19.855  0.00  0.00    +0.000 A 
ATOM     10  N   UNL     1       1.505   7.889  20.906  0.00  0.00    +0.000 NA
ATOM     11  H   UNL     1       2.099  10.945  17.571  0.00  0.00    +0.000 HD
ATOM     12  H   UNL     1       2.954   9.678  16.813  0.00  0.00    +0.000 HD
ENDROOT
BRANCH   1  16
ATOM     13  C   UNL     1      -1.286  11.268  22.337  0.00  0.00    +0.000 A 
ATOM     14  C   UNL     1      -1.104  10.370  23.370  0.00  0.00    +0.000 A 
ATOM     15  C   UNL     1      -0.206   9.387  22.901  0.00  0.00    +0.000 A 
ATOM     16  C   UNL     1       0.114   9.714  21.596  0.00  0.00    +0.000 A 
ATOM     17  O   UNL     1      -0.546  10.875  21.251  0.00  0.00    +0.000 OA
BRANCH  13  19
ATOM     18  C   UNL     1      -2.710  12.730  20.868  0.00  0.00    +0.000 C 
ATOM     19  C   UNL     1      -2.100  12.524  22.253  0.00  0.00    +0.000 C 
ATOM     20  C   UNL     1      -3.173  12.606  23.335  0.00  0.00    +0.000 C 
ENDBRANCH  13  19
ENDBRANCH   1  16
BRANCH   7  21
ATOM     21  C   UNL     1       3.349   4.283  17.711  0.00  0.00    +0.000 C 
BRANCH  21  22
ATOM     22  N   UNL     1       4.728   4.127  17.250  0.00  0.00    +0.000 NA
ATOM     23  C   UNL     1       5.787   4.677  18.099  0.00  0.00    +0.000 C 
ATOM     24  C   UNL     1       6.175   6.119  17.751  0.00  0.00    +0.000 C 
ATOM     25  O   UNL     1       6.588   6.225  16.384  0.00  0.00    +0.000 OA
ATOM     26  C   UNL     1       5.568   5.780  15.483  0.00  0.00    +0.000 C 
ATOM     27  C   UNL     1       5.012   4.384  15.832  0.00  0.00    +0.000 C 
ENDBRANCH  21  22
ENDBRANCH   7  21
TORSDOF 4
ENDMDL
MODEL 8
REMARK VINA RESULT:      -7.2      4.008      6.249
REMARK  Name = 
REMARK  6 active torsions:
REMARK  status: ('A' for Active; 'I' for Inactive)
REMARK    1  A    between atoms: C_1  and  C_2
REMARK    2  A    between atoms: C_2  and  C_3
REMARK    3  A    between atoms: C_2  and  C_4
REMARK    4  A    between atoms: C_7  and  C_8
REMARK    5  A    between atoms: C_14  and  C_15
REMARK    6  A    between atoms: C_15  and  N_16
REMARK                            x       y       z     vdW  Elec       q    Type
REMARK                         _______ _______ _______ _____ _____    ______ ____
ROOT
ATOM      1  C   UNL     1       7.227   7.437  17.551  0.00  0.00    +0.000 A 
ATOM      2  N   UNL     1       7.700   6.739  16.493  0.00  0.00    +0.000 NA
ATOM      3  C   UNL     1       7.041   5.629  16.101  0.00  0.00    +0.000 A 
ATOM      4  N   UNL     1       7.614   4.885  15.066  0.00  0.00    +0.000 N 
ATOM      5  C   UNL     1       5.851   5.273  16.743  0.00  0.00    +0.000 A 
ATOM      6  C   UNL     1       4.795   4.321  16.484  0.00  0.00    +0.000 A 
ATOM      7  C   UNL     1       3.776   4.381  17.420  0.00  0.00    +0.000 A 
ATOM      8  S   UNL     1       4.241   5.367  18.747  0.00  0.00    +0.000 S 
ATOM      9  C   UNL     1       5.560   5.999  17.892  0.00  0.00    +0.000 A 
ATOM     10  N   UNL     1       6.219   7.074  18.350  0.00  0.00    +0.000 NA
ATOM     11  H   UNL     1       8.609   5.092  15.008  0.00  0.00    +0.000 HD
ATOM     12  H   UNL     1       7.395   3.896  15.099  0.00  0.00    +0.000 HD
ENDROOT
BRANCH   1  16
ATOM     13  C   UNL     1       9.142  10.155  18.926  0.00  0.00    +0.000 A 
ATOM     14  C   UNL     1       8.582  10.863  17.881  0.00  0.00    +0.000 A 
ATOM     15  C   UNL     1       7.758   9.960  17.174  0.00  0.00    +0.000 A 
ATOM     16  C   UNL     1       7.858   8.735  17.805  0.00  0.00    +0.000 A 
ATOM     17  O   UNL     1       8.705   8.856  18.888  0.00  0.00    +0.000 OA
BRANCH  13  19
ATOM     18  C   UNL     1      11.178  11.507  19.518  0.00  0.00    +0.000 C 
ATOM     19  C   UNL     1      10.071  10.584  20.022  0.00  0.00    +0.000 C 
ATOM     20  C   UNL     1       9.339  11.210  21.206  0.00  0.00    +0.000 C 
ENDBRANCH  13  19
ENDBRANCH   1  16
BRANCH   7  21
ATOM     21  C   UNL     1       2.451   3.666  17.457  0.00  0.00    +0.000 C 
BRANCH  21  22
ATOM     22  N   UNL     1       2.320   2.527  18.365  0.00  0.00    +0.000 NA
ATOM     23  C   UNL     1       1.387   2.663  19.485  0.00  0.00    +0.000 C 
ATOM     24  C   UNL     1       2.032   3.198  20.769  0.00  0.00    +0.000 C 
ATOM     25  O   UNL     1       3.121   2.367  21.183  0.00  0.00    +0.000 OA
ATOM     26  C   UNL     1       4.121   2.250  20.165  0.00  0.00    +0.000 C 
ATOM     27  C   UNL     1       3.549   1.844  18.792  0.00  0.00    +0.000 C 
ENDBRANCH  21  22
ENDBRANCH   7  21
TORSDOF 4
ENDMDL
MODEL 9
REMARK VINA RESULT:      -7.1      3.887      4.593
REMARK  Name = 
REMARK  6 active torsions:
REMARK  status: ('A' for Active; 'I' for Inactive)
REMARK    1  A    between atoms: C_1  and  C_2
REMARK    2  A    between atoms: C_2  and  C_3
REMARK    3  A    between atoms: C_2  and  C_4
REMARK    4  A    between atoms: C_7  and  C_8
REMARK    5  A    between atoms: C_14  and  C_15
REMARK    6  A    between atoms: C_15  and  N_16
REMARK                            x       y       z     vdW  Elec       q    Type
REMARK                         _______ _______ _______ _____ _____    ______ ____
ROOT
ATOM      1  C   UNL     1       5.191   5.045  15.908  0.00  0.00    +0.000 A 
ATOM      2  N   UNL     1       4.842   4.038  16.741  0.00  0.00    +0.000 NA
ATOM      3  C   UNL     1       4.062   4.317  17.806  0.00  0.00    +0.000 A 
ATOM      4  N   UNL     1       3.803   3.268  18.692  0.00  0.00    +0.000 N 
ATOM      5  C   UNL     1       3.574   5.616  17.979  0.00  0.00    +0.000 A 
ATOM      6  C   UNL     1       2.584   6.229  18.835  0.00  0.00    +0.000 A 
ATOM      7  C   UNL     1       2.425   7.583  18.588  0.00  0.00    +0.000 A 
ATOM      8  S   UNL     1       3.667   8.148  17.545  0.00  0.00    +0.000 S 
ATOM      9  C   UNL     1       4.121   6.570  17.130  0.00  0.00    +0.000 A 
ATOM     10  N   UNL     1       4.942   6.346  16.094  0.00  0.00    +0.000 NA
ATOM     11  H   UNL     1       4.522   2.555  18.596  0.00  0.00    +0.000 HD
ATOM     12  H   UNL     1       3.637   3.566  19.646  0.00  0.00    +0.000 HD
ENDROOT
BRANCH   1  16
ATOM     13  C   UNL     1       5.981   3.728  12.654  0.00  0.00    +0.000 A 
ATOM     14  C   UNL     1       7.246   4.196  12.952  0.00  0.00    +0.000 A 
ATOM     15  C   UNL     1       7.172   4.778  14.236  0.00  0.00    +0.000 A 
ATOM     16  C   UNL     1       5.864   4.656  14.666  0.00  0.00    +0.000 A 
ATOM     17  O   UNL     1       5.132   4.005  13.695  0.00  0.00    +0.000 OA
BRANCH  13  19
ATOM     18  C   UNL     1       5.863   1.527  11.444  0.00  0.00    +0.000 C 
ATOM     19  C   UNL     1       5.455   2.999  11.454  0.00  0.00    +0.000 C 
ATOM     20  C   UNL     1       3.945   3.145  11.288  0.00  0.00    +0.000 C 
ENDBRANCH  13  19
ENDBRANCH   1  16
BRANCH   7  21
ATOM     21  C   UNL     1       1.432   8.562  19.156  0.00  0.00    +0.000 C 
BRANCH  21  22
ATOM     22  N   UNL     1       1.034   9.690  18.314  0.00  0.00    +0.000 NA
ATOM     23  C   UNL     1       1.635  10.992  18.608  0.00  0.00    +0.000 C 
ATOM     24  C   UNL     1       0.817  11.848  19.583  0.00  0.00    +0.000 C 
ATOM     25  O   UNL     1      -0.510  12.061  19.091  0.00  0.00    +0.000 OA
ATOM     26  C   UNL     1      -1.196  10.826  18.855  0.00  0.00    +0.000 C 
ATOM     27  C   UNL     1      -0.391   9.836  17.990  0.00  0.00    +0.000 C 
ENDBRANCH  21  22
ENDBRANCH   7  21
TORSDOF 4
ENDMDL
