MODEL 1
REMARK VINA RESULT:      -7.7      0.000      0.000
REMARK  Name = 
REMARK  10 active torsions:
REMARK  status: ('A' for Active; 'I' for Inactive)
REMARK    1  A    between atoms: C_1  and  N_2
REMARK    2  A    between atoms: N_2  and  C_3
REMARK    3  A    between atoms: C_3  and  C_4
REMARK    4  A    between atoms: C_4  and  N_5
REMARK    5  A    between atoms: N_5  and  C_6
REMARK    6  A    between atoms: N_15  and  C_16
REMARK    7  A    between atoms: C_17  and  C_19
REMARK    8  A    between atoms: C_22  and  N_23
REMARK    9  A    between atoms: N_23  and  S_24
REMARK   10  A    between atoms: S_24  and  C_25
REMARK                            x       y       z     vdW  Elec       q    Type
REMARK                         _______ _______ _______ _____ _____    ______ ____
ROOT
ATOM      1  C   UNL     1       0.791   7.512  21.251  0.00  0.00    +0.000 C 
ATOM      2  N   UNL     1       1.735   7.198  20.186  0.00  0.00    +0.000 N 
ATOM      3  C   UNL     1       2.071   5.833  20.066  0.00  0.00    +0.000 C 
ATOM      4  O   UNL     1       1.494   4.969  20.729  0.00  0.00    +0.000 OA
ENDROOT
BRANCH   3   5
ATOM      5  C   UNL     1       3.130   5.360  19.115  0.00  0.00    +0.000 A 
ATOM      6  C   UNL     1       2.842   4.885  17.834  0.00  0.00    +0.000 A 
ATOM      7  C   UNL     1       3.850   4.423  16.989  0.00  0.00    +0.000 A 
ATOM      8  C   UNL     1       5.179   4.522  17.380  0.00  0.00    +0.000 A 
ATOM      9  C   UNL     1       5.504   5.085  18.612  0.00  0.00    +0.000 A 
ATOM     10  C   UNL     1       4.480   5.490  19.485  0.00  0.00    +0.000 A 
BRANCH   8  11
ATOM     11  N   UNL     1       6.179   4.123  16.450  0.00  0.00    +0.000 N 
ATOM     12  H   UNL     1       7.086   3.858  16.839  0.00  0.00    +0.000 HD
BRANCH  11  13
ATOM     13  S   UNL     1       6.389   5.079  15.071  0.00  0.00    +0.000 S 
ATOM     14  C   UNL     1       5.780   4.010  13.783  0.00  0.00    +0.000 C 
ATOM     15  O   UNL     1       5.552   6.256  15.152  0.00  0.00    +0.000 OA
ATOM     16  O   UNL     1       7.823   5.191  14.902  0.00  0.00    +0.000 OA
ENDBRANCH  11  13
ENDBRANCH   8  11
ENDBRANCH   3   5
BRANCH   2  17
ATOM     17  C   UNL     1       2.301   8.273  19.346  0.00  0.00    +0.000 C 
BRANCH  17  18
ATOM     18  C   UNL     1       1.423   8.994  18.310  0.00  0.00    +0.000 C 
BRANCH  18  19
ATOM     19  N   UNL     1       0.905  10.289  18.842  0.00  0.00    +0.000 N 
ATOM     20  C   UNL     1       1.791  11.411  18.507  0.00  0.00    +0.000 C 
ATOM     21  C   UNL     1      -0.438  10.521  18.644  0.00  0.00    +0.000 A 
ATOM     22  N   UNL     1      -1.229   9.893  17.796  0.00  0.00    +0.000 NA
ATOM     23  C   UNL     1      -2.470  10.474  17.915  0.00  0.00    +0.000 A 
ATOM     24  C   UNL     1      -3.659  10.214  17.212  0.00  0.00    +0.000 A 
ATOM     25  C   UNL     1      -4.812  10.948  17.527  0.00  0.00    +0.000 A 
ATOM     26  C   UNL     1      -4.788  11.916  18.530  0.00  0.00    +0.000 A 
ATOM     27  C   UNL     1      -3.614  12.184  19.244  0.00  0.00    +0.000 A 
ATOM     28  C   UNL     1      -2.468  11.450  18.904  0.00  0.00    +0.000 A 
ATOM     29  N   UNL     1      -1.170  11.445  19.374  0.00  0.00    +0.000 N 
ATOM     30  C   UNL     1      -0.718  12.211  20.509  0.00  0.00    +0.000 C 
ENDBRANCH  18  19
ENDBRANCH  17  18
ENDBRANCH   2  17
TORSDOF 6
ENDMDL
MODEL 2
REMARK VINA RESULT:      -7.1      1.603      2.486
REMARK  Name = 
REMARK  10 active torsions:
REMARK  status: ('A' for Active; 'I' for Inactive)
REMARK    1  A    between atoms: C_1  and  N_2
REMARK    2  A    between atoms: N_2  and  C_3
REMARK    3  A    between atoms: C_3  and  C_4
REMARK    4  A    between atoms: C_4  and  N_5
REMARK    5  A    between atoms: N_5  and  C_6
REMARK    6  A    between atoms: N_15  and  C_16
REMARK    7  A    between atoms: C_17  and  C_19
REMARK    8  A    between atoms: C_22  and  N_23
REMARK    9  A    between atoms: N_23  and  S_24
REMARK   10  A    between atoms: S_24  and  C_25
REMARK                            x       y       z     vdW  Elec       q    Type
REMARK                         _______ _______ _______ _____ _____    ______ ____
ROOT
ATOM      1  C   UNL     1       1.057   7.118  21.202  0.00  0.00    +0.000 C 
ATOM      2  N   UNL     1       1.907   6.839  20.052  0.00  0.00    +0.000 N 
ATOM      3  C   UNL     1       2.575   5.597  20.087  0.00  0.00    +0.000 C 
ATOM      4  O   UNL     1       2.336   4.765  20.964  0.00  0.00    +0.000 OA
ENDROOT
BRANCH   3   5
ATOM      5  C   UNL     1       3.591   5.216  19.052  0.00  0.00    +0.000 A 
ATOM      6  C   UNL     1       4.954   5.487  19.191  0.00  0.00    +0.000 A 
ATOM      7  C   UNL     1       5.866   5.147  18.193  0.00  0.00    +0.000 A 
ATOM      8  C   UNL     1       5.437   4.438  17.078  0.00  0.00    +0.000 A 
ATOM      9  C   UNL     1       4.100   4.065  16.960  0.00  0.00    +0.000 A 
ATOM     10  C   UNL     1       3.175   4.466  17.938  0.00  0.00    +0.000 A 
BRANCH   8  11
ATOM     11  N   UNL     1       6.417   4.033  16.129  0.00  0.00    +0.000 N 
ATOM     12  H   UNL     1       7.344   3.810  16.497  0.00  0.00    +0.000 HD
BRANCH  11  13
ATOM     13  S   UNL     1       6.551   4.941  14.710  0.00  0.00    +0.000 S 
ATOM     14  C   UNL     1       6.035   3.770  13.471  0.00  0.00    +0.000 C 
ATOM     15  O   UNL     1       5.621   6.048  14.739  0.00  0.00    +0.000 OA
ATOM     16  O   UNL     1       7.972   5.161  14.534  0.00  0.00    +0.000 OA
ENDBRANCH  11  13
ENDBRANCH   8  11
ENDBRANCH   3   5
BRANCH   2  17
ATOM     17  C   UNL     1       2.057   7.836  18.972  0.00  0.00    +0.000 C 
BRANCH  17  18
ATOM     18  C   UNL     1       2.121   9.336  19.301  0.00  0.00    +0.000 C 
BRANCH  18  19
ATOM     19  N   UNL     1       0.916  10.057  18.793  0.00  0.00    +0.000 N 
ATOM     20  C   UNL     1       0.215   9.287  17.758  0.00  0.00    +0.000 C 
ATOM     21  C   UNL     1       0.107  10.620  19.756  0.00  0.00    +0.000 A 
ATOM     22  N   UNL     1       0.107  10.342  21.045  0.00  0.00    +0.000 NA
ATOM     23  C   UNL     1      -0.881  11.113  21.611  0.00  0.00    +0.000 A 
ATOM     24  C   UNL     1      -1.329  11.171  22.942  0.00  0.00    +0.000 A 
ATOM     25  C   UNL     1      -2.363  12.058  23.276  0.00  0.00    +0.000 A 
ATOM     26  C   UNL     1      -2.935  12.881  22.307  0.00  0.00    +0.000 A 
ATOM     27  C   UNL     1      -2.499  12.840  20.978  0.00  0.00    +0.000 A 
ATOM     28  C   UNL     1      -1.474  11.936  20.661  0.00  0.00    +0.000 A 
ATOM     29  N   UNL     1      -0.810  11.625  19.491  0.00  0.00    +0.000 N 
ATOM     30  C   UNL     1      -0.996  12.327  18.246  0.00  0.00    +0.000 C 
ENDBRANCH  18  19
ENDBRANCH  17  18
ENDBRANCH   2  17
TORSDOF 6
ENDMDL
MODEL 3
REMARK VINA RESULT:      -7.1      2.622      3.609
REMARK  Name = 
REMARK  10 active torsions:
REMARK  status: ('A' for Active; 'I' for Inactive)
REMARK    1  A    between atoms: C_1  and  N_2
REMARK    2  A    between atoms: N_2  and  C_3
REMARK    3  A    between atoms: C_3  and  C_4
REMARK    4  A    between atoms: C_4  and  N_5
REMARK    5  A    between atoms: N_5  and  C_6
REMARK    6  A    between atoms: N_15  and  C_16
REMARK    7  A    between atoms: C_17  and  C_19
REMARK    8  A    between atoms: C_22  and  N_23
REMARK    9  A    between atoms: N_23  and  S_24
REMARK   10  A    between atoms: S_24  and  C_25
REMARK                            x       y       z     vdW  Elec       q    Type
REMARK                         _______ _______ _______ _____ _____    ______ ____
ROOT
ATOM      1  C   UNL     1       1.872   3.713  21.398  0.00  0.00    +0.000 C 
ATOM      2  N   UNL     1       2.613   4.139  20.217  0.00  0.00    +0.000 N 
ATOM      3  C   UNL     1       3.720   3.332  19.880  0.00  0.00    +0.000 C 
ATOM      4  O   UNL     1       3.945   2.272  20.469  0.00  0.00    +0.000 OA
ENDROOT
BRANCH   3   5
ATOM      5  C   UNL     1       4.667   3.708  18.780  0.00  0.00    +0.000 A 
ATOM      6  C   UNL     1       5.888   4.345  19.013  0.00  0.00    +0.000 A 
ATOM      7  C   UNL     1       6.727   4.708  17.962  0.00  0.00    +0.000 A 
ATOM      8  C   UNL     1       6.400   4.350  16.660  0.00  0.00    +0.000 A 
ATOM      9  C   UNL     1       5.237   3.626  16.407  0.00  0.00    +0.000 A 
ATOM     10  C   UNL     1       4.364   3.318  17.464  0.00  0.00    +0.000 A 
BRANCH   8  11
ATOM     11  N   UNL     1       7.330   4.662  15.629  0.00  0.00    +0.000 N 
ATOM     12  H   UNL     1       8.033   5.371  15.848  0.00  0.00    +0.000 HD
BRANCH  11  13
ATOM     13  S   UNL     1       6.718   4.904  14.072  0.00  0.00    +0.000 S 
ATOM     14  C   UNL     1       8.150   5.509  13.202  0.00  0.00    +0.000 C 
ATOM     15  O   UNL     1       6.308   3.641  13.499  0.00  0.00    +0.000 OA
ATOM     16  O   UNL     1       5.788   6.006  14.197  0.00  0.00    +0.000 OA
ENDBRANCH  11  13
ENDBRANCH   8  11
ENDBRANCH   3   5
BRANCH   2  17
ATOM     17  C   UNL     1       2.216   5.359  19.484  0.00  0.00    +0.000 C 
BRANCH  17  18
ATOM     18  C   UNL     1       3.000   6.668  19.671  0.00  0.00    +0.000 C 
BRANCH  18  19
ATOM     19  N   UNL     1       2.270   7.829  19.081  0.00  0.00    +0.000 N 
ATOM     20  C   UNL     1       1.598   7.471  17.826  0.00  0.00    +0.000 C 
ATOM     21  C   UNL     1       1.513   8.568  19.963  0.00  0.00    +0.000 A 
ATOM     22  N   UNL     1       1.125   8.200  21.168  0.00  0.00    +0.000 NA
ATOM     23  C   UNL     1       0.366   9.234  21.667  0.00  0.00    +0.000 A 
ATOM     24  C   UNL     1      -0.321   9.340  22.889  0.00  0.00    +0.000 A 
ATOM     25  C   UNL     1      -1.028  10.518  23.173  0.00  0.00    +0.000 A 
ATOM     26  C   UNL     1      -1.043  11.576  22.265  0.00  0.00    +0.000 A 
ATOM     27  C   UNL     1      -0.360  11.489  21.047  0.00  0.00    +0.000 A 
ATOM     28  C   UNL     1       0.329  10.297  20.774  0.00  0.00    +0.000 A 
ATOM     29  N   UNL     1       1.088   9.863  19.707  0.00  0.00    +0.000 N 
ATOM     30  C   UNL     1       1.445  10.688  18.579  0.00  0.00    +0.000 C 
ENDBRANCH  18  19
ENDBRANCH  17  18
ENDBRANCH   2  17
TORSDOF 6
ENDMDL
MODEL 4
REMARK VINA RESULT:      -6.9      1.873      3.318
REMARK  Name = 
REMARK  10 active torsions:
REMARK  status: ('A' for Active; 'I' for Inactive)
REMARK    1  A    between atoms: C_1  and  N_2
REMARK    2  A    between atoms: N_2  and  C_3
REMARK    3  A    between atoms: C_3  and  C_4
REMARK    4  A    between atoms: C_4  and  N_5
REMARK    5  A    between atoms: N_5  and  C_6
REMARK    6  A    between atoms: N_15  and  C_16
REMARK    7  A    between atoms: C_17  and  C_19
REMARK    8  A    between atoms: C_22  and  N_23
REMARK    9  A    between atoms: N_23  and  S_24
REMARK   10  A    between atoms: S_24  and  C_25
REMARK                            x       y       z     vdW  Elec       q    Type
REMARK                         _______ _______ _______ _____ _____    ______ ____
ROOT
ATOM      1  C   UNL     1       0.007  11.048  21.418  0.00  0.00    +0.000 C 
ATOM      2  N   UNL     1       0.538  10.214  20.347  0.00  0.00    +0.000 N 
ATOM      3  C   UNL     1       1.084   8.981  20.761  0.00  0.00    +0.000 C 
ATOM      4  O   UNL     1       0.984   8.594  21.927  0.00  0.00    +0.000 OA
ENDROOT
BRANCH   3   5
ATOM      5  C   UNL     1       1.793   8.070  19.804  0.00  0.00    +0.000 A 
ATOM      6  C   UNL     1       2.227   8.482  18.543  0.00  0.00    +0.000 A 
ATOM      7  C   UNL     1       2.855   7.598  17.667  0.00  0.00    +0.000 A 
ATOM      8  C   UNL     1       3.147   6.304  18.083  0.00  0.00    +0.000 A 
ATOM      9  C   UNL     1       2.816   5.895  19.372  0.00  0.00    +0.000 A 
ATOM     10  C   UNL     1       2.127   6.771  20.228  0.00  0.00    +0.000 A 
BRANCH   8  11
ATOM     11  N   UNL     1       3.869   5.465  17.190  0.00  0.00    +0.000 N 
ATOM     12  H   UNL     1       3.866   4.465  17.400  0.00  0.00    +0.000 HD
BRANCH  11  13
ATOM     13  S   UNL     1       5.418   5.963  16.730  0.00  0.00    +0.000 S 
ATOM     14  C   UNL     1       6.234   4.408  16.434  0.00  0.00    +0.000 C 
ATOM     15  O   UNL     1       5.352   6.713  15.496  0.00  0.00    +0.000 OA
ATOM     16  O   UNL     1       6.001   6.538  17.925  0.00  0.00    +0.000 OA
ENDBRANCH  11  13
ENDBRANCH   8  11
ENDBRANCH   3   5
BRANCH   2  17
ATOM     17  C   UNL     1       0.518  10.690  18.948  0.00  0.00    +0.000 C 
BRANCH  17  18
ATOM     18  C   UNL     1      -0.429  11.825  18.526  0.00  0.00    +0.000 C 
BRANCH  18  19
ATOM     19  N   UNL     1      -1.644  11.293  17.840  0.00  0.00    +0.000 N 
ATOM     20  C   UNL     1      -1.498   9.874  17.493  0.00  0.00    +0.000 C 
ATOM     21  C   UNL     1      -2.850  11.638  18.408  0.00  0.00    +0.000 A 
ATOM     22  N   UNL     1      -3.040  12.111  19.625  0.00  0.00    +0.000 NA
ATOM     23  C   UNL     1      -4.397  12.279  19.771  0.00  0.00    +0.000 A 
ATOM     24  C   UNL     1      -5.138  12.713  20.884  0.00  0.00    +0.000 A 
ATOM     25  C   UNL     1      -6.533  12.809  20.780  0.00  0.00    +0.000 A 
ATOM     26  C   UNL     1      -7.181  12.491  19.587  0.00  0.00    +0.000 A 
ATOM     27  C   UNL     1      -6.460  12.062  18.467  0.00  0.00    +0.000 A 
ATOM     28  C   UNL     1      -5.066  11.959  18.596  0.00  0.00    +0.000 A 
ATOM     29  N   UNL     1      -4.059  11.578  17.733  0.00  0.00    +0.000 N 
ATOM     30  C   UNL     1      -4.261  11.279  16.337  0.00  0.00    +0.000 C 
ENDBRANCH  18  19
ENDBRANCH  17  18
ENDBRANCH   2  17
TORSDOF 6
ENDMDL
MODEL 5
REMARK VINA RESULT:      -6.9      2.564      3.245
REMARK  Name = 
REMARK  10 active torsions:
REMARK  status: ('A' for Active; 'I' for Inactive)
REMARK    1  A    between atoms: C_1  and  N_2
REMARK    2  A    between atoms: N_2  and  C_3
REMARK    3  A    between atoms: C_3  and  C_4
REMARK    4  A    between atoms: C_4  and  N_5
REMARK    5  A    between atoms: N_5  and  C_6
REMARK    6  A    between atoms: N_15  and  C_16
REMARK    7  A    between atoms: C_17  and  C_19
REMARK    8  A    between atoms: C_22  and  N_23
REMARK    9  A    between atoms: N_23  and  S_24
REMARK   10  A    between atoms: S_24  and  C_25
REMARK                            x       y       z     vdW  Elec       q    Type
REMARK                         _______ _______ _______ _____ _____    ______ ____
ROOT
ATOM      1  C   UNL     1       1.948   3.724  21.718  0.00  0.00    +0.000 C 
ATOM      2  N   UNL     1       2.403   4.327  20.472  0.00  0.00    +0.000 N 
ATOM      3  C   UNL     1       3.413   3.613  19.794  0.00  0.00    +0.000 C 
ATOM      4  O   UNL     1       3.771   2.495  20.170  0.00  0.00    +0.000 OA
ENDROOT
BRANCH   3   5
ATOM      5  C   UNL     1       4.088   4.164  18.573  0.00  0.00    +0.000 A 
ATOM      6  C   UNL     1       3.798   3.720  17.281  0.00  0.00    +0.000 A 
ATOM      7  C   UNL     1       4.469   4.232  16.172  0.00  0.00    +0.000 A 
ATOM      8  C   UNL     1       5.375   5.273  16.332  0.00  0.00    +0.000 A 
ATOM      9  C   UNL     1       5.610   5.805  17.598  0.00  0.00    +0.000 A 
ATOM     10  C   UNL     1       4.978   5.241  18.720  0.00  0.00    +0.000 A 
BRANCH   8  11
ATOM     11  N   UNL     1       5.968   5.826  15.163  0.00  0.00    +0.000 N 
ATOM     12  H   UNL     1       5.329   6.201  14.460  0.00  0.00    +0.000 HD
BRANCH  11  13
ATOM     13  S   UNL     1       7.201   4.940  14.420  0.00  0.00    +0.000 S 
ATOM     14  C   UNL     1       6.279   3.774  13.438  0.00  0.00    +0.000 C 
ATOM     15  O   UNL     1       7.971   5.797  13.547  0.00  0.00    +0.000 OA
ATOM     16  O   UNL     1       7.835   4.200  15.491  0.00  0.00    +0.000 OA
ENDBRANCH  11  13
ENDBRANCH   8  11
ENDBRANCH   3   5
BRANCH   2  17
ATOM     17  C   UNL     1       1.844   5.616  20.016  0.00  0.00    +0.000 C 
BRANCH  17  18
ATOM     18  C   UNL     1       2.354   6.939  20.610  0.00  0.00    +0.000 C 
BRANCH  18  19
ATOM     19  N   UNL     1       1.869   8.112  19.824  0.00  0.00    +0.000 N 
ATOM     20  C   UNL     1       1.337   7.710  18.516  0.00  0.00    +0.000 C 
ATOM     21  C   UNL     1       1.100   9.020  20.518  0.00  0.00    +0.000 A 
ATOM     22  N   UNL     1       0.505   8.822  21.678  0.00  0.00    +0.000 NA
ATOM     23  C   UNL     1      -0.175   9.982  21.971  0.00  0.00    +0.000 A 
ATOM     24  C   UNL     1      -1.005  10.290  23.063  0.00  0.00    +0.000 A 
ATOM     25  C   UNL     1      -1.586  11.565  23.139  0.00  0.00    +0.000 A 
ATOM     26  C   UNL     1      -1.338  12.521  22.155  0.00  0.00    +0.000 A 
ATOM     27  C   UNL     1      -0.510  12.233  21.064  0.00  0.00    +0.000 A 
ATOM     28  C   UNL     1       0.050  10.948  20.998  0.00  0.00    +0.000 A 
ATOM     29  N   UNL     1       0.886  10.323  20.095  0.00  0.00    +0.000 N 
ATOM     30  C   UNL     1       1.501  10.983  18.970  0.00  0.00    +0.000 C 
ENDBRANCH  18  19
ENDBRANCH  17  18
ENDBRANCH   2  17
TORSDOF 6
ENDMDL
MODEL 6
REMARK VINA RESULT:      -6.8      3.401      5.403
REMARK  Name = 
REMARK  10 active torsions:
REMARK  status: ('A' for Active; 'I' for Inactive)
REMARK    1  A    between atoms: C_1  and  N_2
REMARK    2  A    between atoms: N_2  and  C_3
REMARK    3  A    between atoms: C_3  and  C_4
REMARK    4  A    between atoms: C_4  and  N_5
REMARK    5  A    between atoms: N_5  and  C_6
REMARK    6  A    between atoms: N_15  and  C_16
REMARK    7  A    between atoms: C_17  and  C_19
REMARK    8  A    between atoms: C_22  and  N_23
REMARK    9  A    between atoms: N_23  and  S_24
REMARK   10  A    between atoms: S_24  and  C_25
REMARK                            x       y       z     vdW  Elec       q    Type
REMARK                         _______ _______ _______ _____ _____    ______ ____
ROOT
ATOM      1  C   UNL     1      -0.954  12.879  18.361  0.00  0.00    +0.000 C 
ATOM      2  N   UNL     1       0.110  11.915  18.610  0.00  0.00    +0.000 N 
ATOM      3  C   UNL     1      -0.249  10.563  18.424  0.00  0.00    +0.000 C 
ATOM      4  O   UNL     1      -1.344  10.249  17.951  0.00  0.00    +0.000 OA
ENDROOT
BRANCH   3   5
ATOM      5  C   UNL     1       0.684   9.442  18.770  0.00  0.00    +0.000 A 
ATOM      6  C   UNL     1       1.609   8.917  17.864  0.00  0.00    +0.000 A 
ATOM      7  C   UNL     1       2.438   7.852  18.212  0.00  0.00    +0.000 A 
ATOM      8  C   UNL     1       2.423   7.359  19.510  0.00  0.00    +0.000 A 
ATOM      9  C   UNL     1       1.582   7.929  20.463  0.00  0.00    +0.000 A 
ATOM     10  C   UNL     1       0.703   8.960  20.090  0.00  0.00    +0.000 A 
BRANCH   8  11
ATOM     11  N   UNL     1       3.350   6.333  19.844  0.00  0.00    +0.000 N 
ATOM     12  H   UNL     1       4.308   6.456  19.509  0.00  0.00    +0.000 HD
BRANCH  11  13
ATOM     13  S   UNL     1       2.855   4.731  19.626  0.00  0.00    +0.000 S 
ATOM     14  C   UNL     1       2.173   4.334  21.223  0.00  0.00    +0.000 C 
ATOM     15  O   UNL     1       1.809   4.667  18.630  0.00  0.00    +0.000 OA
ATOM     16  O   UNL     1       4.079   3.972  19.476  0.00  0.00    +0.000 OA
ENDBRANCH  11  13
ENDBRANCH   8  11
ENDBRANCH   3   5
BRANCH   2  17
ATOM     17  C   UNL     1       1.441  12.369  19.062  0.00  0.00    +0.000 C 
BRANCH  17  18
ATOM     18  C   UNL     1       1.744  12.516  20.562  0.00  0.00    +0.000 C 
BRANCH  18  19
ATOM     19  N   UNL     1       1.187  13.789  21.108  0.00  0.00    +0.000 N 
ATOM     20  C   UNL     1       1.118  14.839  20.084  0.00  0.00    +0.000 C 
ATOM     21  C   UNL     1       0.063  13.661  21.894  0.00  0.00    +0.000 A 
ATOM     22  N   UNL     1      -0.732  12.611  21.965  0.00  0.00    +0.000 NA
ATOM     23  C   UNL     1      -1.737  12.940  22.845  0.00  0.00    +0.000 A 
ATOM     24  C   UNL     1      -2.863  12.201  23.246  0.00  0.00    +0.000 A 
ATOM     25  C   UNL     1      -3.751  12.762  24.176  0.00  0.00    +0.000 A 
ATOM     26  C   UNL     1      -3.519  14.030  24.707  0.00  0.00    +0.000 A 
ATOM     27  C   UNL     1      -2.400  14.778  24.323  0.00  0.00    +0.000 A 
ATOM     28  C   UNL     1      -1.532  14.206  23.381  0.00  0.00    +0.000 A 
ATOM     29  N   UNL     1      -0.365  14.636  22.782  0.00  0.00    +0.000 N 
ATOM     30  C   UNL     1       0.320  15.857  23.128  0.00  0.00    +0.000 C 
ENDBRANCH  18  19
ENDBRANCH  17  18
ENDBRANCH   2  17
TORSDOF 6
ENDMDL
MODEL 7
REMARK VINA RESULT:      -6.8      2.530      4.255
REMARK  Name = 
REMARK  10 active torsions:
REMARK  status: ('A' for Active; 'I' for Inactive)
REMARK    1  A    between atoms: C_1  and  N_2
REMARK    2  A    between atoms: N_2  and  C_3
REMARK    3  A    between atoms: C_3  and  C_4
REMARK    4  A    between atoms: C_4  and  N_5
REMARK    5  A    between atoms: N_5  and  C_6
REMARK    6  A    between atoms: N_15  and  C_16
REMARK    7  A    between atoms: C_17  and  C_19
REMARK    8  A    between atoms: C_22  and  N_23
REMARK    9  A    between atoms: N_23  and  S_24
REMARK   10  A    between atoms: S_24  and  C_25
REMARK                            x       y       z     vdW  Elec       q    Type
REMARK                         _______ _______ _______ _____ _____    ______ ____
ROOT
ATOM      1  C   UNL     1      -0.090  12.099  21.033  0.00  0.00    +0.000 C 
ATOM      2  N   UNL     1       0.126  10.877  20.270  0.00  0.00    +0.000 N 
ATOM      3  C   UNL     1       1.002   9.945  20.866  0.00  0.00    +0.000 C 
ATOM      4  O   UNL     1       1.433  10.109  22.010  0.00  0.00    +0.000 OA
ENDROOT
BRANCH   3   5
ATOM      5  C   UNL     1       1.439   8.702  20.151  0.00  0.00    +0.000 A 
ATOM      6  C   UNL     1       1.956   8.714  18.854  0.00  0.00    +0.000 A 
ATOM      7  C   UNL     1       2.322   7.533  18.209  0.00  0.00    +0.000 A 
ATOM      8  C   UNL     1       2.266   6.326  18.893  0.00  0.00    +0.000 A 
ATOM      9  C   UNL     1       1.851   6.296  20.222  0.00  0.00    +0.000 A 
ATOM     10  C   UNL     1       1.423   7.480  20.846  0.00  0.00    +0.000 A 
BRANCH   8  11
ATOM     11  N   UNL     1       2.735   5.160  18.226  0.00  0.00    +0.000 N 
ATOM     12  H   UNL     1       2.194   4.305  18.366  0.00  0.00    +0.000 HD
BRANCH  11  13
ATOM     13  S   UNL     1       4.391   4.827  18.307  0.00  0.00    +0.000 S 
ATOM     14  C   UNL     1       4.990   5.563  16.800  0.00  0.00    +0.000 C 
ATOM     15  O   UNL     1       4.979   5.507  19.439  0.00  0.00    +0.000 OA
ATOM     16  O   UNL     1       4.496   3.390  18.160  0.00  0.00    +0.000 OA
ENDBRANCH  11  13
ENDBRANCH   8  11
ENDBRANCH   3   5
BRANCH   2  17
ATOM     17  C   UNL     1      -0.518  10.692  18.954  0.00  0.00    +0.000 C 
BRANCH  17  18
ATOM     18  C   UNL     1      -1.253  11.859  18.277  0.00  0.00    +0.000 C 
BRANCH  18  19
ATOM     19  N   UNL     1      -2.653  11.485  17.914  0.00  0.00    +0.000 N 
ATOM     20  C   UNL     1      -2.755  10.075  17.517  0.00  0.00    +0.000 C 
ATOM     21  C   UNL     1      -3.631  11.924  18.778  0.00  0.00    +0.000 A 
ATOM     22  N   UNL     1      -3.456  12.359  20.011  0.00  0.00    +0.000 NA
ATOM     23  C   UNL     1      -4.706  12.656  20.502  0.00  0.00    +0.000 A 
ATOM     24  C   UNL     1      -5.090  13.113  21.775  0.00  0.00    +0.000 A 
ATOM     25  C   UNL     1      -6.448  13.354  22.031  0.00  0.00    +0.000 A 
ATOM     26  C   UNL     1      -7.406  13.156  21.039  0.00  0.00    +0.000 A 
ATOM     27  C   UNL     1      -7.041  12.708  19.764  0.00  0.00    +0.000 A 
ATOM     28  C   UNL     1      -5.680  12.458  19.531  0.00  0.00    +0.000 A 
ATOM     29  N   UNL     1      -4.971  12.017  18.432  0.00  0.00    +0.000 N 
ATOM     30  C   UNL     1      -5.549  11.803  17.129  0.00  0.00    +0.000 C 
ENDBRANCH  18  19
ENDBRANCH  17  18
ENDBRANCH   2  17
TORSDOF 6
ENDMDL
MODEL 8
REMARK VINA RESULT:      -6.7      2.362      3.832
REMARK  Name = 
REMARK  10 active torsions:
REMARK  status: ('A' for Active; 'I' for Inactive)
REMARK    1  A    between atoms: C_1  and  N_2
REMARK    2  A    between atoms: N_2  and  C_3
REMARK    3  A    between atoms: C_3  and  C_4
REMARK    4  A    between atoms: C_4  and  N_5
REMARK    5  A    between atoms: N_5  and  C_6
REMARK    6  A    between atoms: N_15  and  C_16
REMARK    7  A    between atoms: C_17  and  C_19
REMARK    8  A    between atoms: C_22  and  N_23
REMARK    9  A    between atoms: N_23  and  S_24
REMARK   10  A    between atoms: S_24  and  C_25
REMARK                            x       y       z     vdW  Elec       q    Type
REMARK                         _______ _______ _______ _____ _____    ______ ____
ROOT
ATOM      1  C   UNL     1      -0.039  11.374  21.609  0.00  0.00    +0.000 C 
ATOM      2  N   UNL     1       0.377  10.349  20.660  0.00  0.00    +0.000 N 
ATOM      3  C   UNL     1       0.939   9.190  21.237  0.00  0.00    +0.000 C 
ATOM      4  O   UNL     1       0.941   9.017  22.457  0.00  0.00    +0.000 OA
ENDROOT
BRANCH   3   5
ATOM      5  C   UNL     1       1.542   8.103  20.398  0.00  0.00    +0.000 A 
ATOM      6  C   UNL     1       1.531   6.758  20.776  0.00  0.00    +0.000 A 
ATOM      7  C   UNL     1       2.131   5.779  19.987  0.00  0.00    +0.000 A 
ATOM      8  C   UNL     1       2.667   6.120  18.751  0.00  0.00    +0.000 A 
ATOM      9  C   UNL     1       2.603   7.437  18.302  0.00  0.00    +0.000 A 
ATOM     10  C   UNL     1       2.054   8.430  19.131  0.00  0.00    +0.000 A 
BRANCH   8  11
ATOM     11  N   UNL     1       3.187   5.074  17.939  0.00  0.00    +0.000 N 
ATOM     12  H   UNL     1       2.544   4.316  17.704  0.00  0.00    +0.000 HD
BRANCH  11  13
ATOM     13  S   UNL     1       4.704   4.449  18.348  0.00  0.00    +0.000 S 
ATOM     14  C   UNL     1       4.267   3.002  19.291  0.00  0.00    +0.000 C 
ATOM     15  O   UNL     1       5.413   4.046  17.154  0.00  0.00    +0.000 OA
ATOM     16  O   UNL     1       5.275   5.411  19.269  0.00  0.00    +0.000 OA
ENDBRANCH  11  13
ENDBRANCH   8  11
ENDBRANCH   3   5
BRANCH   2  17
ATOM     17  C   UNL     1       0.236  10.573  19.207  0.00  0.00    +0.000 C 
BRANCH  17  18
ATOM     18  C   UNL     1      -0.596  11.752  18.678  0.00  0.00    +0.000 C 
BRANCH  18  19
ATOM     19  N   UNL     1      -1.834  11.279  17.989  0.00  0.00    +0.000 N 
ATOM     20  C   UNL     1      -1.764   9.850  17.661  0.00  0.00    +0.000 C 
ATOM     21  C   UNL     1      -3.023  11.697  18.544  0.00  0.00    +0.000 A 
ATOM     22  N   UNL     1      -3.196  12.196  19.752  0.00  0.00    +0.000 NA
ATOM     23  C   UNL     1      -4.543  12.439  19.886  0.00  0.00    +0.000 A 
ATOM     24  C   UNL     1      -5.267  12.928  20.988  0.00  0.00    +0.000 A 
ATOM     25  C   UNL     1      -6.654  13.099  20.870  0.00  0.00    +0.000 A 
ATOM     26  C   UNL     1      -7.310  12.801  19.677  0.00  0.00    +0.000 A 
ATOM     27  C   UNL     1      -6.605  12.319  18.568  0.00  0.00    +0.000 A 
ATOM     28  C   UNL     1      -5.220  12.141  18.710  0.00  0.00    +0.000 A 
ATOM     29  N   UNL     1      -4.229  11.695  17.859  0.00  0.00    +0.000 N 
ATOM     30  C   UNL     1      -4.436  11.390  16.465  0.00  0.00    +0.000 C 
ENDBRANCH  18  19
ENDBRANCH  17  18
ENDBRANCH   2  17
TORSDOF 6
ENDMDL
MODEL 9
REMARK VINA RESULT:      -6.7      2.662      3.471
REMARK  Name = 
REMARK  10 active torsions:
REMARK  status: ('A' for Active; 'I' for Inactive)
REMARK    1  A    between atoms: C_1  and  N_2
REMARK    2  A    between atoms: N_2  and  C_3
REMARK    3  A    between atoms: C_3  and  C_4
REMARK    4  A    between atoms: C_4  and  N_5
REMARK    5  A    between atoms: N_5  and  C_6
REMARK    6  A    between atoms: N_15  and  C_16
REMARK    7  A    between atoms: C_17  and  C_19
REMARK    8  A    between atoms: C_22  and  N_23
REMARK    9  A    between atoms: N_23  and  S_24
REMARK   10  A    between atoms: S_24  and  C_25
REMARK                            x       y       z     vdW  Elec       q    Type
REMARK                         _______ _______ _______ _____ _____    ______ ____
ROOT
ATOM      1  C   UNL     1       1.491   3.503  21.236  0.00  0.00    +0.000 C 
ATOM      2  N   UNL     1       2.331   3.979  20.144  0.00  0.00    +0.000 N 
ATOM      3  C   UNL     1       3.440   3.161  19.840  0.00  0.00    +0.000 C 
ATOM      4  O   UNL     1       3.592   2.061  20.375  0.00  0.00    +0.000 OA
ENDROOT
BRANCH   3   5
ATOM      5  C   UNL     1       4.477   3.576  18.839  0.00  0.00    +0.000 A 
ATOM      6  C   UNL     1       4.344   3.344  17.468  0.00  0.00    +0.000 A 
ATOM      7  C   UNL     1       5.344   3.714  16.571  0.00  0.00    +0.000 A 
ATOM      8  C   UNL     1       6.455   4.415  17.024  0.00  0.00    +0.000 A 
ATOM      9  C   UNL     1       6.566   4.749  18.372  0.00  0.00    +0.000 A 
ATOM     10  C   UNL     1       5.586   4.317  19.281  0.00  0.00    +0.000 A 
BRANCH   8  11
ATOM     11  N   UNL     1       7.406   4.852  16.060  0.00  0.00    +0.000 N 
ATOM     12  H   UNL     1       7.973   5.663  16.314  0.00  0.00    +0.000 HD
BRANCH  11  13
ATOM     13  S   UNL     1       6.889   4.977  14.456  0.00  0.00    +0.000 S 
ATOM     14  C   UNL     1       5.464   6.035  14.608  0.00  0.00    +0.000 C 
ATOM     15  O   UNL     1       7.896   5.642  13.660  0.00  0.00    +0.000 OA
ATOM     16  O   UNL     1       6.412   3.655  14.107  0.00  0.00    +0.000 OA
ENDBRANCH  11  13
ENDBRANCH   8  11
ENDBRANCH   3   5
BRANCH   2  17
ATOM     17  C   UNL     1       2.022   5.252  19.462  0.00  0.00    +0.000 C 
BRANCH  17  18
ATOM     18  C   UNL     1       2.848   6.514  19.760  0.00  0.00    +0.000 C 
BRANCH  18  19
ATOM     19  N   UNL     1       2.232   7.727  19.144  0.00  0.00    +0.000 N 
ATOM     20  C   UNL     1       1.593   7.420  17.858  0.00  0.00    +0.000 C 
ATOM     21  C   UNL     1       1.493   8.519  19.994  0.00  0.00    +0.000 A 
ATOM     22  N   UNL     1       1.026   8.179  21.179  0.00  0.00    +0.000 NA
ATOM     23  C   UNL     1       0.323   9.265  21.648  0.00  0.00    +0.000 A 
ATOM     24  C   UNL     1      -0.408   9.421  22.838  0.00  0.00    +0.000 A 
ATOM     25  C   UNL     1      -1.038  10.647  23.096  0.00  0.00    +0.000 A 
ATOM     26  C   UNL     1      -0.935  11.705  22.193  0.00  0.00    +0.000 A 
ATOM     27  C   UNL     1      -0.206  11.569  21.006  0.00  0.00    +0.000 A 
ATOM     28  C   UNL     1       0.404  10.330  20.759  0.00  0.00    +0.000 A 
ATOM     29  N   UNL     1       1.177   9.842  19.725  0.00  0.00    +0.000 N 
ATOM     30  C   UNL     1       1.644  10.639  18.618  0.00  0.00    +0.000 C 
ENDBRANCH  18  19
ENDBRANCH  17  18
ENDBRANCH   2  17
TORSDOF 6
ENDMDL
