MODEL 1
REMARK VINA RESULT:      -7.9      0.000      0.000
REMARK  Name = 
REMARK  3 active torsions:
REMARK  status: ('A' for Active; 'I' for Inactive)
REMARK    1  A    between atoms: C_1  and  C_2
REMARK    2  A    between atoms: C_3  and  C_4
REMARK    3  A    between atoms: N_9  and  C_10
REMARK                            x       y       z     vdW  Elec       q    Type
REMARK                         _______ _______ _______ _____ _____    ______ ____
ROOT
ATOM      1  C   UNL     1      -1.557  10.139  17.911  0.00  0.00    +0.000 C 
ATOM      2  C   UNL     1      -0.625  10.648  18.952  0.00  0.00    +0.000 A 
ATOM      3  C   UNL     1       0.716  10.379  19.176  0.00  0.00    +0.000 A 
ATOM      4  C   UNL     1       1.036  11.129  20.320  0.00  0.00    +0.000 A 
ATOM      5  N   UNL     1      -0.008  11.773  20.834  0.00  0.00    +0.000 NA
ATOM      6  N   UNL     1      -1.030  11.500  19.970  0.00  0.00    +0.000 N 
ATOM      7  C   UNL     1      -2.311  12.054  20.214  0.00  0.00    +0.000 A 
ATOM      8  N   UNL     1      -3.277  12.028  19.351  0.00  0.00    +0.000 NA
ATOM      9  N   UNL     1      -4.414  12.581  19.820  0.00  0.00    +0.000 N 
ATOM     10  C   UNL     1      -5.510  12.919  19.078  0.00  0.00    +0.000 A 
ATOM     11  C   UNL     1      -6.487  13.378  19.938  0.00  0.00    +0.000 A 
ATOM     12  C   UNL     1      -5.956  13.322  21.249  0.00  0.00    +0.000 A 
ATOM     13  C   UNL     1      -4.655  12.894  21.128  0.00  0.00    +0.000 A 
ATOM     14  C   UNL     1      -3.609  12.752  22.082  0.00  0.00    +0.000 A 
ATOM     15  O   UNL     1      -3.754  12.717  23.294  0.00  0.00    +0.000 OA
ATOM     16  N   UNL     1      -2.388  12.588  21.479  0.00  0.00    +0.000 N 
ATOM     17  H   UNL     1      -1.780  13.388  21.604  0.00  0.00    +0.000 HD
ENDROOT
BRANCH   3  18
ATOM     18  C   UNL     1       1.614   9.558  18.350  0.00  0.00    +0.000 C 
ATOM     19  O   UNL     1       2.003   9.973  17.259  0.00  0.00    +0.000 OA
ATOM     20  N   UNL     1       1.995   8.323  18.866  0.00  0.00    +0.000 N 
ATOM     21  C   UNL     1       2.992   7.540  18.127  0.00  0.00    +0.000 C 
ATOM     22  C   UNL     1       3.707   6.468  19.002  0.00  0.00    +0.000 C 
ATOM     23  N   UNL     1       2.837   5.664  19.896  0.00  0.00    +0.000 NA
ATOM     24  C   UNL     1       1.975   6.611  20.646  0.00  0.00    +0.000 C 
ATOM     25  C   UNL     1       1.130   7.512  19.731  0.00  0.00    +0.000 C 
BRANCH  23  26
ATOM     26  C   UNL     1       2.046   4.647  19.187  0.00  0.00    +0.000 C 
ATOM     27  C   UNL     1       1.482   3.540  20.123  0.00  0.00    +0.000 C 
ATOM     28  C   UNL     1       1.871   2.235  19.414  0.00  0.00    +0.000 C 
ATOM     29  C   UNL     1       3.385   2.025  19.590  0.00  0.00    +0.000 C 
ATOM     30  C   UNL     1       3.989   3.060  18.632  0.00  0.00    +0.000 C 
ATOM     31  C   UNL     1       2.755   3.797  18.092  0.00  0.00    +0.000 C 
ATOM     32  C   UNL     1       1.764   2.633  17.945  0.00  0.00    +0.000 C 
ENDBRANCH  23  26
ENDBRANCH   3  18
TORSDOF 2
ENDMDL
MODEL 2
REMARK VINA RESULT:      -7.8      0.851      1.075
REMARK  Name = 
REMARK  3 active torsions:
REMARK  status: ('A' for Active; 'I' for Inactive)
REMARK    1  A    between atoms: C_1  and  C_2
REMARK    2  A    between atoms: C_3  and  C_4
REMARK    3  A    between atoms: N_9  and  C_10
REMARK                            x       y       z     vdW  Elec       q    Type
REMARK                         _______ _______ _______ _____ _____    ______ ____
ROOT
ATOM      1  C   UNL     1      -1.417  10.501  18.269  0.00  0.00    +0.000 C 
ATOM      2  C   UNL     1      -0.483  10.562  19.424  0.00  0.00    +0.000 A 
ATOM      3  C   UNL     1       0.774  10.005  19.600  0.00  0.00    +0.000 A 
ATOM      4  C   UNL     1       1.143  10.384  20.903  0.00  0.00    +0.000 A 
ATOM      5  N   UNL     1       0.195  11.063  21.540  0.00  0.00    +0.000 NA
ATOM      6  N   UNL     1      -0.800  11.200  20.614  0.00  0.00    +0.000 N 
ATOM      7  C   UNL     1      -1.979  11.904  20.963  0.00  0.00    +0.000 A 
ATOM      8  N   UNL     1      -2.877  12.266  20.101  0.00  0.00    +0.000 NA
ATOM      9  N   UNL     1      -3.930  12.887  20.670  0.00  0.00    +0.000 N 
ATOM     10  C   UNL     1      -4.900  13.590  20.014  0.00  0.00    +0.000 A 
ATOM     11  C   UNL     1      -5.838  13.998  20.941  0.00  0.00    +0.000 A 
ATOM     12  C   UNL     1      -5.412  13.529  22.207  0.00  0.00    +0.000 A 
ATOM     13  C   UNL     1      -4.199  12.912  22.009  0.00  0.00    +0.000 A 
ATOM     14  C   UNL     1      -3.258  12.354  22.919  0.00  0.00    +0.000 A 
ATOM     15  O   UNL     1      -3.485  12.052  24.080  0.00  0.00    +0.000 OA
ATOM     16  N   UNL     1      -2.046  12.120  22.320  0.00  0.00    +0.000 N 
ATOM     17  H   UNL     1      -1.319  12.740  22.654  0.00  0.00    +0.000 HD
ENDROOT
BRANCH   3  18
ATOM     18  C   UNL     1       1.570   9.259  18.614  0.00  0.00    +0.000 C 
ATOM     19  O   UNL     1       1.740   9.715  17.484  0.00  0.00    +0.000 OA
ATOM     20  N   UNL     1       2.111   8.046  19.027  0.00  0.00    +0.000 N 
ATOM     21  C   UNL     1       3.017   7.342  18.109  0.00  0.00    +0.000 C 
ATOM     22  C   UNL     1       3.937   6.309  18.824  0.00  0.00    +0.000 C 
ATOM     23  N   UNL     1       3.286   5.435  19.830  0.00  0.00    +0.000 NA
ATOM     24  C   UNL     1       2.505   6.311  20.739  0.00  0.00    +0.000 C 
ATOM     25  C   UNL     1       1.461   7.165  20.004  0.00  0.00    +0.000 C 
BRANCH  23  26
ATOM     26  C   UNL     1       2.453   4.377  19.239  0.00  0.00    +0.000 C 
ATOM     27  C   UNL     1       1.021   4.307  19.844  0.00  0.00    +0.000 C 
ATOM     28  C   UNL     1       0.844   2.820  20.180  0.00  0.00    +0.000 C 
ATOM     29  C   UNL     1       1.702   2.501  21.417  0.00  0.00    +0.000 C 
ATOM     30  C   UNL     1       3.129   2.497  20.854  0.00  0.00    +0.000 C 
ATOM     31  C   UNL     1       2.926   2.901  19.387  0.00  0.00    +0.000 C 
ATOM     32  C   UNL     1       1.629   2.149  19.057  0.00  0.00    +0.000 C 
ENDBRANCH  23  26
ENDBRANCH   3  18
TORSDOF 2
ENDMDL
MODEL 3
REMARK VINA RESULT:      -7.7      2.402      2.845
REMARK  Name = 
REMARK  3 active torsions:
REMARK  status: ('A' for Active; 'I' for Inactive)
REMARK    1  A    between atoms: C_1  and  C_2
REMARK    2  A    between atoms: C_3  and  C_4
REMARK    3  A    between atoms: N_9  and  C_10
REMARK                            x       y       z     vdW  Elec       q    Type
REMARK                         _______ _______ _______ _____ _____    ______ ____
ROOT
ATOM      1  C   UNL     1       1.272  12.145  19.392  0.00  0.00    +0.000 C 
ATOM      2  C   UNL     1       0.878  10.849  20.004  0.00  0.00    +0.000 A 
ATOM      3  C   UNL     1       1.091   9.547  19.579  0.00  0.00    +0.000 A 
ATOM      4  C   UNL     1       0.461   8.754  20.555  0.00  0.00    +0.000 A 
ATOM      5  N   UNL     1      -0.159   9.468  21.490  0.00  0.00    +0.000 NA
ATOM      6  N   UNL     1       0.125  10.764  21.166  0.00  0.00    +0.000 N 
ATOM      7  C   UNL     1      -0.377  11.808  21.982  0.00  0.00    +0.000 A 
ATOM      8  N   UNL     1       0.008  13.042  21.882  0.00  0.00    +0.000 NA
ATOM      9  N   UNL     1      -0.638  13.864  22.735  0.00  0.00    +0.000 N 
ATOM     10  C   UNL     1      -0.286  15.149  23.035  0.00  0.00    +0.000 A 
ATOM     11  C   UNL     1      -1.243  15.670  23.882  0.00  0.00    +0.000 A 
ATOM     12  C   UNL     1      -2.205  14.656  24.108  0.00  0.00    +0.000 A 
ATOM     13  C   UNL     1      -1.760  13.538  23.442  0.00  0.00    +0.000 A 
ATOM     14  C   UNL     1      -2.250  12.202  23.397  0.00  0.00    +0.000 A 
ATOM     15  O   UNL     1      -3.368  11.844  23.732  0.00  0.00    +0.000 OA
ATOM     16  N   UNL     1      -1.329  11.340  22.857  0.00  0.00    +0.000 N 
ATOM     17  H   UNL     1      -0.950  10.697  23.541  0.00  0.00    +0.000 HD
ENDROOT
BRANCH   3  18
ATOM     18  C   UNL     1       1.870   9.101  18.414  0.00  0.00    +0.000 C 
ATOM     19  O   UNL     1       1.899   9.784  17.392  0.00  0.00    +0.000 OA
ATOM     20  N   UNL     1       2.559   7.898  18.538  0.00  0.00    +0.000 N 
ATOM     21  C   UNL     1       3.449   7.492  17.443  0.00  0.00    +0.000 C 
ATOM     22  C   UNL     1       4.522   6.450  17.875  0.00  0.00    +0.000 C 
ATOM     23  N   UNL     1       4.045   5.329  18.722  0.00  0.00    +0.000 NA
ATOM     24  C   UNL     1       3.261   5.918  19.836  0.00  0.00    +0.000 C 
ATOM     25  C   UNL     1       2.081   6.777  19.356  0.00  0.00    +0.000 C 
BRANCH  23  26
ATOM     26  C   UNL     1       3.272   4.320  17.982  0.00  0.00    +0.000 C 
ATOM     27  C   UNL     1       1.791   4.212  18.447  0.00  0.00    +0.000 C 
ATOM     28  C   UNL     1       1.589   2.705  18.658  0.00  0.00    +0.000 C 
ATOM     29  C   UNL     1       2.331   2.294  19.941  0.00  0.00    +0.000 C 
ATOM     30  C   UNL     1       3.804   2.325  19.511  0.00  0.00    +0.000 C 
ATOM     31  C   UNL     1       3.734   2.835  18.065  0.00  0.00    +0.000 C 
ATOM     32  C   UNL     1       2.474   2.114  17.565  0.00  0.00    +0.000 C 
ENDBRANCH  23  26
ENDBRANCH   3  18
TORSDOF 2
ENDMDL
MODEL 4
REMARK VINA RESULT:      -7.5      1.321      1.545
REMARK  Name = 
REMARK  3 active torsions:
REMARK  status: ('A' for Active; 'I' for Inactive)
REMARK    1  A    between atoms: C_1  and  C_2
REMARK    2  A    between atoms: C_3  and  C_4
REMARK    3  A    between atoms: N_9  and  C_10
REMARK                            x       y       z     vdW  Elec       q    Type
REMARK                         _______ _______ _______ _____ _____    ______ ____
ROOT
ATOM      1  C   UNL     1      -2.051  11.472  19.099  0.00  0.00    +0.000 C 
ATOM      2  C   UNL     1      -1.137  11.289  20.257  0.00  0.00    +0.000 A 
ATOM      3  C   UNL     1       0.079  10.629  20.354  0.00  0.00    +0.000 A 
ATOM      4  C   UNL     1       0.446  10.773  21.704  0.00  0.00    +0.000 A 
ATOM      5  N   UNL     1      -0.470  11.405  22.432  0.00  0.00    +0.000 NA
ATOM      6  N   UNL     1      -1.436  11.751  21.531  0.00  0.00    +0.000 N 
ATOM      7  C   UNL     1      -2.574  12.467  21.976  0.00  0.00    +0.000 A 
ATOM      8  N   UNL     1      -3.430  13.019  21.174  0.00  0.00    +0.000 NA
ATOM      9  N   UNL     1      -4.452  13.611  21.824  0.00  0.00    +0.000 N 
ATOM     10  C   UNL     1      -5.363  14.471  21.279  0.00  0.00    +0.000 A 
ATOM     11  C   UNL     1      -6.290  14.789  22.251  0.00  0.00    +0.000 A 
ATOM     12  C   UNL     1      -5.919  14.100  23.431  0.00  0.00    +0.000 A 
ATOM     13  C   UNL     1      -4.744  13.442  23.149  0.00  0.00    +0.000 A 
ATOM     14  C   UNL     1      -3.858  12.687  23.967  0.00  0.00    +0.000 A 
ATOM     15  O   UNL     1      -4.127  12.223  25.063  0.00  0.00    +0.000 OA
ATOM     16  N   UNL     1      -2.653  12.471  23.349  0.00  0.00    +0.000 N 
ATOM     17  H   UNL     1      -1.894  12.982  23.784  0.00  0.00    +0.000 HD
ENDROOT
BRANCH   3  18
ATOM     18  C   UNL     1       0.844   9.997  19.270  0.00  0.00    +0.000 C 
ATOM     19  O   UNL     1       0.988  10.577  18.195  0.00  0.00    +0.000 OA
ATOM     20  N   UNL     1       1.387   8.742  19.528  0.00  0.00    +0.000 N 
ATOM     21  C   UNL     1       2.264   8.143  18.514  0.00  0.00    +0.000 C 
ATOM     22  C   UNL     1       3.195   7.032  19.083  0.00  0.00    +0.000 C 
ATOM     23  N   UNL     1       2.563   6.052  20.000  0.00  0.00    +0.000 NA
ATOM     24  C   UNL     1       1.811   6.822  21.022  0.00  0.00    +0.000 C 
ATOM     25  C   UNL     1       0.755   7.758  20.416  0.00  0.00    +0.000 C 
BRANCH  23  26
ATOM     26  C   UNL     1       1.708   5.071  19.314  0.00  0.00    +0.000 C 
ATOM     27  C   UNL     1       1.039   4.052  20.281  0.00  0.00    +0.000 C 
ATOM     28  C   UNL     1       1.337   2.693  19.634  0.00  0.00    +0.000 C 
ATOM     29  C   UNL     1       2.826   2.372  19.852  0.00  0.00    +0.000 C 
ATOM     30  C   UNL     1       3.529   3.316  18.867  0.00  0.00    +0.000 C 
ATOM     31  C   UNL     1       2.368   4.124  18.270  0.00  0.00    +0.000 C 
ATOM     32  C   UNL     1       1.292   3.036  18.148  0.00  0.00    +0.000 C 
ENDBRANCH  23  26
ENDBRANCH   3  18
TORSDOF 2
ENDMDL
MODEL 5
REMARK VINA RESULT:      -7.5      1.959      9.665
REMARK  Name = 
REMARK  3 active torsions:
REMARK  status: ('A' for Active; 'I' for Inactive)
REMARK    1  A    between atoms: C_1  and  C_2
REMARK    2  A    between atoms: C_3  and  C_4
REMARK    3  A    between atoms: N_9  and  C_10
REMARK                            x       y       z     vdW  Elec       q    Type
REMARK                         _______ _______ _______ _____ _____    ______ ____
ROOT
ATOM      1  C   UNL     1       1.035   7.535  21.182  0.00  0.00    +0.000 C 
ATOM      2  C   UNL     1       1.514   8.154  19.919  0.00  0.00    +0.000 A 
ATOM      3  C   UNL     1       1.285   9.412  19.384  0.00  0.00    +0.000 A 
ATOM      4  C   UNL     1       1.975   9.401  18.159  0.00  0.00    +0.000 A 
ATOM      5  N   UNL     1       2.544   8.230  17.888  0.00  0.00    +0.000 NA
ATOM      6  N   UNL     1       2.285   7.468  18.991  0.00  0.00    +0.000 N 
ATOM      7  C   UNL     1       2.772   6.138  19.044  0.00  0.00    +0.000 A 
ATOM      8  N   UNL     1       2.761   5.416  20.121  0.00  0.00    +0.000 NA
ATOM      9  N   UNL     1       3.239   4.170  19.921  0.00  0.00    +0.000 N 
ATOM     10  C   UNL     1       3.578   3.273  20.893  0.00  0.00    +0.000 A 
ATOM     11  C   UNL     1       3.944   2.092  20.280  0.00  0.00    +0.000 A 
ATOM     12  C   UNL     1       3.829   2.288  18.883  0.00  0.00    +0.000 A 
ATOM     13  C   UNL     1       3.460   3.600  18.699  0.00  0.00    +0.000 A 
ATOM     14  C   UNL     1       3.302   4.386  17.524  0.00  0.00    +0.000 A 
ATOM     15  O   UNL     1       3.186   3.951  16.389  0.00  0.00    +0.000 OA
ATOM     16  N   UNL     1       3.223   5.725  17.813  0.00  0.00    +0.000 N 
ATOM     17  H   UNL     1       4.038   6.240  17.501  0.00  0.00    +0.000 HD
ENDROOT
BRANCH   3  18
ATOM     18  C   UNL     1       0.553  10.528  20.001  0.00  0.00    +0.000 C 
ATOM     19  O   UNL     1       0.981  11.057  21.026  0.00  0.00    +0.000 OA
ATOM     20  N   UNL     1      -0.615  10.944  19.370  0.00  0.00    +0.000 N 
ATOM     21  C   UNL     1      -1.297  12.137  19.887  0.00  0.00    +0.000 C 
ATOM     22  C   UNL     1      -2.254  12.798  18.851  0.00  0.00    +0.000 C 
ATOM     23  N   UNL     1      -3.130  11.877  18.086  0.00  0.00    +0.000 NA
ATOM     24  C   UNL     1      -2.270  10.796  17.543  0.00  0.00    +0.000 C 
ATOM     25  C   UNL     1      -1.499  10.034  18.631  0.00  0.00    +0.000 C 
BRANCH  23  26
ATOM     26  C   UNL     1      -4.251  11.342  18.874  0.00  0.00    +0.000 C 
ATOM     27  C   UNL     1      -5.198  10.419  18.054  0.00  0.00    +0.000 C 
ATOM     28  C   UNL     1      -6.596  10.968  18.368  0.00  0.00    +0.000 C 
ATOM     29  C   UNL     1      -6.768  12.303  17.623  0.00  0.00    +0.000 C 
ATOM     30  C   UNL     1      -5.896  13.266  18.439  0.00  0.00    +0.000 C 
ATOM     31  C   UNL     1      -5.260  12.351  19.495  0.00  0.00    +0.000 C 
ATOM     32  C   UNL     1      -6.437  11.419  19.817  0.00  0.00    +0.000 C 
ENDBRANCH  23  26
ENDBRANCH   3  18
TORSDOF 2
ENDMDL
MODEL 6
REMARK VINA RESULT:      -7.5      6.964      8.897
REMARK  Name = 
REMARK  3 active torsions:
REMARK  status: ('A' for Active; 'I' for Inactive)
REMARK    1  A    between atoms: C_1  and  C_2
REMARK    2  A    between atoms: C_3  and  C_4
REMARK    3  A    between atoms: N_9  and  C_10
REMARK                            x       y       z     vdW  Elec       q    Type
REMARK                         _______ _______ _______ _____ _____    ______ ____
ROOT
ATOM      1  C   UNL     1       3.463  14.911  17.765  0.00  0.00    +0.000 C 
ATOM      2  C   UNL     1       3.711  15.008  19.228  0.00  0.00    +0.000 A 
ATOM      3  C   UNL     1       4.737  15.621  19.932  0.00  0.00    +0.000 A 
ATOM      4  C   UNL     1       4.445  15.347  21.280  0.00  0.00    +0.000 A 
ATOM      5  N   UNL     1       3.373  14.576  21.439  0.00  0.00    +0.000 NA
ATOM      6  N   UNL     1       2.901  14.392  20.170  0.00  0.00    +0.000 N 
ATOM      7  C   UNL     1       1.733  13.615  19.972  0.00  0.00    +0.000 A 
ATOM      8  N   UNL     1       1.095  13.559  18.845  0.00  0.00    +0.000 NA
ATOM      9  N   UNL     1       0.037  12.724  18.882  0.00  0.00    +0.000 N 
ATOM     10  C   UNL     1      -0.956  12.640  17.948  0.00  0.00    +0.000 A 
ATOM     11  C   UNL     1      -1.803  11.613  18.310  0.00  0.00    +0.000 A 
ATOM     12  C   UNL     1      -1.305  11.060  19.515  0.00  0.00    +0.000 A 
ATOM     13  C   UNL     1      -0.213  11.815  19.872  0.00  0.00    +0.000 A 
ATOM     14  C   UNL     1       0.616  11.799  21.029  0.00  0.00    +0.000 A 
ATOM     15  O   UNL     1       0.691  10.886  21.835  0.00  0.00    +0.000 OA
ATOM     16  N   UNL     1       1.396  12.924  21.112  0.00  0.00    +0.000 N 
ATOM     17  H   UNL     1       1.122  13.534  21.873  0.00  0.00    +0.000 HD
ENDROOT
BRANCH   3  18
ATOM     18  C   UNL     1       5.832  16.438  19.390  0.00  0.00    +0.000 C 
ATOM     19  O   UNL     1       5.592  17.529  18.875  0.00  0.00    +0.000 OA
ATOM     20  N   UNL     1       7.119  15.923  19.501  0.00  0.00    +0.000 N 
ATOM     21  C   UNL     1       8.245  16.772  19.088  0.00  0.00    +0.000 C 
ATOM     22  C   UNL     1       9.605  16.334  19.705  0.00  0.00    +0.000 C 
ATOM     23  N   UNL     1       9.897  14.879  19.685  0.00  0.00    +0.000 NA
ATOM     24  C   UNL     1       8.709  14.180  20.233  0.00  0.00    +0.000 C 
ATOM     25  C   UNL     1       7.418  14.486  19.458  0.00  0.00    +0.000 C 
BRANCH  23  26
ATOM     26  C   UNL     1      10.266  14.372  18.354  0.00  0.00    +0.000 C 
ATOM     27  C   UNL     1       9.583  13.020  17.997  0.00  0.00    +0.000 C 
ATOM     28  C   UNL     1      10.747  12.147  17.509  0.00  0.00    +0.000 C 
ATOM     29  C   UNL     1      11.587  11.737  18.731  0.00  0.00    +0.000 C 
ATOM     30  C   UNL     1      12.333  13.032  19.084  0.00  0.00    +0.000 C 
ATOM     31  C   UNL     1      11.764  14.046  18.081  0.00  0.00    +0.000 C 
ATOM     32  C   UNL     1      11.643  13.173  16.824  0.00  0.00    +0.000 C 
ENDBRANCH  23  26
ENDBRANCH   3  18
TORSDOF 2
ENDMDL
MODEL 7
REMARK VINA RESULT:      -7.4      1.091      1.126
REMARK  Name = 
REMARK  3 active torsions:
REMARK  status: ('A' for Active; 'I' for Inactive)
REMARK    1  A    between atoms: C_1  and  C_2
REMARK    2  A    between atoms: C_3  and  C_4
REMARK    3  A    between atoms: N_9  and  C_10
REMARK                            x       y       z     vdW  Elec       q    Type
REMARK                         _______ _______ _______ _____ _____    ______ ____
ROOT
ATOM      1  C   UNL     1      -1.180  11.453  18.319  0.00  0.00    +0.000 C 
ATOM      2  C   UNL     1      -0.373  11.117  19.522  0.00  0.00    +0.000 A 
ATOM      3  C   UNL     1       0.793  10.379  19.651  0.00  0.00    +0.000 A 
ATOM      4  C   UNL     1       1.058  10.385  21.032  0.00  0.00    +0.000 A 
ATOM      5  N   UNL     1       0.122  11.008  21.743  0.00  0.00    +0.000 NA
ATOM      6  N   UNL     1      -0.748  11.487  20.806  0.00  0.00    +0.000 N 
ATOM      7  C   UNL     1      -1.879  12.231  21.226  0.00  0.00    +0.000 A 
ATOM      8  N   UNL     1      -2.636  12.900  20.413  0.00  0.00    +0.000 NA
ATOM      9  N   UNL     1      -3.674  13.496  21.035  0.00  0.00    +0.000 N 
ATOM     10  C   UNL     1      -4.490  14.452  20.502  0.00  0.00    +0.000 A 
ATOM     11  C   UNL     1      -5.474  14.742  21.425  0.00  0.00    +0.000 A 
ATOM     12  C   UNL     1      -5.237  13.934  22.563  0.00  0.00    +0.000 A 
ATOM     13  C   UNL     1      -4.081  13.233  22.313  0.00  0.00    +0.000 A 
ATOM     14  C   UNL     1      -3.306  12.359  23.125  0.00  0.00    +0.000 A 
ATOM     15  O   UNL     1      -3.687  11.820  24.152  0.00  0.00    +0.000 OA
ATOM     16  N   UNL     1      -2.068  12.123  22.583  0.00  0.00    +0.000 N 
ATOM     17  H   UNL     1      -1.320  12.548  23.118  0.00  0.00    +0.000 HD
ENDROOT
BRANCH   3  18
ATOM     18  C   UNL     1       1.608   9.796  18.576  0.00  0.00    +0.000 C 
ATOM     19  O   UNL     1       1.801  10.424  17.536  0.00  0.00    +0.000 OA
ATOM     20  N   UNL     1       2.141   8.530  18.802  0.00  0.00    +0.000 N 
ATOM     21  C   UNL     1       3.064   7.978  17.803  0.00  0.00    +0.000 C 
ATOM     22  C   UNL     1       3.970   6.842  18.363  0.00  0.00    +0.000 C 
ATOM     23  N   UNL     1       3.298   5.822  19.206  0.00  0.00    +0.000 NA
ATOM     24  C   UNL     1       2.499   6.545  20.226  0.00  0.00    +0.000 C 
ATOM     25  C   UNL     1       1.470   7.509  19.615  0.00  0.00    +0.000 C 
BRANCH  23  26
ATOM     26  C   UNL     1       2.477   4.873  18.438  0.00  0.00    +0.000 C 
ATOM     27  C   UNL     1       1.746   3.827  19.329  0.00  0.00    +0.000 C 
ATOM     28  C   UNL     1       2.071   2.488  18.653  0.00  0.00    +0.000 C 
ATOM     29  C   UNL     1       3.543   2.147  18.945  0.00  0.00    +0.000 C 
ATOM     30  C   UNL     1       4.308   3.117  18.035  0.00  0.00    +0.000 C 
ATOM     31  C   UNL     1       3.189   3.956  17.402  0.00  0.00    +0.000 C 
ATOM     32  C   UNL     1       2.114   2.883  17.180  0.00  0.00    +0.000 C 
ENDBRANCH  23  26
ENDBRANCH   3  18
TORSDOF 2
ENDMDL
MODEL 8
REMARK VINA RESULT:      -7.4      1.883      9.615
REMARK  Name = 
REMARK  3 active torsions:
REMARK  status: ('A' for Active; 'I' for Inactive)
REMARK    1  A    between atoms: C_1  and  C_2
REMARK    2  A    between atoms: C_3  and  C_4
REMARK    3  A    between atoms: N_9  and  C_10
REMARK                            x       y       z     vdW  Elec       q    Type
REMARK                         _______ _______ _______ _____ _____    ______ ____
ROOT
ATOM      1  C   UNL     1       0.910   8.553  21.795  0.00  0.00    +0.000 C 
ATOM      2  C   UNL     1       1.306   8.935  20.414  0.00  0.00    +0.000 A 
ATOM      3  C   UNL     1       1.309  10.169  19.783  0.00  0.00    +0.000 A 
ATOM      4  C   UNL     1       1.756   9.893  18.479  0.00  0.00    +0.000 A 
ATOM      5  N   UNL     1       1.962   8.597  18.259  0.00  0.00    +0.000 NA
ATOM      6  N   UNL     1       1.713   8.008  19.465  0.00  0.00    +0.000 N 
ATOM      7  C   UNL     1       1.856   6.604  19.593  0.00  0.00    +0.000 A 
ATOM      8  N   UNL     1       1.850   5.986  20.733  0.00  0.00    +0.000 NA
ATOM      9  N   UNL     1       1.962   4.648  20.604  0.00  0.00    +0.000 N 
ATOM     10  C   UNL     1       2.228   3.763  21.609  0.00  0.00    +0.000 A 
ATOM     11  C   UNL     1       2.180   2.488  21.084  0.00  0.00    +0.000 A 
ATOM     12  C   UNL     1       1.880   2.610  19.705  0.00  0.00    +0.000 A 
ATOM     13  C   UNL     1       1.824   3.956  19.434  0.00  0.00    +0.000 A 
ATOM     14  C   UNL     1       1.668   4.674  18.215  0.00  0.00    +0.000 A 
ATOM     15  O   UNL     1       1.256   4.207  17.164  0.00  0.00    +0.000 OA
ATOM     16  N   UNL     1       1.974   6.002  18.362  0.00  0.00    +0.000 N 
ATOM     17  H   UNL     1       2.826   6.262  17.879  0.00  0.00    +0.000 HD
ENDROOT
BRANCH   3  18
ATOM     18  C   UNL     1       0.993  11.478  20.373  0.00  0.00    +0.000 C 
ATOM     19  O   UNL     1       1.847  12.090  21.013  0.00  0.00    +0.000 OA
ATOM     20  N   UNL     1      -0.291  11.972  20.163  0.00  0.00    +0.000 N 
ATOM     21  C   UNL     1      -0.595  13.332  20.628  0.00  0.00    +0.000 C 
ATOM     22  C   UNL     1      -1.831  13.962  19.922  0.00  0.00    +0.000 C 
ATOM     23  N   UNL     1      -3.020  13.087  19.772  0.00  0.00    +0.000 NA
ATOM     24  C   UNL     1      -2.555  11.802  19.192  0.00  0.00    +0.000 C 
ATOM     25  C   UNL     1      -1.474  11.113  20.039  0.00  0.00    +0.000 C 
BRANCH  23  26
ATOM     26  C   UNL     1      -3.762  12.884  21.026  0.00  0.00    +0.000 C 
ATOM     27  C   UNL     1      -5.204  12.343  20.809  0.00  0.00    +0.000 C 
ATOM     28  C   UNL     1      -6.072  13.279  21.661  0.00  0.00    +0.000 C 
ATOM     29  C   UNL     1      -6.158  14.639  20.946  0.00  0.00    +0.000 C 
ATOM     30  C   UNL     1      -4.767  15.242  21.188  0.00  0.00    +0.000 C 
ATOM     31  C   UNL     1      -4.026  14.122  21.932  0.00  0.00    +0.000 C 
ATOM     32  C   UNL     1      -5.145  13.584  22.834  0.00  0.00    +0.000 C 
ENDBRANCH  23  26
ENDBRANCH   3  18
TORSDOF 2
ENDMDL
MODEL 9
REMARK VINA RESULT:      -7.2      2.438      9.584
REMARK  Name = 
REMARK  3 active torsions:
REMARK  status: ('A' for Active; 'I' for Inactive)
REMARK    1  A    between atoms: C_1  and  C_2
REMARK    2  A    between atoms: C_3  and  C_4
REMARK    3  A    between atoms: N_9  and  C_10
REMARK                            x       y       z     vdW  Elec       q    Type
REMARK                         _______ _______ _______ _____ _____    ______ ____
ROOT
ATOM      1  C   UNL     1       2.353   9.887  18.239  0.00  0.00    +0.000 C 
ATOM      2  C   UNL     1       1.853   8.980  19.306  0.00  0.00    +0.000 A 
ATOM      3  C   UNL     1       0.999   9.221  20.371  0.00  0.00    +0.000 A 
ATOM      4  C   UNL     1       0.927   7.990  21.046  0.00  0.00    +0.000 A 
ATOM      5  N   UNL     1       1.707   7.054  20.513  0.00  0.00    +0.000 NA
ATOM      6  N   UNL     1       2.257   7.657  19.419  0.00  0.00    +0.000 N 
ATOM      7  C   UNL     1       3.146   6.922  18.595  0.00  0.00    +0.000 A 
ATOM      8  N   UNL     1       3.547   7.332  17.433  0.00  0.00    +0.000 NA
ATOM      9  N   UNL     1       4.421   6.485  16.851  0.00  0.00    +0.000 N 
ATOM     10  C   UNL     1       4.824   6.516  15.547  0.00  0.00    +0.000 A 
ATOM     11  C   UNL     1       5.780   5.537  15.368  0.00  0.00    +0.000 A 
ATOM     12  C   UNL     1       5.955   4.885  16.613  0.00  0.00    +0.000 A 
ATOM     13  C   UNL     1       5.050   5.449  17.482  0.00  0.00    +0.000 A 
ATOM     14  C   UNL     1       4.696   5.131  18.823  0.00  0.00    +0.000 A 
ATOM     15  O   UNL     1       5.354   4.444  19.587  0.00  0.00    +0.000 OA
ATOM     16  N   UNL     1       3.533   5.751  19.203  0.00  0.00    +0.000 N 
ATOM     17  H   UNL     1       2.766   5.101  19.326  0.00  0.00    +0.000 HD
ENDROOT
BRANCH   3  18
ATOM     18  C   UNL     1       0.274  10.464  20.674  0.00  0.00    +0.000 C 
ATOM     19  O   UNL     1       0.624  11.171  21.617  0.00  0.00    +0.000 OA
ATOM     20  N   UNL     1      -0.797  10.787  19.846  0.00  0.00    +0.000 N 
ATOM     21  C   UNL     1      -1.458  12.083  20.041  0.00  0.00    +0.000 C 
ATOM     22  C   UNL     1      -2.264  12.558  18.796  0.00  0.00    +0.000 C 
ATOM     23  N   UNL     1      -3.108  11.535  18.131  0.00  0.00    +0.000 NA
ATOM     24  C   UNL     1      -2.262  10.336  17.909  0.00  0.00    +0.000 C 
ATOM     25  C   UNL     1      -1.651   9.780  19.205  0.00  0.00    +0.000 C 
BRANCH  23  26
ATOM     26  C   UNL     1      -4.334  11.209  18.877  0.00  0.00    +0.000 C 
ATOM     27  C   UNL     1      -5.337  10.338  18.067  0.00  0.00    +0.000 C 
ATOM     28  C   UNL     1      -6.672  11.076  18.237  0.00  0.00    +0.000 C 
ATOM     29  C   UNL     1      -6.630  12.352  17.379  0.00  0.00    +0.000 C 
ATOM     30  C   UNL     1      -5.694  13.271  18.176  0.00  0.00    +0.000 C 
ATOM     31  C   UNL     1      -5.244  12.382  19.344  0.00  0.00    +0.000 C 
ATOM     32  C   UNL     1      -6.546  11.630  19.653  0.00  0.00    +0.000 C 
ENDBRANCH  23  26
ENDBRANCH   3  18
TORSDOF 2
ENDMDL
