MODEL 1
REMARK VINA RESULT:      -8.0      0.000      0.000
REMARK  Name = 
REMARK  9 active torsions:
REMARK  status: ('A' for Active; 'I' for Inactive)
REMARK    1  A    between atoms: C_1  and  O_2
REMARK    2  A    between atoms: O_2  and  C_3
REMARK    3  A    between atoms: C_6  and  O_7
REMARK    4  A    between atoms: O_7  and  C_8
REMARK    5  A    between atoms: C_9  and  S_10
REMARK    6  A    between atoms: S_10  and  N_13
REMARK    7  A    between atoms: N_13  and  C_14
REMARK    8  A    between atoms: C_17  and  O_18
REMARK    9  A    between atoms: O_18  and  C_19
REMARK                            x       y       z     vdW  Elec       q    Type
REMARK                         _______ _______ _______ _____ _____    ______ ____
ROOT
ATOM      1  N   UNL     1       4.017   5.087  19.764  0.00  0.00    +0.000 N 
ATOM      2  H   UNL     1       4.896   5.238  20.259  0.00  0.00    +0.000 HD
ENDROOT
BRANCH   1   3
ATOM      3  C   UNL     1       3.379   6.232  19.212  0.00  0.00    +0.000 A 
ATOM      4  C   UNL     1       3.826   6.779  18.010  0.00  0.00    +0.000 A 
ATOM      5  C   UNL     1       3.202   7.917  17.488  0.00  0.00    +0.000 A 
ATOM      6  C   UNL     1       2.153   8.523  18.186  0.00  0.00    +0.000 A 
ATOM      7  C   UNL     1       1.765   8.011  19.426  0.00  0.00    +0.000 A 
ATOM      8  C   UNL     1       2.345   6.843  19.917  0.00  0.00    +0.000 A 
BRANCH   6   9
ATOM      9  O   UNL     1       1.599   9.646  17.613  0.00  0.00    +0.000 OA
BRANCH   9  10
ATOM     10  C   UNL     1       0.563  10.293  18.252  0.00  0.00    +0.000 A 
ATOM     11  C   UNL     1      -0.728   9.936  17.859  0.00  0.00    +0.000 A 
ATOM     12  C   UNL     1      -1.836  10.541  18.457  0.00  0.00    +0.000 A 
ATOM     13  C   UNL     1      -1.655  11.504  19.449  0.00  0.00    +0.000 A 
ATOM     14  C   UNL     1      -0.367  11.839  19.866  0.00  0.00    +0.000 A 
ATOM     15  C   UNL     1       0.739  11.214  19.289  0.00  0.00    +0.000 A 
ENDBRANCH   9  10
ENDBRANCH   6   9
ENDBRANCH   1   3
BRANCH   1  16
ATOM     16  S   UNL     1       4.123   3.694  18.805  0.00  0.00    +0.000 S 
ATOM     17  O   UNL     1       2.817   3.456  18.222  0.00  0.00    +0.000 OA
ATOM     18  O   UNL     1       4.754   2.670  19.614  0.00  0.00    +0.000 OA
BRANCH  16  23
ATOM     19  C   UNL     1       5.628   4.202  15.086  0.00  0.00    +0.000 A 
ATOM     20  C   UNL     1       6.922   4.646  15.329  0.00  0.00    +0.000 A 
ATOM     21  C   UNL     1       7.386   4.811  16.635  0.00  0.00    +0.000 A 
ATOM     22  C   UNL     1       6.561   4.520  17.731  0.00  0.00    +0.000 A 
ATOM     23  C   UNL     1       5.245   4.109  17.482  0.00  0.00    +0.000 A 
ATOM     24  C   UNL     1       4.784   3.946  16.164  0.00  0.00    +0.000 A 
BRANCH  19  26
ATOM     25  C   UNL     1       6.350   3.622  12.899  0.00  0.00    +0.000 C 
ATOM     26  O   UNL     1       5.309   4.060  13.764  0.00  0.00    +0.000 OA
ENDBRANCH  19  26
BRANCH  22  27
ATOM     27  O   UNL     1       6.978   4.687  19.025  0.00  0.00    +0.000 OA
ATOM     28  C   UNL     1       7.804   5.832  19.258  0.00  0.00    +0.000 C 
ENDBRANCH  22  27
ENDBRANCH  16  23
ENDBRANCH   1  16
TORSDOF 7
ENDMDL
MODEL 2
REMARK VINA RESULT:      -7.9      1.893      3.095
REMARK  Name = 
REMARK  9 active torsions:
REMARK  status: ('A' for Active; 'I' for Inactive)
REMARK    1  A    between atoms: C_1  and  O_2
REMARK    2  A    between atoms: O_2  and  C_3
REMARK    3  A    between atoms: C_6  and  O_7
REMARK    4  A    between atoms: O_7  and  C_8
REMARK    5  A    between atoms: C_9  and  S_10
REMARK    6  A    between atoms: S_10  and  N_13
REMARK    7  A    between atoms: N_13  and  C_14
REMARK    8  A    between atoms: C_17  and  O_18
REMARK    9  A    between atoms: O_18  and  C_19
REMARK                            x       y       z     vdW  Elec       q    Type
REMARK                         _______ _______ _______ _____ _____    ______ ____
ROOT
ATOM      1  N   UNL     1       2.926   6.584  20.161  0.00  0.00    +0.000 N 
ATOM      2  H   UNL     1       3.928   6.739  20.269  0.00  0.00    +0.000 HD
ENDROOT
BRANCH   1   3
ATOM      3  C   UNL     1       2.141   7.690  19.735  0.00  0.00    +0.000 A 
ATOM      4  C   UNL     1       2.282   8.200  18.445  0.00  0.00    +0.000 A 
ATOM      5  C   UNL     1       1.517   9.301  18.045  0.00  0.00    +0.000 A 
ATOM      6  C   UNL     1       0.639   9.909  18.945  0.00  0.00    +0.000 A 
ATOM      7  C   UNL     1       0.563   9.436  20.258  0.00  0.00    +0.000 A 
ATOM      8  C   UNL     1       1.278   8.303  20.639  0.00  0.00    +0.000 A 
BRANCH   6   9
ATOM      9  O   UNL     1      -0.069  10.995  18.480  0.00  0.00    +0.000 OA
BRANCH   9  10
ATOM     10  C   UNL     1      -1.396  10.845  18.139  0.00  0.00    +0.000 A 
ATOM     11  C   UNL     1      -2.302  11.688  18.784  0.00  0.00    +0.000 A 
ATOM     12  C   UNL     1      -3.666  11.605  18.497  0.00  0.00    +0.000 A 
ATOM     13  C   UNL     1      -4.127  10.677  17.563  0.00  0.00    +0.000 A 
ATOM     14  C   UNL     1      -3.222   9.855  16.894  0.00  0.00    +0.000 A 
ATOM     15  C   UNL     1      -1.855   9.958  17.160  0.00  0.00    +0.000 A 
ENDBRANCH   9  10
ENDBRANCH   6   9
ENDBRANCH   1   3
BRANCH   1  16
ATOM     16  S   UNL     1       2.646   5.080  19.431  0.00  0.00    +0.000 S 
ATOM     17  O   UNL     1       1.331   5.118  18.824  0.00  0.00    +0.000 OA
ATOM     18  O   UNL     1       2.960   4.065  20.418  0.00  0.00    +0.000 OA
BRANCH  16  23
ATOM     19  C   UNL     1       5.664   6.019  16.909  0.00  0.00    +0.000 A 
ATOM     20  C   UNL     1       5.723   4.916  16.065  0.00  0.00    +0.000 A 
ATOM     21  C   UNL     1       4.848   3.842  16.233  0.00  0.00    +0.000 A 
ATOM     22  C   UNL     1       3.881   3.857  17.249  0.00  0.00    +0.000 A 
ATOM     23  C   UNL     1       3.850   4.954  18.121  0.00  0.00    +0.000 A 
ATOM     24  C   UNL     1       4.735   6.031  17.947  0.00  0.00    +0.000 A 
BRANCH  19  26
ATOM     25  C   UNL     1       7.535   7.300  17.615  0.00  0.00    +0.000 C 
ATOM     26  O   UNL     1       6.560   7.010  16.620  0.00  0.00    +0.000 OA
ENDBRANCH  19  26
BRANCH  22  27
ATOM     27  O   UNL     1       3.018   2.813  17.453  0.00  0.00    +0.000 OA
ATOM     28  C   UNL     1       3.592   1.658  18.073  0.00  0.00    +0.000 C 
ENDBRANCH  22  27
ENDBRANCH  16  23
ENDBRANCH   1  16
TORSDOF 7
ENDMDL
MODEL 3
REMARK VINA RESULT:      -7.9      0.542      1.074
REMARK  Name = 
REMARK  9 active torsions:
REMARK  status: ('A' for Active; 'I' for Inactive)
REMARK    1  A    between atoms: C_1  and  O_2
REMARK    2  A    between atoms: O_2  and  C_3
REMARK    3  A    between atoms: C_6  and  O_7
REMARK    4  A    between atoms: O_7  and  C_8
REMARK    5  A    between atoms: C_9  and  S_10
REMARK    6  A    between atoms: S_10  and  N_13
REMARK    7  A    between atoms: N_13  and  C_14
REMARK    8  A    between atoms: C_17  and  O_18
REMARK    9  A    between atoms: O_18  and  C_19
REMARK                            x       y       z     vdW  Elec       q    Type
REMARK                         _______ _______ _______ _____ _____    ______ ____
ROOT
ATOM      1  N   UNL     1       3.560   5.191  19.694  0.00  0.00    +0.000 N 
ATOM      2  H   UNL     1       4.454   5.238  20.183  0.00  0.00    +0.000 HD
ENDROOT
BRANCH   1   3
ATOM      3  C   UNL     1       2.997   6.420  19.255  0.00  0.00    +0.000 A 
ATOM      4  C   UNL     1       3.383   6.978  18.037  0.00  0.00    +0.000 A 
ATOM      5  C   UNL     1       2.835   8.198  17.625  0.00  0.00    +0.000 A 
ATOM      6  C   UNL     1       1.928   8.872  18.446  0.00  0.00    +0.000 A 
ATOM      7  C   UNL     1       1.606   8.340  19.698  0.00  0.00    +0.000 A 
ATOM      8  C   UNL     1       2.104   7.097  20.082  0.00  0.00    +0.000 A 
BRANCH   6   9
ATOM      9  O   UNL     1       1.442  10.072  17.976  0.00  0.00    +0.000 OA
BRANCH   9  10
ATOM     10  C   UNL     1       0.153  10.450  18.283  0.00  0.00    +0.000 A 
ATOM     11  C   UNL     1       0.015  11.477  19.218  0.00  0.00    +0.000 A 
ATOM     12  C   UNL     1      -1.257  11.925  19.586  0.00  0.00    +0.000 A 
ATOM     13  C   UNL     1      -2.391  11.344  19.020  0.00  0.00    +0.000 A 
ATOM     14  C   UNL     1      -2.256  10.340  18.063  0.00  0.00    +0.000 A 
ATOM     15  C   UNL     1      -0.985   9.913  17.674  0.00  0.00    +0.000 A 
ENDBRANCH   9  10
ENDBRANCH   6   9
ENDBRANCH   1   3
BRANCH   1  16
ATOM     16  S   UNL     1       3.553   3.881  18.619  0.00  0.00    +0.000 S 
ATOM     17  O   UNL     1       2.319   3.935  17.861  0.00  0.00    +0.000 OA
ATOM     18  O   UNL     1       3.880   2.699  19.390  0.00  0.00    +0.000 OA
BRANCH  16  23
ATOM     19  C   UNL     1       5.680   4.164  15.190  0.00  0.00    +0.000 A 
ATOM     20  C   UNL     1       6.941   4.545  15.634  0.00  0.00    +0.000 A 
ATOM     21  C   UNL     1       7.192   4.734  16.994  0.00  0.00    +0.000 A 
ATOM     22  C   UNL     1       6.181   4.531  17.944  0.00  0.00    +0.000 A 
ATOM     23  C   UNL     1       4.901   4.183  17.491  0.00  0.00    +0.000 A 
ATOM     24  C   UNL     1       4.655   3.997  16.120  0.00  0.00    +0.000 A 
BRANCH  19  26
ATOM     25  C   UNL     1       6.764   4.168  13.078  0.00  0.00    +0.000 C 
ATOM     26  O   UNL     1       5.575   3.990  13.839  0.00  0.00    +0.000 OA
ENDBRANCH  19  26
BRANCH  22  27
ATOM     27  O   UNL     1       6.388   4.724  19.285  0.00  0.00    +0.000 OA
ATOM     28  C   UNL     1       7.421   5.658  19.616  0.00  0.00    +0.000 C 
ENDBRANCH  22  27
ENDBRANCH  16  23
ENDBRANCH   1  16
TORSDOF 7
ENDMDL
MODEL 4
REMARK VINA RESULT:      -7.8      1.177      1.939
REMARK  Name = 
REMARK  9 active torsions:
REMARK  status: ('A' for Active; 'I' for Inactive)
REMARK    1  A    between atoms: C_1  and  O_2
REMARK    2  A    between atoms: O_2  and  C_3
REMARK    3  A    between atoms: C_6  and  O_7
REMARK    4  A    between atoms: O_7  and  C_8
REMARK    5  A    between atoms: C_9  and  S_10
REMARK    6  A    between atoms: S_10  and  N_13
REMARK    7  A    between atoms: N_13  and  C_14
REMARK    8  A    between atoms: C_17  and  O_18
REMARK    9  A    between atoms: O_18  and  C_19
REMARK                            x       y       z     vdW  Elec       q    Type
REMARK                         _______ _______ _______ _____ _____    ______ ____
ROOT
ATOM      1  N   UNL     1       3.709   5.592  19.784  0.00  0.00    +0.000 N 
ATOM      2  H   UNL     1       4.678   5.709  20.081  0.00  0.00    +0.000 HD
ENDROOT
BRANCH   1   3
ATOM      3  C   UNL     1       2.993   6.766  19.429  0.00  0.00    +0.000 A 
ATOM      4  C   UNL     1       2.032   7.295  20.291  0.00  0.00    +0.000 A 
ATOM      5  C   UNL     1       1.320   8.441  19.920  0.00  0.00    +0.000 A 
ATOM      6  C   UNL     1       1.547   9.036  18.676  0.00  0.00    +0.000 A 
ATOM      7  C   UNL     1       2.456   8.453  17.790  0.00  0.00    +0.000 A 
ATOM      8  C   UNL     1       3.209   7.347  18.182  0.00  0.00    +0.000 A 
BRANCH   6   9
ATOM      9  O   UNL     1       0.798  10.153  18.380  0.00  0.00    +0.000 OA
BRANCH   9  10
ATOM     10  C   UNL     1       1.256  11.396  18.759  0.00  0.00    +0.000 A 
ATOM     11  C   UNL     1       0.636  11.974  19.868  0.00  0.00    +0.000 A 
ATOM     12  C   UNL     1       1.040  13.232  20.322  0.00  0.00    +0.000 A 
ATOM     13  C   UNL     1       2.064  13.914  19.667  0.00  0.00    +0.000 A 
ATOM     14  C   UNL     1       2.707  13.326  18.578  0.00  0.00    +0.000 A 
ATOM     15  C   UNL     1       2.323  12.057  18.142  0.00  0.00    +0.000 A 
ENDBRANCH   9  10
ENDBRANCH   6   9
ENDBRANCH   1   3
BRANCH   1  16
ATOM     16  S   UNL     1       3.571   4.237  18.774  0.00  0.00    +0.000 S 
ATOM     17  O   UNL     1       2.302   4.328  18.081  0.00  0.00    +0.000 OA
ATOM     18  O   UNL     1       3.876   3.074  19.582  0.00  0.00    +0.000 OA
BRANCH  16  23
ATOM     19  C   UNL     1       5.491   4.348  15.216  0.00  0.00    +0.000 A 
ATOM     20  C   UNL     1       6.812   4.584  15.580  0.00  0.00    +0.000 A 
ATOM     21  C   UNL     1       7.169   4.722  16.922  0.00  0.00    +0.000 A 
ATOM     22  C   UNL     1       6.206   4.613  17.935  0.00  0.00    +0.000 A 
ATOM     23  C   UNL     1       4.869   4.412  17.563  0.00  0.00    +0.000 A 
ATOM     24  C   UNL     1       4.517   4.276  16.209  0.00  0.00    +0.000 A 
BRANCH  19  26
ATOM     25  C   UNL     1       6.334   3.616  13.121  0.00  0.00    +0.000 C 
ATOM     26  O   UNL     1       5.283   4.209  13.873  0.00  0.00    +0.000 OA
ENDBRANCH  19  26
BRANCH  22  27
ATOM     27  O   UNL     1       6.518   4.760  19.261  0.00  0.00    +0.000 OA
ATOM     28  C   UNL     1       7.585   5.671  19.540  0.00  0.00    +0.000 C 
ENDBRANCH  22  27
ENDBRANCH  16  23
ENDBRANCH   1  16
TORSDOF 7
ENDMDL
MODEL 5
REMARK VINA RESULT:      -7.7      0.825      1.643
REMARK  Name = 
REMARK  9 active torsions:
REMARK  status: ('A' for Active; 'I' for Inactive)
REMARK    1  A    between atoms: C_1  and  O_2
REMARK    2  A    between atoms: O_2  and  C_3
REMARK    3  A    between atoms: C_6  and  O_7
REMARK    4  A    between atoms: O_7  and  C_8
REMARK    5  A    between atoms: C_9  and  S_10
REMARK    6  A    between atoms: S_10  and  N_13
REMARK    7  A    between atoms: N_13  and  C_14
REMARK    8  A    between atoms: C_17  and  O_18
REMARK    9  A    between atoms: O_18  and  C_19
REMARK                            x       y       z     vdW  Elec       q    Type
REMARK                         _______ _______ _______ _____ _____    ______ ____
ROOT
ATOM      1  N   UNL     1       3.730   5.564  19.855  0.00  0.00    +0.000 N 
ATOM      2  H   UNL     1       4.689   5.708  20.171  0.00  0.00    +0.000 HD
ENDROOT
BRANCH   1   3
ATOM      3  C   UNL     1       3.005   6.713  19.438  0.00  0.00    +0.000 A 
ATOM      4  C   UNL     1       2.029   7.269  20.263  0.00  0.00    +0.000 A 
ATOM      5  C   UNL     1       1.308   8.389  19.833  0.00  0.00    +0.000 A 
ATOM      6  C   UNL     1       1.543   8.928  18.565  0.00  0.00    +0.000 A 
ATOM      7  C   UNL     1       2.469   8.316  17.717  0.00  0.00    +0.000 A 
ATOM      8  C   UNL     1       3.230   7.238  18.168  0.00  0.00    +0.000 A 
BRANCH   6   9
ATOM      9  O   UNL     1       0.785  10.022  18.210  0.00  0.00    +0.000 OA
BRANCH   9  10
ATOM     10  C   UNL     1       0.424  10.939  19.173  0.00  0.00    +0.000 A 
ATOM     11  C   UNL     1       1.387  11.889  19.518  0.00  0.00    +0.000 A 
ATOM     12  C   UNL     1       1.104  12.857  20.484  0.00  0.00    +0.000 A 
ATOM     13  C   UNL     1      -0.143  12.876  21.108  0.00  0.00    +0.000 A 
ATOM     14  C   UNL     1      -1.118  11.949  20.743  0.00  0.00    +0.000 A 
ATOM     15  C   UNL     1      -0.845  11.000  19.757  0.00  0.00    +0.000 A 
ENDBRANCH   9  10
ENDBRANCH   6   9
ENDBRANCH   1   3
BRANCH   1  16
ATOM     16  S   UNL     1       3.640   4.171  18.892  0.00  0.00    +0.000 S 
ATOM     17  O   UNL     1       2.366   4.190  18.203  0.00  0.00    +0.000 OA
ATOM     18  O   UNL     1       3.992   3.049  19.738  0.00  0.00    +0.000 OA
BRANCH  16  23
ATOM     19  C   UNL     1       5.538   4.242  15.322  0.00  0.00    +0.000 A 
ATOM     20  C   UNL     1       6.853   4.531  15.671  0.00  0.00    +0.000 A 
ATOM     21  C   UNL     1       7.211   4.719  17.007  0.00  0.00    +0.000 A 
ATOM     22  C   UNL     1       6.257   4.608  18.027  0.00  0.00    +0.000 A 
ATOM     23  C   UNL     1       4.926   4.353  17.669  0.00  0.00    +0.000 A 
ATOM     24  C   UNL     1       4.571   4.167  16.322  0.00  0.00    +0.000 A 
BRANCH  19  26
ATOM     25  C   UNL     1       6.485   3.937  13.166  0.00  0.00    +0.000 C 
ATOM     26  O   UNL     1       5.328   4.058  13.984  0.00  0.00    +0.000 OA
ENDBRANCH  19  26
BRANCH  22  27
ATOM     27  O   UNL     1       6.570   4.802  19.347  0.00  0.00    +0.000 OA
ATOM     28  C   UNL     1       7.663   5.694  19.590  0.00  0.00    +0.000 C 
ENDBRANCH  22  27
ENDBRANCH  16  23
ENDBRANCH   1  16
TORSDOF 7
ENDMDL
MODEL 6
REMARK VINA RESULT:      -7.6      1.778      3.255
REMARK  Name = 
REMARK  9 active torsions:
REMARK  status: ('A' for Active; 'I' for Inactive)
REMARK    1  A    between atoms: C_1  and  O_2
REMARK    2  A    between atoms: O_2  and  C_3
REMARK    3  A    between atoms: C_6  and  O_7
REMARK    4  A    between atoms: O_7  and  C_8
REMARK    5  A    between atoms: C_9  and  S_10
REMARK    6  A    between atoms: S_10  and  N_13
REMARK    7  A    between atoms: N_13  and  C_14
REMARK    8  A    between atoms: C_17  and  O_18
REMARK    9  A    between atoms: O_18  and  C_19
REMARK                            x       y       z     vdW  Elec       q    Type
REMARK                         _______ _______ _______ _____ _____    ______ ____
ROOT
ATOM      1  N   UNL     1       2.852   6.415  20.272  0.00  0.00    +0.000 N 
ATOM      2  H   UNL     1       3.847   6.491  20.478  0.00  0.00    +0.000 HD
ENDROOT
BRANCH   1   3
ATOM      3  C   UNL     1       2.201   7.580  19.782  0.00  0.00    +0.000 A 
ATOM      4  C   UNL     1       1.306   8.281  20.590  0.00  0.00    +0.000 A 
ATOM      5  C   UNL     1       0.657   9.415  20.088  0.00  0.00    +0.000 A 
ATOM      6  C   UNL     1       0.880   9.825  18.771  0.00  0.00    +0.000 A 
ATOM      7  C   UNL     1       1.719   9.070  17.948  0.00  0.00    +0.000 A 
ATOM      8  C   UNL     1       2.412   7.976  18.464  0.00  0.00    +0.000 A 
BRANCH   6   9
ATOM      9  O   UNL     1       0.195  10.943  18.348  0.00  0.00    +0.000 OA
BRANCH   9  10
ATOM     10  C   UNL     1      -1.171  10.878  18.181  0.00  0.00    +0.000 A 
ATOM     11  C   UNL     1      -1.643   9.905  17.298  0.00  0.00    +0.000 A 
ATOM     12  C   UNL     1      -3.015   9.768  17.071  0.00  0.00    +0.000 A 
ATOM     13  C   UNL     1      -3.916  10.606  17.726  0.00  0.00    +0.000 A 
ATOM     14  C   UNL     1      -3.451  11.558  18.632  0.00  0.00    +0.000 A 
ATOM     15  C   UNL     1      -2.083  11.675  18.880  0.00  0.00    +0.000 A 
ENDBRANCH   9  10
ENDBRANCH   6   9
ENDBRANCH   1   3
BRANCH   1  16
ATOM     16  S   UNL     1       2.527   4.938  19.506  0.00  0.00    +0.000 S 
ATOM     17  O   UNL     1       1.300   5.090  18.750  0.00  0.00    +0.000 OA
ATOM     18  O   UNL     1       2.634   3.905  20.517  0.00  0.00    +0.000 OA
BRANCH  16  23
ATOM     19  C   UNL     1       6.119   5.297  17.682  0.00  0.00    +0.000 A 
ATOM     20  C   UNL     1       5.987   4.478  16.566  0.00  0.00    +0.000 A 
ATOM     21  C   UNL     1       4.800   3.783  16.327  0.00  0.00    +0.000 A 
ATOM     22  C   UNL     1       3.711   3.904  17.201  0.00  0.00    +0.000 A 
ATOM     23  C   UNL     1       3.860   4.701  18.344  0.00  0.00    +0.000 A 
ATOM     24  C   UNL     1       5.058   5.396  18.580  0.00  0.00    +0.000 A 
BRANCH  19  26
ATOM     25  C   UNL     1       7.913   5.984  19.077  0.00  0.00    +0.000 C 
ATOM     26  O   UNL     1       7.321   5.938  17.784  0.00  0.00    +0.000 OA
ENDBRANCH  19  26
BRANCH  22  27
ATOM     27  O   UNL     1       2.538   3.223  17.006  0.00  0.00    +0.000 OA
ATOM     28  C   UNL     1       2.470   1.934  17.623  0.00  0.00    +0.000 C 
ENDBRANCH  22  27
ENDBRANCH  16  23
ENDBRANCH   1  16
TORSDOF 7
ENDMDL
MODEL 7
REMARK VINA RESULT:      -7.5      1.110      1.550
REMARK  Name = 
REMARK  9 active torsions:
REMARK  status: ('A' for Active; 'I' for Inactive)
REMARK    1  A    between atoms: C_1  and  O_2
REMARK    2  A    between atoms: O_2  and  C_3
REMARK    3  A    between atoms: C_6  and  O_7
REMARK    4  A    between atoms: O_7  and  C_8
REMARK    5  A    between atoms: C_9  and  S_10
REMARK    6  A    between atoms: S_10  and  N_13
REMARK    7  A    between atoms: N_13  and  C_14
REMARK    8  A    between atoms: C_17  and  O_18
REMARK    9  A    between atoms: O_18  and  C_19
REMARK                            x       y       z     vdW  Elec       q    Type
REMARK                         _______ _______ _______ _____ _____    ______ ____
ROOT
ATOM      1  N   UNL     1       2.869   4.893  18.342  0.00  0.00    +0.000 N 
ATOM      2  H   UNL     1       2.182   4.139  18.313  0.00  0.00    +0.000 HD
ENDROOT
BRANCH   1   3
ATOM      3  C   UNL     1       2.444   6.137  18.882  0.00  0.00    +0.000 A 
ATOM      4  C   UNL     1       1.884   6.198  20.158  0.00  0.00    +0.000 A 
ATOM      5  C   UNL     1       1.452   7.426  20.671  0.00  0.00    +0.000 A 
ATOM      6  C   UNL     1       1.551   8.583  19.894  0.00  0.00    +0.000 A 
ATOM      7  C   UNL     1       2.043   8.497  18.590  0.00  0.00    +0.000 A 
ATOM      8  C   UNL     1       2.529   7.286  18.100  0.00  0.00    +0.000 A 
BRANCH   6   9
ATOM      9  O   UNL     1       1.093   9.751  20.465  0.00  0.00    +0.000 OA
BRANCH   9  10
ATOM     10  C   UNL     1       0.367  10.639  19.702  0.00  0.00    +0.000 A 
ATOM     11  C   UNL     1      -0.953  10.283  19.424  0.00  0.00    +0.000 A 
ATOM     12  C   UNL     1      -1.762  11.128  18.659  0.00  0.00    +0.000 A 
ATOM     13  C   UNL     1      -1.250  12.330  18.171  0.00  0.00    +0.000 A 
ATOM     14  C   UNL     1       0.059  12.703  18.474  0.00  0.00    +0.000 A 
ATOM     15  C   UNL     1       0.857  11.873  19.262  0.00  0.00    +0.000 A 
ENDBRANCH   9  10
ENDBRANCH   6   9
ENDBRANCH   1   3
BRANCH   1  16
ATOM     16  S   UNL     1       4.377   4.287  18.824  0.00  0.00    +0.000 S 
ATOM     17  O   UNL     1       4.219   2.874  19.102  0.00  0.00    +0.000 OA
ATOM     18  O   UNL     1       4.881   5.177  19.850  0.00  0.00    +0.000 OA
BRANCH  16  23
ATOM     19  C   UNL     1       5.637   4.306  14.981  0.00  0.00    +0.000 A 
ATOM     20  C   UNL     1       6.991   4.596  15.097  0.00  0.00    +0.000 A 
ATOM     21  C   UNL     1       7.573   4.800  16.349  0.00  0.00    +0.000 A 
ATOM     22  C   UNL     1       6.807   4.704  17.519  0.00  0.00    +0.000 A 
ATOM     23  C   UNL     1       5.434   4.449  17.397  0.00  0.00    +0.000 A 
ATOM     24  C   UNL     1       4.855   4.247  16.133  0.00  0.00    +0.000 A 
BRANCH  19  26
ATOM     25  C   UNL     1       6.131   3.530  12.792  0.00  0.00    +0.000 C 
ATOM     26  O   UNL     1       5.200   4.106  13.702  0.00  0.00    +0.000 OA
ENDBRANCH  19  26
BRANCH  22  27
ATOM     27  O   UNL     1       7.342   4.915  18.763  0.00  0.00    +0.000 OA
ATOM     28  C   UNL     1       7.981   6.182  18.947  0.00  0.00    +0.000 C 
ENDBRANCH  22  27
ENDBRANCH  16  23
ENDBRANCH   1  16
TORSDOF 7
ENDMDL
MODEL 8
REMARK VINA RESULT:      -7.4      2.096      3.672
REMARK  Name = 
REMARK  9 active torsions:
REMARK  status: ('A' for Active; 'I' for Inactive)
REMARK    1  A    between atoms: C_1  and  O_2
REMARK    2  A    between atoms: O_2  and  C_3
REMARK    3  A    between atoms: C_6  and  O_7
REMARK    4  A    between atoms: O_7  and  C_8
REMARK    5  A    between atoms: C_9  and  S_10
REMARK    6  A    between atoms: S_10  and  N_13
REMARK    7  A    between atoms: N_13  and  C_14
REMARK    8  A    between atoms: C_17  and  O_18
REMARK    9  A    between atoms: O_18  and  C_19
REMARK                            x       y       z     vdW  Elec       q    Type
REMARK                         _______ _______ _______ _____ _____    ______ ____
ROOT
ATOM      1  N   UNL     1       2.466   6.619  20.967  0.00  0.00    +0.000 N 
ATOM      2  H   UNL     1       3.482   6.641  21.058  0.00  0.00    +0.000 HD
ENDROOT
BRANCH   1   3
ATOM      3  C   UNL     1       1.849   7.733  20.335  0.00  0.00    +0.000 A 
ATOM      4  C   UNL     1       0.898   8.492  21.015  0.00  0.00    +0.000 A 
ATOM      5  C   UNL     1       0.283   9.574  20.375  0.00  0.00    +0.000 A 
ATOM      6  C   UNL     1       0.597   9.873  19.047  0.00  0.00    +0.000 A 
ATOM      7  C   UNL     1       1.495   9.059  18.352  0.00  0.00    +0.000 A 
ATOM      8  C   UNL     1       2.152   8.019  19.006  0.00  0.00    +0.000 A 
BRANCH   6   9
ATOM      9  O   UNL     1      -0.059  10.945  18.484  0.00  0.00    +0.000 OA
BRANCH   9  10
ATOM     10  C   UNL     1      -1.385  10.819  18.129  0.00  0.00    +0.000 A 
ATOM     11  C   UNL     1      -2.278  11.694  18.750  0.00  0.00    +0.000 A 
ATOM     12  C   UNL     1      -3.641  11.637  18.447  0.00  0.00    +0.000 A 
ATOM     13  C   UNL     1      -4.112  10.705  17.524  0.00  0.00    +0.000 A 
ATOM     14  C   UNL     1      -3.218   9.851  16.878  0.00  0.00    +0.000 A 
ATOM     15  C   UNL     1      -1.853   9.928  17.160  0.00  0.00    +0.000 A 
ENDBRANCH   9  10
ENDBRANCH   6   9
ENDBRANCH   1   3
BRANCH   1  16
ATOM     16  S   UNL     1       1.955   5.066  20.522  0.00  0.00    +0.000 S 
ATOM     17  O   UNL     1       0.586   5.165  20.057  0.00  0.00    +0.000 OA
ATOM     18  O   UNL     1       2.286   4.181  21.621  0.00  0.00    +0.000 OA
BRANCH  16  23
ATOM     19  C   UNL     1       5.121   4.822  18.018  0.00  0.00    +0.000 A 
ATOM     20  C   UNL     1       4.640   4.033  16.979  0.00  0.00    +0.000 A 
ATOM     21  C   UNL     1       3.333   3.541  17.003  0.00  0.00    +0.000 A 
ATOM     22  C   UNL     1       2.473   3.844  18.068  0.00  0.00    +0.000 A 
ATOM     23  C   UNL     1       2.973   4.608  19.131  0.00  0.00    +0.000 A 
ATOM     24  C   UNL     1       4.290   5.098  19.102  0.00  0.00    +0.000 A 
BRANCH  19  26
ATOM     25  C   UNL     1       7.215   4.535  16.937  0.00  0.00    +0.000 C 
ATOM     26  O   UNL     1       6.407   5.256  17.859  0.00  0.00    +0.000 OA
ENDBRANCH  19  26
BRANCH  22  27
ATOM     27  O   UNL     1       1.191   3.365  18.132  0.00  0.00    +0.000 OA
ATOM     28  C   UNL     1       1.055   2.054  18.690  0.00  0.00    +0.000 C 
ENDBRANCH  22  27
ENDBRANCH  16  23
ENDBRANCH   1  16
TORSDOF 7
ENDMDL
MODEL 9
REMARK VINA RESULT:      -7.4      4.252      9.794
REMARK  Name = 
REMARK  9 active torsions:
REMARK  status: ('A' for Active; 'I' for Inactive)
REMARK    1  A    between atoms: C_1  and  O_2
REMARK    2  A    between atoms: O_2  and  C_3
REMARK    3  A    between atoms: C_6  and  O_7
REMARK    4  A    between atoms: O_7  and  C_8
REMARK    5  A    between atoms: C_9  and  S_10
REMARK    6  A    between atoms: S_10  and  N_13
REMARK    7  A    between atoms: N_13  and  C_14
REMARK    8  A    between atoms: C_17  and  O_18
REMARK    9  A    between atoms: O_18  and  C_19
REMARK                            x       y       z     vdW  Elec       q    Type
REMARK                         _______ _______ _______ _____ _____    ______ ____
ROOT
ATOM      1  N   UNL     1       0.425  11.185  18.209  0.00  0.00    +0.000 N 
ATOM      2  H   UNL     1       0.402  11.403  17.213  0.00  0.00    +0.000 HD
ENDROOT
BRANCH   1   3
ATOM      3  C   UNL     1       1.032   9.958  18.591  0.00  0.00    +0.000 A 
ATOM      4  C   UNL     1       0.820   9.431  19.864  0.00  0.00    +0.000 A 
ATOM      5  C   UNL     1       1.439   8.232  20.234  0.00  0.00    +0.000 A 
ATOM      6  C   UNL     1       2.294   7.581  19.341  0.00  0.00    +0.000 A 
ATOM      7  C   UNL     1       2.559   8.158  18.096  0.00  0.00    +0.000 A 
ATOM      8  C   UNL     1       1.896   9.319  17.705  0.00  0.00    +0.000 A 
BRANCH   6   9
ATOM      9  O   UNL     1       2.875   6.412  19.783  0.00  0.00    +0.000 OA
BRANCH   9  10
ATOM     10  C   UNL     1       2.227   5.214  19.579  0.00  0.00    +0.000 A 
ATOM     11  C   UNL     1       1.751   4.564  20.719  0.00  0.00    +0.000 A 
ATOM     12  C   UNL     1       1.079   3.344  20.603  0.00  0.00    +0.000 A 
ATOM     13  C   UNL     1       0.884   2.772  19.347  0.00  0.00    +0.000 A 
ATOM     14  C   UNL     1       1.329   3.434  18.204  0.00  0.00    +0.000 A 
ATOM     15  C   UNL     1       1.975   4.666  18.317  0.00  0.00    +0.000 A 
ENDBRANCH   9  10
ENDBRANCH   6   9
ENDBRANCH   1   3
BRANCH   1  16
ATOM     16  S   UNL     1       0.808  12.575  19.100  0.00  0.00    +0.000 S 
ATOM     17  O   UNL     1       0.794  13.704  18.191  0.00  0.00    +0.000 OA
ATOM     18  O   UNL     1       2.002  12.273  19.864  0.00  0.00    +0.000 OA
BRANCH  16  23
ATOM     19  C   UNL     1      -1.204  13.256  22.542  0.00  0.00    +0.000 A 
ATOM     20  C   UNL     1      -2.531  13.071  22.172  0.00  0.00    +0.000 A 
ATOM     21  C   UNL     1      -2.865  12.734  20.858  0.00  0.00    +0.000 A 
ATOM     22  C   UNL     1      -1.868  12.563  19.887  0.00  0.00    +0.000 A 
ATOM     23  C   UNL     1      -0.535  12.787  20.255  0.00  0.00    +0.000 A 
ATOM     24  C   UNL     1      -0.206  13.128  21.578  0.00  0.00    +0.000 A 
BRANCH  19  26
ATOM     25  C   UNL     1      -1.256  14.906  24.249  0.00  0.00    +0.000 C 
ATOM     26  O   UNL     1      -1.013  13.559  23.861  0.00  0.00    +0.000 OA
ENDBRANCH  19  26
BRANCH  22  27
ATOM     27  O   UNL     1      -2.162  12.249  18.586  0.00  0.00    +0.000 OA
ATOM     28  C   UNL     1      -3.258  11.348  18.407  0.00  0.00    +0.000 C 
ENDBRANCH  22  27
ENDBRANCH  16  23
ENDBRANCH   1  16
TORSDOF 7
ENDMDL
