MODEL 1
REMARK VINA RESULT:      -9.6      0.000      0.000
REMARK  Name = 
REMARK  6 active torsions:
REMARK  status: ('A' for Active; 'I' for Inactive)
REMARK    1  A    between atoms: C_10  and  O_11
REMARK    2  A    between atoms: C_12  and  C_13
REMARK    3  A    between atoms: C_13  and  C_14
REMARK    4  A    between atoms: C_13  and  C_21
REMARK    5  A    between atoms: C_19  and  O_20
REMARK    6  A    between atoms: C_22  and  O_23
REMARK                            x       y       z     vdW  Elec       q    Type
REMARK                         _______ _______ _______ _____ _____    ______ ____
ROOT
ATOM      1  C   UNL     1       4.494   5.069  18.339  0.00  0.00    +0.000 C 
ENDROOT
BRANCH   1  12
ATOM      2  O   UNL     1       4.313   6.820  16.112  0.00  0.00    +0.000 OA
ATOM      3  C   UNL     1       3.694   7.172  17.112  0.00  0.00    +0.000 A 
ATOM      4  O   UNL     1       2.985   8.368  17.110  0.00  0.00    +0.000 OA
ATOM      5  C   UNL     1       2.213   8.787  18.208  0.00  0.00    +0.000 A 
ATOM      6  C   UNL     1       1.521   9.990  18.063  0.00  0.00    +0.000 A 
ATOM      7  C   UNL     1       0.728  10.454  19.111  0.00  0.00    +0.000 A 
ATOM      8  C   UNL     1       0.650   9.718  20.290  0.00  0.00    +0.000 A 
ATOM      9  C   UNL     1       1.356   8.517  20.420  0.00  0.00    +0.000 A 
ATOM     10  C   UNL     1       2.144   8.024  19.370  0.00  0.00    +0.000 A 
ATOM     11  C   UNL     1       2.899   6.765  19.399  0.00  0.00    +0.000 A 
ATOM     12  C   UNL     1       3.661   6.369  18.362  0.00  0.00    +0.000 A 
BRANCH  11  13
ATOM     13  O   UNL     1       2.780   5.956  20.514  0.00  0.00    +0.000 OA
ATOM     14  H   UNL     1       2.858   6.474  21.329  0.00  0.00    +0.000 HD
ENDBRANCH  11  13
ENDBRANCH   1  12
BRANCH   1  15
ATOM     15  C   UNL     1       5.454   4.947  17.127  0.00  0.00    +0.000 A 
ATOM     16  C   UNL     1       5.305   4.145  16.048  0.00  0.00    +0.000 A 
ATOM     17  C   UNL     1       6.109   4.343  14.842  0.00  0.00    +0.000 A 
ATOM     18  C   UNL     1       5.824   3.719  13.620  0.00  0.00    +0.000 A 
ATOM     19  C   UNL     1       6.576   4.010  12.476  0.00  0.00    +0.000 A 
ATOM     20  C   UNL     1       7.628   4.923  12.544  0.00  0.00    +0.000 A 
ATOM     21  C   UNL     1       7.918   5.553  13.750  0.00  0.00    +0.000 A 
ATOM     22  C   UNL     1       7.147   5.261  14.874  0.00  0.00    +0.000 A 
ATOM     23  O   UNL     1       7.459   5.939  16.055  0.00  0.00    +0.000 OA
ATOM     24  C   UNL     1       6.712   5.758  17.208  0.00  0.00    +0.000 A 
ATOM     25  O   UNL     1       7.116   6.241  18.262  0.00  0.00    +0.000 OA
BRANCH  16  26
ATOM     26  O   UNL     1       4.361   3.145  15.925  0.00  0.00    +0.000 OA
ATOM     27  H   UNL     1       3.517   3.432  16.309  0.00  0.00    +0.000 HD
ENDBRANCH  16  26
ENDBRANCH   1  15
BRANCH   1  28
ATOM     28  C   UNL     1       3.510   3.885  18.551  0.00  0.00    +0.000 A 
ATOM     29  C   UNL     1       2.175   3.940  18.094  0.00  0.00    +0.000 A 
ATOM     30  C   UNL     1       1.258   2.930  18.378  0.00  0.00    +0.000 A 
ATOM     31  C   UNL     1       1.654   1.832  19.131  0.00  0.00    +0.000 A 
ATOM     32  C   UNL     1       2.967   1.743  19.590  0.00  0.00    +0.000 A 
ATOM     33  C   UNL     1       3.878   2.764  19.306  0.00  0.00    +0.000 A 
BRANCH  33  34
ATOM     34  O   UNL     1       5.154   2.680  19.780  0.00  0.00    +0.000 OA
ATOM     35  H   UNL     1       5.722   2.268  19.108  0.00  0.00    +0.000 HD
ENDBRANCH  33  34
ENDBRANCH   1  28
TORSDOF 6
ENDMDL
MODEL 2
REMARK VINA RESULT:      -9.2      5.355     11.084
REMARK  Name = 
REMARK  6 active torsions:
REMARK  status: ('A' for Active; 'I' for Inactive)
REMARK    1  A    between atoms: C_10  and  O_11
REMARK    2  A    between atoms: C_12  and  C_13
REMARK    3  A    between atoms: C_13  and  C_14
REMARK    4  A    between atoms: C_13  and  C_21
REMARK    5  A    between atoms: C_19  and  O_20
REMARK    6  A    between atoms: C_22  and  O_23
REMARK                            x       y       z     vdW  Elec       q    Type
REMARK                         _______ _______ _______ _____ _____    ______ ____
ROOT
ATOM      1  C   UNL     1      -0.921  12.695  20.927  0.00  0.00    +0.000 C 
ENDROOT
BRANCH   1  12
ATOM      2  O   UNL     1      -0.655  10.537  22.752  0.00  0.00    +0.000 OA
ATOM      3  C   UNL     1      -0.109  10.379  21.664  0.00  0.00    +0.000 A 
ATOM      4  O   UNL     1       0.600   9.212  21.401  0.00  0.00    +0.000 OA
ATOM      5  C   UNL     1       1.193   8.957  20.152  0.00  0.00    +0.000 A 
ATOM      6  C   UNL     1       1.844   7.731  20.007  0.00  0.00    +0.000 A 
ATOM      7  C   UNL     1       2.442   7.414  18.789  0.00  0.00    +0.000 A 
ATOM      8  C   UNL     1       2.394   8.329  17.741  0.00  0.00    +0.000 A 
ATOM      9  C   UNL     1       1.742   9.557  17.907  0.00  0.00    +0.000 A 
ATOM     10  C   UNL     1       1.118   9.886  19.118  0.00  0.00    +0.000 A 
ATOM     11  C   UNL     1       0.388  11.133  19.381  0.00  0.00    +0.000 A 
ATOM     12  C   UNL     1      -0.161  11.396  20.582  0.00  0.00    +0.000 A 
BRANCH  11  13
ATOM     13  O   UNL     1       0.236  12.034  18.342  0.00  0.00    +0.000 OA
ATOM     14  H   UNL     1      -0.644  11.961  17.945  0.00  0.00    +0.000 HD
ENDBRANCH  11  13
ENDBRANCH   1  12
BRANCH   1  15
ATOM     15  C   UNL     1      -2.439  12.651  20.613  0.00  0.00    +0.000 A 
ATOM     16  C   UNL     1      -3.016  12.353  19.427  0.00  0.00    +0.000 A 
ATOM     17  C   UNL     1      -4.444  12.048  19.337  0.00  0.00    +0.000 A 
ATOM     18  C   UNL     1      -5.039  11.489  18.198  0.00  0.00    +0.000 A 
ATOM     19  C   UNL     1      -6.393  11.138  18.197  0.00  0.00    +0.000 A 
ATOM     20  C   UNL     1      -7.172  11.352  19.333  0.00  0.00    +0.000 A 
ATOM     21  C   UNL     1      -6.593  11.902  20.473  0.00  0.00    +0.000 A 
ATOM     22  C   UNL     1      -5.238  12.230  20.458  0.00  0.00    +0.000 A 
ATOM     23  O   UNL     1      -4.697  12.753  21.635  0.00  0.00    +0.000 OA
ATOM     24  C   UNL     1      -3.348  13.054  21.735  0.00  0.00    +0.000 A 
ATOM     25  O   UNL     1      -2.944  13.664  22.721  0.00  0.00    +0.000 OA
BRANCH  16  26
ATOM     26  O   UNL     1      -2.346  12.221  18.227  0.00  0.00    +0.000 OA
ATOM     27  H   UNL     1      -2.218  11.282  18.017  0.00  0.00    +0.000 HD
ENDBRANCH  16  26
ENDBRANCH   1  15
BRANCH   1  28
ATOM     28  C   UNL     1      -0.128  13.875  20.297  0.00  0.00    +0.000 A 
ATOM     29  C   UNL     1      -0.679  14.675  19.271  0.00  0.00    +0.000 A 
ATOM     30  C   UNL     1       0.065  15.660  18.627  0.00  0.00    +0.000 A 
ATOM     31  C   UNL     1       1.388  15.874  18.991  0.00  0.00    +0.000 A 
ATOM     32  C   UNL     1       1.960  15.107  20.006  0.00  0.00    +0.000 A 
ATOM     33  C   UNL     1       1.207  14.116  20.643  0.00  0.00    +0.000 A 
BRANCH  33  34
ATOM     34  O   UNL     1       1.783  13.355  21.617  0.00  0.00    +0.000 OA
ATOM     35  H   UNL     1       2.743  13.322  21.477  0.00  0.00    +0.000 HD
ENDBRANCH  33  34
ENDBRANCH   1  28
TORSDOF 6
ENDMDL
MODEL 3
REMARK VINA RESULT:      -9.1      7.979     12.629
REMARK  Name = 
REMARK  6 active torsions:
REMARK  status: ('A' for Active; 'I' for Inactive)
REMARK    1  A    between atoms: C_10  and  O_11
REMARK    2  A    between atoms: C_12  and  C_13
REMARK    3  A    between atoms: C_13  and  C_14
REMARK    4  A    between atoms: C_13  and  C_21
REMARK    5  A    between atoms: C_19  and  O_20
REMARK    6  A    between atoms: C_22  and  O_23
REMARK                            x       y       z     vdW  Elec       q    Type
REMARK                         _______ _______ _______ _____ _____    ______ ____
ROOT
ATOM      1  C   UNL     1      -1.338  13.009  21.258  0.00  0.00    +0.000 C 
ENDROOT
BRANCH   1  12
ATOM      2  O   UNL     1       0.427  10.953  20.411  0.00  0.00    +0.000 OA
ATOM      3  C   UNL     1      -0.546  11.145  19.688  0.00  0.00    +0.000 A 
ATOM      4  O   UNL     1      -0.715  10.394  18.530  0.00  0.00    +0.000 OA
ATOM      5  C   UNL     1      -1.841  10.533  17.700  0.00  0.00    +0.000 A 
ATOM      6  C   UNL     1      -1.906   9.693  16.588  0.00  0.00    +0.000 A 
ATOM      7  C   UNL     1      -3.003   9.774  15.732  0.00  0.00    +0.000 A 
ATOM      8  C   UNL     1      -4.009  10.701  15.992  0.00  0.00    +0.000 A 
ATOM      9  C   UNL     1      -3.924  11.540  17.108  0.00  0.00    +0.000 A 
ATOM     10  C   UNL     1      -2.837  11.460  17.991  0.00  0.00    +0.000 A 
ATOM     11  C   UNL     1      -2.670  12.276  19.201  0.00  0.00    +0.000 A 
ATOM     12  C   UNL     1      -1.583  12.167  19.987  0.00  0.00    +0.000 A 
BRANCH  11  13
ATOM     13  O   UNL     1      -3.687  13.147  19.548  0.00  0.00    +0.000 OA
ATOM     14  H   UNL     1      -4.401  12.682  20.008  0.00  0.00    +0.000 HD
ENDBRANCH  11  13
ENDBRANCH   1  12
BRANCH   1  15
ATOM     15  C   UNL     1      -2.581  13.162  22.172  0.00  0.00    +0.000 A 
ATOM     16  C   UNL     1      -3.440  14.207  22.211  0.00  0.00    +0.000 A 
ATOM     17  C   UNL     1      -4.731  14.099  22.890  0.00  0.00    +0.000 A 
ATOM     18  C   UNL     1      -5.755  15.044  22.745  0.00  0.00    +0.000 A 
ATOM     19  C   UNL     1      -7.001  14.848  23.349  0.00  0.00    +0.000 A 
ATOM     20  C   UNL     1      -7.235  13.707  24.115  0.00  0.00    +0.000 A 
ATOM     21  C   UNL     1      -6.229  12.757  24.263  0.00  0.00    +0.000 A 
ATOM     22  C   UNL     1      -4.999  12.964  23.640  0.00  0.00    +0.000 A 
ATOM     23  O   UNL     1      -4.030  11.970  23.794  0.00  0.00    +0.000 OA
ATOM     24  C   UNL     1      -2.799  12.060  23.164  0.00  0.00    +0.000 A 
ATOM     25  O   UNL     1      -1.920  11.256  23.457  0.00  0.00    +0.000 OA
BRANCH  16  26
ATOM     26  O   UNL     1      -3.250  15.416  21.572  0.00  0.00    +0.000 OA
ATOM     27  H   UNL     1      -2.555  15.334  20.900  0.00  0.00    +0.000 HD
ENDBRANCH  16  26
ENDBRANCH   1  15
BRANCH   1  28
ATOM     28  C   UNL     1      -0.654  14.332  20.810  0.00  0.00    +0.000 A 
ATOM     29  C   UNL     1      -0.670  14.756  19.463  0.00  0.00    +0.000 A 
ATOM     30  C   UNL     1       0.034  15.880  19.038  0.00  0.00    +0.000 A 
ATOM     31  C   UNL     1       0.778  16.614  19.952  0.00  0.00    +0.000 A 
ATOM     32  C   UNL     1       0.809  16.227  21.291  0.00  0.00    +0.000 A 
ATOM     33  C   UNL     1       0.104  15.094  21.708  0.00  0.00    +0.000 A 
BRANCH  33  34
ATOM     34  O   UNL     1       0.159  14.709  23.015  0.00  0.00    +0.000 OA
ATOM     35  H   UNL     1       0.593  15.403  23.539  0.00  0.00    +0.000 HD
ENDBRANCH  33  34
ENDBRANCH   1  28
TORSDOF 6
ENDMDL
MODEL 4
REMARK VINA RESULT:      -8.8      5.382     11.206
REMARK  Name = 
REMARK  6 active torsions:
REMARK  status: ('A' for Active; 'I' for Inactive)
REMARK    1  A    between atoms: C_10  and  O_11
REMARK    2  A    between atoms: C_12  and  C_13
REMARK    3  A    between atoms: C_13  and  C_14
REMARK    4  A    between atoms: C_13  and  C_21
REMARK    5  A    between atoms: C_19  and  O_20
REMARK    6  A    between atoms: C_22  and  O_23
REMARK                            x       y       z     vdW  Elec       q    Type
REMARK                         _______ _______ _______ _____ _____    ______ ____
ROOT
ATOM      1  C   UNL     1      -0.901  12.749  20.729  0.00  0.00    +0.000 C 
ENDROOT
BRANCH   1  12
ATOM      2  O   UNL     1      -0.319  10.973  22.866  0.00  0.00    +0.000 OA
ATOM      3  C   UNL     1       0.087  10.622  21.761  0.00  0.00    +0.000 A 
ATOM      4  O   UNL     1       0.799   9.436  21.623  0.00  0.00    +0.000 OA
ATOM      5  C   UNL     1       1.234   8.960  20.373  0.00  0.00    +0.000 A 
ATOM      6  C   UNL     1       1.906   7.737  20.369  0.00  0.00    +0.000 A 
ATOM      7  C   UNL     1       2.352   7.206  19.160  0.00  0.00    +0.000 A 
ATOM      8  C   UNL     1       2.132   7.909  17.979  0.00  0.00    +0.000 A 
ATOM      9  C   UNL     1       1.462   9.137  18.003  0.00  0.00    +0.000 A 
ATOM     10  C   UNL     1       0.989   9.679  19.207  0.00  0.00    +0.000 A 
ATOM     11  C   UNL     1       0.253  10.943  19.333  0.00  0.00    +0.000 A 
ATOM     12  C   UNL     1      -0.145  11.419  20.528  0.00  0.00    +0.000 A 
BRANCH  11  13
ATOM     13  O   UNL     1      -0.067  11.632  18.177  0.00  0.00    +0.000 OA
ATOM     14  H   UNL     1      -0.816  11.219  17.722  0.00  0.00    +0.000 HD
ENDBRANCH  11  13
ENDBRANCH   1  12
BRANCH   1  15
ATOM     15  C   UNL     1      -2.429  12.661  20.475  0.00  0.00    +0.000 A 
ATOM     16  C   UNL     1      -3.046  12.425  19.295  0.00  0.00    +0.000 A 
ATOM     17  C   UNL     1      -4.463  12.065  19.240  0.00  0.00    +0.000 A 
ATOM     18  C   UNL     1      -5.083  11.564  18.088  0.00  0.00    +0.000 A 
ATOM     19  C   UNL     1      -6.420  11.155  18.116  0.00  0.00    +0.000 A 
ATOM     20  C   UNL     1      -7.156  11.250  19.296  0.00  0.00    +0.000 A 
ATOM     21  C   UNL     1      -6.551  11.740  20.449  0.00  0.00    +0.000 A 
ATOM     22  C   UNL     1      -5.213  12.128  20.404  0.00  0.00    +0.000 A 
ATOM     23  O   UNL     1      -4.642  12.587  21.593  0.00  0.00    +0.000 OA
ATOM     24  C   UNL     1      -3.303  12.940  21.660  0.00  0.00    +0.000 A 
ATOM     25  O   UNL     1      -2.882  13.493  22.672  0.00  0.00    +0.000 OA
BRANCH  16  26
ATOM     26  O   UNL     1      -2.425  12.412  18.062  0.00  0.00    +0.000 OA
ATOM     27  H   UNL     1      -2.952  11.900  17.427  0.00  0.00    +0.000 HD
ENDBRANCH  16  26
ENDBRANCH   1  15
BRANCH   1  28
ATOM     28  C   UNL     1      -0.139  13.840  19.925  0.00  0.00    +0.000 A 
ATOM     29  C   UNL     1       1.190  13.647  19.489  0.00  0.00    +0.000 A 
ATOM     30  C   UNL     1       1.915  14.661  18.866  0.00  0.00    +0.000 A 
ATOM     31  C   UNL     1       1.327  15.903  18.662  0.00  0.00    +0.000 A 
ATOM     32  C   UNL     1       0.013  16.124  19.073  0.00  0.00    +0.000 A 
ATOM     33  C   UNL     1      -0.704  15.102  19.703  0.00  0.00    +0.000 A 
BRANCH  33  34
ATOM     34  O   UNL     1      -1.980  15.335  20.123  0.00  0.00    +0.000 OA
ATOM     35  H   UNL     1      -1.978  15.521  21.076  0.00  0.00    +0.000 HD
ENDBRANCH  33  34
ENDBRANCH   1  28
TORSDOF 6
ENDMDL
MODEL 5
REMARK VINA RESULT:      -8.7      5.468      9.830
REMARK  Name = 
REMARK  6 active torsions:
REMARK  status: ('A' for Active; 'I' for Inactive)
REMARK    1  A    between atoms: C_10  and  O_11
REMARK    2  A    between atoms: C_12  and  C_13
REMARK    3  A    between atoms: C_13  and  C_14
REMARK    4  A    between atoms: C_13  and  C_21
REMARK    5  A    between atoms: C_19  and  O_20
REMARK    6  A    between atoms: C_22  and  O_23
REMARK                            x       y       z     vdW  Elec       q    Type
REMARK                         _______ _______ _______ _____ _____    ______ ____
ROOT
ATOM      1  C   UNL     1      -0.018  12.860  21.891  0.00  0.00    +0.000 C 
ENDROOT
BRANCH   1  12
ATOM      2  O   UNL     1       2.548  14.058  22.084  0.00  0.00    +0.000 OA
ATOM      3  C   UNL     1       1.776  14.588  21.290  0.00  0.00    +0.000 A 
ATOM      4  O   UNL     1       2.174  15.713  20.575  0.00  0.00    +0.000 OA
ATOM      5  C   UNL     1       1.350  16.321  19.611  0.00  0.00    +0.000 A 
ATOM      6  C   UNL     1       1.883  17.421  18.937  0.00  0.00    +0.000 A 
ATOM      7  C   UNL     1       1.121  18.061  17.962  0.00  0.00    +0.000 A 
ATOM      8  C   UNL     1      -0.164  17.603  17.685  0.00  0.00    +0.000 A 
ATOM      9  C   UNL     1      -0.685  16.502  18.375  0.00  0.00    +0.000 A 
ATOM     10  C   UNL     1       0.073  15.833  19.346  0.00  0.00    +0.000 A 
ATOM     11  C   UNL     1      -0.372  14.657  20.104  0.00  0.00    +0.000 A 
ATOM     12  C   UNL     1       0.400  14.083  21.046  0.00  0.00    +0.000 A 
BRANCH  11  13
ATOM     13  O   UNL     1      -1.606  14.112  19.799  0.00  0.00    +0.000 OA
ATOM     14  H   UNL     1      -2.323  14.634  20.188  0.00  0.00    +0.000 HD
ENDBRANCH  11  13
ENDBRANCH   1  12
BRANCH   1  15
ATOM     15  C   UNL     1       0.285  11.492  21.227  0.00  0.00    +0.000 A 
ATOM     16  C   UNL     1       0.426  11.241  19.906  0.00  0.00    +0.000 A 
ATOM     17  C   UNL     1       1.007   9.984  19.432  0.00  0.00    +0.000 A 
ATOM     18  C   UNL     1       1.411   9.778  18.106  0.00  0.00    +0.000 A 
ATOM     19  C   UNL     1       2.039   8.587  17.727  0.00  0.00    +0.000 A 
ATOM     20  C   UNL     1       2.264   7.584  18.669  0.00  0.00    +0.000 A 
ATOM     21  C   UNL     1       1.873   7.778  19.990  0.00  0.00    +0.000 A 
ATOM     22  C   UNL     1       1.262   8.978  20.351  0.00  0.00    +0.000 A 
ATOM     23  O   UNL     1       0.913   9.138  21.694  0.00  0.00    +0.000 OA
ATOM     24  C   UNL     1       0.354  10.319  22.158  0.00  0.00    +0.000 A 
ATOM     25  O   UNL     1      -0.090  10.360  23.301  0.00  0.00    +0.000 OA
BRANCH  16  26
ATOM     26  O   UNL     1       0.133  12.131  18.892  0.00  0.00    +0.000 OA
ATOM     27  H   UNL     1       0.783  12.852  18.881  0.00  0.00    +0.000 HD
ENDBRANCH  16  26
ENDBRANCH   1  15
BRANCH   1  28
ATOM     28  C   UNL     1      -1.490  13.090  22.338  0.00  0.00    +0.000 A 
ATOM     29  C   UNL     1      -2.570  12.454  21.688  0.00  0.00    +0.000 A 
ATOM     30  C   UNL     1      -3.895  12.741  22.012  0.00  0.00    +0.000 A 
ATOM     31  C   UNL     1      -4.176  13.677  22.999  0.00  0.00    +0.000 A 
ATOM     32  C   UNL     1      -3.132  14.316  23.665  0.00  0.00    +0.000 A 
ATOM     33  C   UNL     1      -1.806  14.027  23.330  0.00  0.00    +0.000 A 
BRANCH  33  34
ATOM     34  O   UNL     1      -0.792  14.675  23.971  0.00  0.00    +0.000 OA
ATOM     35  H   UNL     1      -0.057  14.817  23.352  0.00  0.00    +0.000 HD
ENDBRANCH  33  34
ENDBRANCH   1  28
TORSDOF 6
ENDMDL
MODEL 6
REMARK VINA RESULT:      -8.7      7.196     10.806
REMARK  Name = 
REMARK  6 active torsions:
REMARK  status: ('A' for Active; 'I' for Inactive)
REMARK    1  A    between atoms: C_10  and  O_11
REMARK    2  A    between atoms: C_12  and  C_13
REMARK    3  A    between atoms: C_13  and  C_14
REMARK    4  A    between atoms: C_13  and  C_21
REMARK    5  A    between atoms: C_19  and  O_20
REMARK    6  A    between atoms: C_22  and  O_23
REMARK                            x       y       z     vdW  Elec       q    Type
REMARK                         _______ _______ _______ _____ _____    ______ ____
ROOT
ATOM      1  C   UNL     1      -0.499  12.387  20.496  0.00  0.00    +0.000 C 
ENDROOT
BRANCH   1  12
ATOM      2  O   UNL     1      -0.442  11.099  23.026  0.00  0.00    +0.000 OA
ATOM      3  C   UNL     1      -1.478  11.703  22.763  0.00  0.00    +0.000 A 
ATOM      4  O   UNL     1      -2.533  11.707  23.670  0.00  0.00    +0.000 OA
ATOM      5  C   UNL     1      -3.716  12.431  23.444  0.00  0.00    +0.000 A 
ATOM      6  C   UNL     1      -4.682  12.380  24.450  0.00  0.00    +0.000 A 
ATOM      7  C   UNL     1      -5.873  13.086  24.292  0.00  0.00    +0.000 A 
ATOM      8  C   UNL     1      -6.087  13.820  23.128  0.00  0.00    +0.000 A 
ATOM      9  C   UNL     1      -5.109  13.854  22.127  0.00  0.00    +0.000 A 
ATOM     10  C   UNL     1      -3.897  13.166  22.276  0.00  0.00    +0.000 A 
ATOM     11  C   UNL     1      -2.802  13.162  21.298  0.00  0.00    +0.000 A 
ATOM     12  C   UNL     1      -1.675  12.451  21.494  0.00  0.00    +0.000 A 
BRANCH  11  13
ATOM     13  O   UNL     1      -2.931  13.948  20.167  0.00  0.00    +0.000 OA
ATOM     14  H   UNL     1      -3.727  13.713  19.669  0.00  0.00    +0.000 HD
ENDBRANCH  11  13
ENDBRANCH   1  12
BRANCH   1  15
ATOM     15  C   UNL     1       0.099  13.769  20.125  0.00  0.00    +0.000 A 
ATOM     16  C   UNL     1      -0.136  14.483  19.001  0.00  0.00    +0.000 A 
ATOM     17  C   UNL     1       0.243  15.893  18.908  0.00  0.00    +0.000 A 
ATOM     18  C   UNL     1      -0.201  16.740  17.883  0.00  0.00    +0.000 A 
ATOM     19  C   UNL     1       0.123  18.101  17.890  0.00  0.00    +0.000 A 
ATOM     20  C   UNL     1       0.902  18.630  18.918  0.00  0.00    +0.000 A 
ATOM     21  C   UNL     1       1.345  17.801  19.944  0.00  0.00    +0.000 A 
ATOM     22  C   UNL     1       0.999  16.451  19.927  0.00  0.00    +0.000 A 
ATOM     23  O   UNL     1       1.443  15.665  20.993  0.00  0.00    +0.000 OA
ATOM     24  C   UNL     1       1.099  14.326  21.093  0.00  0.00    +0.000 A 
ATOM     25  O   UNL     1       1.643  13.634  21.948  0.00  0.00    +0.000 OA
BRANCH  16  26
ATOM     26  O   UNL     1      -0.808  14.017  17.889  0.00  0.00    +0.000 OA
ATOM     27  H   UNL     1      -0.521  14.500  17.097  0.00  0.00    +0.000 HD
ENDBRANCH  16  26
ENDBRANCH   1  15
BRANCH   1  28
ATOM     28  C   UNL     1      -0.953  11.499  19.304  0.00  0.00    +0.000 A 
ATOM     29  C   UNL     1      -2.304  11.431  18.901  0.00  0.00    +0.000 A 
ATOM     30  C   UNL     1      -2.733  10.554  17.907  0.00  0.00    +0.000 A 
ATOM     31  C   UNL     1      -1.817   9.716  17.286  0.00  0.00    +0.000 A 
ATOM     32  C   UNL     1      -0.473   9.763  17.654  0.00  0.00    +0.000 A 
ATOM     33  C   UNL     1      -0.053  10.642  18.657  0.00  0.00    +0.000 A 
BRANCH  33  34
ATOM     34  O   UNL     1       1.259  10.664  19.027  0.00  0.00    +0.000 OA
ATOM     35  H   UNL     1       1.368  10.181  19.863  0.00  0.00    +0.000 HD
ENDBRANCH  33  34
ENDBRANCH   1  28
TORSDOF 6
ENDMDL
MODEL 7
REMARK VINA RESULT:      -8.7      4.768     10.367
REMARK  Name = 
REMARK  6 active torsions:
REMARK  status: ('A' for Active; 'I' for Inactive)
REMARK    1  A    between atoms: C_10  and  O_11
REMARK    2  A    between atoms: C_12  and  C_13
REMARK    3  A    between atoms: C_13  and  C_14
REMARK    4  A    between atoms: C_13  and  C_21
REMARK    5  A    between atoms: C_19  and  O_20
REMARK    6  A    between atoms: C_22  and  O_23
REMARK                            x       y       z     vdW  Elec       q    Type
REMARK                         _______ _______ _______ _____ _____    ______ ____
ROOT
ATOM      1  C   UNL     1      -0.018  12.233  20.238  0.00  0.00    +0.000 C 
ENDROOT
BRANCH   1  12
ATOM      2  O   UNL     1       0.256  10.615  22.555  0.00  0.00    +0.000 OA
ATOM      3  C   UNL     1       0.659  10.114  21.509  0.00  0.00    +0.000 A 
ATOM      4  O   UNL     1       1.225   8.844  21.517  0.00  0.00    +0.000 OA
ATOM      5  C   UNL     1       1.648   8.201  20.340  0.00  0.00    +0.000 A 
ATOM      6  C   UNL     1       2.165   6.913  20.482  0.00  0.00    +0.000 A 
ATOM      7  C   UNL     1       2.591   6.218  19.352  0.00  0.00    +0.000 A 
ATOM      8  C   UNL     1       2.507   6.825  18.101  0.00  0.00    +0.000 A 
ATOM      9  C   UNL     1       1.992   8.120  17.979  0.00  0.00    +0.000 A 
ATOM     10  C   UNL     1       1.541   8.828  19.102  0.00  0.00    +0.000 A 
ATOM     11  C   UNL     1       0.961  10.177  19.074  0.00  0.00    +0.000 A 
ATOM     12  C   UNL     1       0.577  10.809  20.198  0.00  0.00    +0.000 A 
BRANCH  11  13
ATOM     13  O   UNL     1       0.775  10.783  17.845  0.00  0.00    +0.000 OA
ATOM     14  H   UNL     1       1.393  11.518  17.722  0.00  0.00    +0.000 HD
ENDBRANCH  11  13
ENDBRANCH   1  12
BRANCH   1  15
ATOM     15  C   UNL     1      -1.512  12.313  19.827  0.00  0.00    +0.000 A 
ATOM     16  C   UNL     1      -2.021  12.197  18.580  0.00  0.00    +0.000 A 
ATOM     17  C   UNL     1      -3.452  11.986  18.363  0.00  0.00    +0.000 A 
ATOM     18  C   UNL     1      -3.993  11.606  17.128  0.00  0.00    +0.000 A 
ATOM     19  C   UNL     1      -5.359  11.335  16.999  0.00  0.00    +0.000 A 
ATOM     20  C   UNL     1      -6.203  11.450  18.103  0.00  0.00    +0.000 A 
ATOM     21  C   UNL     1      -5.678  11.822  19.336  0.00  0.00    +0.000 A 
ATOM     22  C   UNL     1      -4.311  12.072  19.448  0.00  0.00    +0.000 A 
ATOM     23  O   UNL     1      -3.827  12.415  20.712  0.00  0.00    +0.000 OA
ATOM     24  C   UNL     1      -2.475  12.625  20.933  0.00  0.00    +0.000 A 
ATOM     25  O   UNL     1      -2.111  13.085  22.011  0.00  0.00    +0.000 OA
BRANCH  16  26
ATOM     26  O   UNL     1      -1.277  12.176  17.417  0.00  0.00    +0.000 OA
ATOM     27  H   UNL     1      -0.898  11.294  17.277  0.00  0.00    +0.000 HD
ENDBRANCH  16  26
ENDBRANCH   1  15
BRANCH   1  28
ATOM     28  C   UNL     1       0.954  13.162  19.457  0.00  0.00    +0.000 A 
ATOM     29  C   UNL     1       2.175  12.684  18.932  0.00  0.00    +0.000 A 
ATOM     30  C   UNL     1       3.099  13.534  18.329  0.00  0.00    +0.000 A 
ATOM     31  C   UNL     1       2.827  14.893  18.236  0.00  0.00    +0.000 A 
ATOM     32  C   UNL     1       1.627  15.396  18.737  0.00  0.00    +0.000 A 
ATOM     33  C   UNL     1       0.708  14.536  19.345  0.00  0.00    +0.000 A 
BRANCH  33  34
ATOM     34  O   UNL     1      -0.452  15.041  19.854  0.00  0.00    +0.000 OA
ATOM     35  H   UNL     1      -1.182  14.430  19.663  0.00  0.00    +0.000 HD
ENDBRANCH  33  34
ENDBRANCH   1  28
TORSDOF 6
ENDMDL
MODEL 8
REMARK VINA RESULT:      -8.6      7.560     11.806
REMARK  Name = 
REMARK  6 active torsions:
REMARK  status: ('A' for Active; 'I' for Inactive)
REMARK    1  A    between atoms: C_10  and  O_11
REMARK    2  A    between atoms: C_12  and  C_13
REMARK    3  A    between atoms: C_13  and  C_14
REMARK    4  A    between atoms: C_13  and  C_21
REMARK    5  A    between atoms: C_19  and  O_20
REMARK    6  A    between atoms: C_22  and  O_23
REMARK                            x       y       z     vdW  Elec       q    Type
REMARK                         _______ _______ _______ _____ _____    ______ ____
ROOT
ATOM      1  C   UNL     1      -0.410  12.571  20.694  0.00  0.00    +0.000 C 
ENDROOT
BRANCH   1  12
ATOM      2  O   UNL     1       1.033  10.445  19.485  0.00  0.00    +0.000 OA
ATOM      3  C   UNL     1      -0.030  10.737  18.944  0.00  0.00    +0.000 A 
ATOM      4  O   UNL     1      -0.444  10.056  17.804  0.00  0.00    +0.000 OA
ATOM      5  C   UNL     1      -1.678  10.311  17.182  0.00  0.00    +0.000 A 
ATOM      6  C   UNL     1      -1.989   9.532  16.067  0.00  0.00    +0.000 A 
ATOM      7  C   UNL     1      -3.204   9.728  15.413  0.00  0.00    +0.000 A 
ATOM      8  C   UNL     1      -4.082  10.706  15.873  0.00  0.00    +0.000 A 
ATOM      9  C   UNL     1      -3.750  11.482  16.989  0.00  0.00    +0.000 A 
ATOM     10  C   UNL     1      -2.541  11.287  17.672  0.00  0.00    +0.000 A 
ATOM     11  C   UNL     1      -2.116  12.030  18.866  0.00  0.00    +0.000 A 
ATOM     12  C   UNL     1      -0.925  11.810  19.453  0.00  0.00    +0.000 A 
BRANCH  11  13
ATOM     13  O   UNL     1      -2.993  12.948  19.412  0.00  0.00    +0.000 OA
ATOM     14  H   UNL     1      -3.041  12.854  20.374  0.00  0.00    +0.000 HD
ENDBRANCH  11  13
ENDBRANCH   1  12
BRANCH   1  15
ATOM     15  C   UNL     1      -1.460  12.733  21.824  0.00  0.00    +0.000 A 
ATOM     16  C   UNL     1      -2.358  13.734  21.963  0.00  0.00    +0.000 A 
ATOM     17  C   UNL     1      -3.485  13.617  22.889  0.00  0.00    +0.000 A 
ATOM     18  C   UNL     1      -4.574  14.498  22.888  0.00  0.00    +0.000 A 
ATOM     19  C   UNL     1      -5.665  14.288  23.738  0.00  0.00    +0.000 A 
ATOM     20  C   UNL     1      -5.676  13.198  24.607  0.00  0.00    +0.000 A 
ATOM     21  C   UNL     1      -4.603  12.312  24.615  0.00  0.00    +0.000 A 
ATOM     22  C   UNL     1      -3.532  12.530  23.749  0.00  0.00    +0.000 A 
ATOM     23  O   UNL     1      -2.491  11.599  23.774  0.00  0.00    +0.000 OA
ATOM     24  C   UNL     1      -1.414  11.700  22.909  0.00  0.00    +0.000 A 
ATOM     25  O   UNL     1      -0.446  10.963  23.074  0.00  0.00    +0.000 OA
BRANCH  16  26
ATOM     26  O   UNL     1      -2.372  14.899  21.222  0.00  0.00    +0.000 OA
ATOM     27  H   UNL     1      -3.276  15.246  21.160  0.00  0.00    +0.000 HD
ENDBRANCH  16  26
ENDBRANCH   1  15
BRANCH   1  28
ATOM     28  C   UNL     1       0.255  13.882  20.188  0.00  0.00    +0.000 A 
ATOM     29  C   UNL     1      -0.256  14.595  19.082  0.00  0.00    +0.000 A 
ATOM     30  C   UNL     1       0.399  15.707  18.557  0.00  0.00    +0.000 A 
ATOM     31  C   UNL     1       1.590  16.137  19.127  0.00  0.00    +0.000 A 
ATOM     32  C   UNL     1       2.118  15.461  20.225  0.00  0.00    +0.000 A 
ATOM     33  C   UNL     1       1.457  14.342  20.742  0.00  0.00    +0.000 A 
BRANCH  33  34
ATOM     34  O   UNL     1       1.993  13.672  21.801  0.00  0.00    +0.000 OA
ATOM     35  H   UNL     1       2.915  13.439  21.604  0.00  0.00    +0.000 HD
ENDBRANCH  33  34
ENDBRANCH   1  28
TORSDOF 6
ENDMDL
MODEL 9
REMARK VINA RESULT:      -8.5      7.685      9.927
REMARK  Name = 
REMARK  6 active torsions:
REMARK  status: ('A' for Active; 'I' for Inactive)
REMARK    1  A    between atoms: C_10  and  O_11
REMARK    2  A    between atoms: C_12  and  C_13
REMARK    3  A    between atoms: C_13  and  C_14
REMARK    4  A    between atoms: C_13  and  C_21
REMARK    5  A    between atoms: C_19  and  O_20
REMARK    6  A    between atoms: C_22  and  O_23
REMARK                            x       y       z     vdW  Elec       q    Type
REMARK                         _______ _______ _______ _____ _____    ______ ____
ROOT
ATOM      1  C   UNL     1      -1.271  12.650  20.498  0.00  0.00    +0.000 C 
ENDROOT
BRANCH   1  12
ATOM      2  O   UNL     1      -4.102  12.863  20.487  0.00  0.00    +0.000 OA
ATOM      3  C   UNL     1      -3.607  12.343  19.491  0.00  0.00    +0.000 A 
ATOM      4  O   UNL     1      -4.424  11.884  18.463  0.00  0.00    +0.000 OA
ATOM      5  C   UNL     1      -3.905  11.335  17.278  0.00  0.00    +0.000 A 
ATOM      6  C   UNL     1      -4.832  10.947  16.310  0.00  0.00    +0.000 A 
ATOM      7  C   UNL     1      -4.381  10.407  15.107  0.00  0.00    +0.000 A 
ATOM      8  C   UNL     1      -3.014  10.250  14.895  0.00  0.00    +0.000 A 
ATOM      9  C   UNL     1      -2.099  10.639  15.880  0.00  0.00    +0.000 A 
ATOM     10  C   UNL     1      -2.532  11.202  17.088  0.00  0.00    +0.000 A 
ATOM     11  C   UNL     1      -1.652  11.665  18.169  0.00  0.00    +0.000 A 
ATOM     12  C   UNL     1      -2.141  12.168  19.318  0.00  0.00    +0.000 A 
BRANCH  11  13
ATOM     13  O   UNL     1      -0.285  11.612  17.967  0.00  0.00    +0.000 OA
ATOM     14  H   UNL     1       0.174  11.321  18.768  0.00  0.00    +0.000 HD
ENDBRANCH  11  13
ENDBRANCH   1  12
BRANCH   1  15
ATOM     15  C   UNL     1      -0.168  13.667  20.105  0.00  0.00    +0.000 A 
ATOM     16  C   UNL     1       1.134  13.401  19.855  0.00  0.00    +0.000 A 
ATOM     17  C   UNL     1       1.997  14.386  19.203  0.00  0.00    +0.000 A 
ATOM     18  C   UNL     1       3.265  14.077  18.693  0.00  0.00    +0.000 A 
ATOM     19  C   UNL     1       4.011  15.038  18.003  0.00  0.00    +0.000 A 
ATOM     20  C   UNL     1       3.502  16.323  17.822  0.00  0.00    +0.000 A 
ATOM     21  C   UNL     1       2.242  16.641  18.319  0.00  0.00    +0.000 A 
ATOM     22  C   UNL     1       1.507  15.665  18.991  0.00  0.00    +0.000 A 
ATOM     23  O   UNL     1       0.237  16.025  19.447  0.00  0.00    +0.000 OA
ATOM     24  C   UNL     1      -0.590  15.105  20.073  0.00  0.00    +0.000 A 
ATOM     25  O   UNL     1      -1.624  15.499  20.605  0.00  0.00    +0.000 OA
BRANCH  16  26
ATOM     26  O   UNL     1       1.759  12.193  20.095  0.00  0.00    +0.000 OA
ATOM     27  H   UNL     1       2.517  12.319  20.688  0.00  0.00    +0.000 HD
ENDBRANCH  16  26
ENDBRANCH   1  15
BRANCH   1  28
ATOM     28  C   UNL     1      -0.790  11.386  21.265  0.00  0.00    +0.000 A 
ATOM     29  C   UNL     1      -0.455  10.192  20.589  0.00  0.00    +0.000 A 
ATOM     30  C   UNL     1      -0.131   9.024  21.276  0.00  0.00    +0.000 A 
ATOM     31  C   UNL     1      -0.134   9.018  22.665  0.00  0.00    +0.000 A 
ATOM     32  C   UNL     1      -0.451  10.183  23.362  0.00  0.00    +0.000 A 
ATOM     33  C   UNL     1      -0.781  11.348  22.665  0.00  0.00    +0.000 A 
BRANCH  33  34
ATOM     34  O   UNL     1      -1.113  12.476  23.356  0.00  0.00    +0.000 OA
ATOM     35  H   UNL     1      -1.442  12.231  24.236  0.00  0.00    +0.000 HD
ENDBRANCH  33  34
ENDBRANCH   1  28
TORSDOF 6
ENDMDL
