MODEL 1
REMARK VINA RESULT:      -6.4      0.000      0.000
REMARK  Name = 
REMARK  5 active torsions:
REMARK  status: ('A' for Active; 'I' for Inactive)
REMARK    1  A    between atoms: C_1  and  C_2
REMARK    2  A    between atoms: C_7  and  N_8
REMARK    3  A    between atoms: C_11  and  C_12
REMARK    4  A    between atoms: C_12  and  C_13
REMARK    5  A    between atoms: C_13  and  N_14
REMARK                            x       y       z     vdW  Elec       q    Type
REMARK                         _______ _______ _______ _____ _____    ______ ____
ROOT
ATOM      1  N   UNL     1       4.427   4.742  18.602  0.00  0.00    +0.000 N 
ATOM      2  C   UNL     1       4.014   3.654  17.864  0.00  0.00    +0.000 A 
ATOM      3  C   UNL     1       2.786   3.233  18.322  0.00  0.00    +0.000 A 
ATOM      4  C   UNL     1       2.437   4.051  19.421  0.00  0.00    +0.000 A 
ATOM      5  C   UNL     1       3.489   4.935  19.595  0.00  0.00    +0.000 A 
ENDROOT
BRANCH   1  12
ATOM      6  C   UNL     1       4.576   6.897  16.489  0.00  0.00    +0.000 C 
ATOM      7  C   UNL     1       5.709   6.504  17.403  0.00  0.00    +0.000 A 
ATOM      8  C   UNL     1       6.909   7.234  17.303  0.00  0.00    +0.000 A 
ATOM      9  C   UNL     1       7.972   7.011  18.183  0.00  0.00    +0.000 A 
ATOM     10  C   UNL     1       7.853   6.057  19.186  0.00  0.00    +0.000 A 
ATOM     11  C   UNL     1       6.676   5.321  19.306  0.00  0.00    +0.000 A 
ATOM     12  C   UNL     1       5.604   5.524  18.414  0.00  0.00    +0.000 A 
ENDBRANCH   1  12
BRANCH   4  13
ATOM     13  C   UNL     1       1.193   3.964  20.236  0.00  0.00    +0.000 C 
BRANCH  13  14
ATOM     14  C   UNL     1       1.229   2.793  21.225  0.00  0.00    +0.000 C 
BRANCH  14  15
ATOM     15  N   UNL     1       2.321   2.936  22.189  0.00  0.00    +0.000 NA
ATOM     16  H   UNL     1       3.142   2.435  21.849  0.00  0.00    +0.000 HD
ATOM     17  H   UNL     1       2.053   2.485  23.062  0.00  0.00    +0.000 HD
ENDBRANCH  14  15
ENDBRANCH  13  14
ENDBRANCH   4  13
TORSDOF 4
ENDMDL
MODEL 2
REMARK VINA RESULT:      -6.3      1.598      5.691
REMARK  Name = 
REMARK  5 active torsions:
REMARK  status: ('A' for Active; 'I' for Inactive)
REMARK    1  A    between atoms: C_1  and  C_2
REMARK    2  A    between atoms: C_7  and  N_8
REMARK    3  A    between atoms: C_11  and  C_12
REMARK    4  A    between atoms: C_12  and  C_13
REMARK    5  A    between atoms: C_13  and  N_14
REMARK                            x       y       z     vdW  Elec       q    Type
REMARK                         _______ _______ _______ _____ _____    ______ ____
ROOT
ATOM      1  N   UNL     1       3.581   5.282  18.267  0.00  0.00    +0.000 N 
ATOM      2  C   UNL     1       3.385   6.459  17.575  0.00  0.00    +0.000 A 
ATOM      3  C   UNL     1       4.606   6.995  17.235  0.00  0.00    +0.000 A 
ATOM      4  C   UNL     1       5.607   6.155  17.776  0.00  0.00    +0.000 A 
ATOM      5  C   UNL     1       4.942   5.141  18.443  0.00  0.00    +0.000 A 
ENDROOT
BRANCH   1  12
ATOM      6  C   UNL     1       1.852   5.936  20.657  0.00  0.00    +0.000 C 
ATOM      7  C   UNL     1       1.802   4.644  19.883  0.00  0.00    +0.000 A 
ATOM      8  C   UNL     1       0.838   3.693  20.267  0.00  0.00    +0.000 A 
ATOM      9  C   UNL     1       0.647   2.514  19.539  0.00  0.00    +0.000 A 
ATOM     10  C   UNL     1       1.413   2.268  18.407  0.00  0.00    +0.000 A 
ATOM     11  C   UNL     1       2.374   3.193  18.005  0.00  0.00    +0.000 A 
ATOM     12  C   UNL     1       2.588   4.376  18.741  0.00  0.00    +0.000 A 
ENDBRANCH   1  12
BRANCH   4  13
ATOM     13  C   UNL     1       7.081   6.341  17.662  0.00  0.00    +0.000 C 
BRANCH  13  14
ATOM     14  C   UNL     1       7.860   5.311  18.489  0.00  0.00    +0.000 C 
BRANCH  14  15
ATOM     15  N   UNL     1       8.199   4.129  17.696  0.00  0.00    +0.000 NA
ATOM     16  H   UNL     1       7.747   4.191  16.783  0.00  0.00    +0.000 HD
ATOM     17  H   UNL     1       7.811   3.303  18.149  0.00  0.00    +0.000 HD
ENDBRANCH  14  15
ENDBRANCH  13  14
ENDBRANCH   4  13
TORSDOF 4
ENDMDL
MODEL 3
REMARK VINA RESULT:      -6.3      1.695      5.595
REMARK  Name = 
REMARK  5 active torsions:
REMARK  status: ('A' for Active; 'I' for Inactive)
REMARK    1  A    between atoms: C_1  and  C_2
REMARK    2  A    between atoms: C_7  and  N_8
REMARK    3  A    between atoms: C_11  and  C_12
REMARK    4  A    between atoms: C_12  and  C_13
REMARK    5  A    between atoms: C_13  and  N_14
REMARK                            x       y       z     vdW  Elec       q    Type
REMARK                         _______ _______ _______ _____ _____    ______ ____
ROOT
ATOM      1  N   UNL     1       3.625   5.265  18.610  0.00  0.00    +0.000 N 
ATOM      2  C   UNL     1       3.280   6.437  17.972  0.00  0.00    +0.000 A 
ATOM      3  C   UNL     1       4.376   6.929  17.302  0.00  0.00    +0.000 A 
ATOM      4  C   UNL     1       5.464   6.066  17.569  0.00  0.00    +0.000 A 
ATOM      5  C   UNL     1       4.978   5.082  18.414  0.00  0.00    +0.000 A 
ENDROOT
BRANCH   1  12
ATOM      6  C   UNL     1       2.320   2.851  17.344  0.00  0.00    +0.000 C 
ATOM      7  C   UNL     1       2.119   3.292  18.771  0.00  0.00    +0.000 A 
ATOM      8  C   UNL     1       1.307   2.487  19.592  0.00  0.00    +0.000 A 
ATOM      9  C   UNL     1       1.154   2.758  20.955  0.00  0.00    +0.000 A 
ATOM     10  C   UNL     1       1.815   3.838  21.525  0.00  0.00    +0.000 A 
ATOM     11  C   UNL     1       2.625   4.650  20.735  0.00  0.00    +0.000 A 
ATOM     12  C   UNL     1       2.774   4.398  19.356  0.00  0.00    +0.000 A 
ENDBRANCH   1  12
BRANCH   4  13
ATOM     13  C   UNL     1       6.856   6.202  17.056  0.00  0.00    +0.000 C 
BRANCH  13  14
ATOM     14  C   UNL     1       7.415   4.871  16.539  0.00  0.00    +0.000 C 
BRANCH  14  15
ATOM     15  N   UNL     1       8.134   4.146  17.588  0.00  0.00    +0.000 NA
ATOM     16  H   UNL     1       8.174   3.155  17.349  0.00  0.00    +0.000 HD
ATOM     17  H   UNL     1       7.605   4.209  18.456  0.00  0.00    +0.000 HD
ENDBRANCH  14  15
ENDBRANCH  13  14
ENDBRANCH   4  13
TORSDOF 4
ENDMDL
MODEL 4
REMARK VINA RESULT:      -6.3      2.185      5.934
REMARK  Name = 
REMARK  5 active torsions:
REMARK  status: ('A' for Active; 'I' for Inactive)
REMARK    1  A    between atoms: C_1  and  C_2
REMARK    2  A    between atoms: C_7  and  N_8
REMARK    3  A    between atoms: C_11  and  C_12
REMARK    4  A    between atoms: C_12  and  C_13
REMARK    5  A    between atoms: C_13  and  N_14
REMARK                            x       y       z     vdW  Elec       q    Type
REMARK                         _______ _______ _______ _____ _____    ______ ____
ROOT
ATOM      1  N   UNL     1       4.325   4.337  18.253  0.00  0.00    +0.000 N 
ATOM      2  C   UNL     1       5.641   4.567  18.592  0.00  0.00    +0.000 A 
ATOM      3  C   UNL     1       6.335   4.969  17.474  0.00  0.00    +0.000 A 
ATOM      4  C   UNL     1       5.438   4.941  16.381  0.00  0.00    +0.000 A 
ATOM      5  C   UNL     1       4.226   4.503  16.887  0.00  0.00    +0.000 A 
ENDROOT
BRANCH   1  12
ATOM      6  C   UNL     1       3.424   1.467  18.544  0.00  0.00    +0.000 C 
ATOM      7  C   UNL     1       2.788   2.646  19.236  0.00  0.00    +0.000 A 
ATOM      8  C   UNL     1       1.732   2.384  20.129  0.00  0.00    +0.000 A 
ATOM      9  C   UNL     1       1.158   3.402  20.896  0.00  0.00    +0.000 A 
ATOM     10  C   UNL     1       1.633   4.703  20.789  0.00  0.00    +0.000 A 
ATOM     11  C   UNL     1       2.678   4.989  19.913  0.00  0.00    +0.000 A 
ATOM     12  C   UNL     1       3.254   3.974  19.121  0.00  0.00    +0.000 A 
ENDBRANCH   1  12
BRANCH   4  13
ATOM     13  C   UNL     1       5.746   5.297  14.968  0.00  0.00    +0.000 C 
BRANCH  13  14
ATOM     14  C   UNL     1       6.814   4.381  14.359  0.00  0.00    +0.000 C 
BRANCH  14  15
ATOM     15  N   UNL     1       6.251   3.514  13.323  0.00  0.00    +0.000 NA
ATOM     16  H   UNL     1       5.632   4.059  12.723  0.00  0.00    +0.000 HD
ATOM     17  H   UNL     1       5.668   2.805  13.764  0.00  0.00    +0.000 HD
ENDBRANCH  14  15
ENDBRANCH  13  14
ENDBRANCH   4  13
TORSDOF 4
ENDMDL
MODEL 5
REMARK VINA RESULT:      -6.2      1.686      2.507
REMARK  Name = 
REMARK  5 active torsions:
REMARK  status: ('A' for Active; 'I' for Inactive)
REMARK    1  A    between atoms: C_1  and  C_2
REMARK    2  A    between atoms: C_7  and  N_8
REMARK    3  A    between atoms: C_11  and  C_12
REMARK    4  A    between atoms: C_12  and  C_13
REMARK    5  A    between atoms: C_13  and  N_14
REMARK                            x       y       z     vdW  Elec       q    Type
REMARK                         _______ _______ _______ _____ _____    ______ ____
ROOT
ATOM      1  N   UNL     1       3.686   4.388  17.794  0.00  0.00    +0.000 N 
ATOM      2  C   UNL     1       2.723   5.347  18.025  0.00  0.00    +0.000 A 
ATOM      3  C   UNL     1       1.733   4.815  18.820  0.00  0.00    +0.000 A 
ATOM      4  C   UNL     1       2.057   3.458  19.054  0.00  0.00    +0.000 A 
ATOM      5  C   UNL     1       3.237   3.219  18.371  0.00  0.00    +0.000 A 
ENDROOT
BRANCH   1  12
ATOM      6  C   UNL     1       6.223   5.279  19.174  0.00  0.00    +0.000 C 
ATOM      7  C   UNL     1       6.096   4.999  17.698  0.00  0.00    +0.000 A 
ATOM      8  C   UNL     1       7.259   5.106  16.913  0.00  0.00    +0.000 A 
ATOM      9  C   UNL     1       7.257   4.760  15.559  0.00  0.00    +0.000 A 
ATOM     10  C   UNL     1       6.092   4.294  14.964  0.00  0.00    +0.000 A 
ATOM     11  C   UNL     1       4.927   4.178  15.719  0.00  0.00    +0.000 A 
ATOM     12  C   UNL     1       4.911   4.541  17.080  0.00  0.00    +0.000 A 
ENDBRANCH   1  12
BRANCH   4  13
ATOM     13  C   UNL     1       1.273   2.483  19.863  0.00  0.00    +0.000 C 
BRANCH  13  14
ATOM     14  C   UNL     1       1.284   2.828  21.356  0.00  0.00    +0.000 C 
BRANCH  14  15
ATOM     15  N   UNL     1       2.609   2.630  21.945  0.00  0.00    +0.000 NA
ATOM     16  H   UNL     1       3.102   1.898  21.433  0.00  0.00    +0.000 HD
ATOM     17  H   UNL     1       2.500   2.286  22.898  0.00  0.00    +0.000 HD
ENDBRANCH  14  15
ENDBRANCH  13  14
ENDBRANCH   4  13
TORSDOF 4
ENDMDL
MODEL 6
REMARK VINA RESULT:      -6.2      2.102      5.768
REMARK  Name = 
REMARK  5 active torsions:
REMARK  status: ('A' for Active; 'I' for Inactive)
REMARK    1  A    between atoms: C_1  and  C_2
REMARK    2  A    between atoms: C_7  and  N_8
REMARK    3  A    between atoms: C_11  and  C_12
REMARK    4  A    between atoms: C_12  and  C_13
REMARK    5  A    between atoms: C_13  and  N_14
REMARK                            x       y       z     vdW  Elec       q    Type
REMARK                         _______ _______ _______ _____ _____    ______ ____
ROOT
ATOM      1  N   UNL     1       4.250   4.358  18.258  0.00  0.00    +0.000 N 
ATOM      2  C   UNL     1       5.586   4.427  18.591  0.00  0.00    +0.000 A 
ATOM      3  C   UNL     1       6.306   4.851  17.498  0.00  0.00    +0.000 A 
ATOM      4  C   UNL     1       5.400   5.004  16.423  0.00  0.00    +0.000 A 
ATOM      5  C   UNL     1       4.155   4.647  16.912  0.00  0.00    +0.000 A 
ENDROOT
BRANCH   1  12
ATOM      6  C   UNL     1       2.598   6.499  19.606  0.00  0.00    +0.000 C 
ATOM      7  C   UNL     1       2.401   5.016  19.787  0.00  0.00    +0.000 A 
ATOM      8  C   UNL     1       1.332   4.596  20.600  0.00  0.00    +0.000 A 
ATOM      9  C   UNL     1       1.009   3.242  20.735  0.00  0.00    +0.000 A 
ATOM     10  C   UNL     1       1.746   2.282  20.054  0.00  0.00    +0.000 A 
ATOM     11  C   UNL     1       2.809   2.671  19.243  0.00  0.00    +0.000 A 
ATOM     12  C   UNL     1       3.156   4.031  19.112  0.00  0.00    +0.000 A 
ENDBRANCH   1  12
BRANCH   4  13
ATOM     13  C   UNL     1       5.728   5.445  15.038  0.00  0.00    +0.000 C 
BRANCH  13  14
ATOM     14  C   UNL     1       6.844   4.601  14.411  0.00  0.00    +0.000 C 
BRANCH  14  15
ATOM     15  N   UNL     1       6.305   3.447  13.690  0.00  0.00    +0.000 NA
ATOM     16  H   UNL     1       5.550   3.752  13.077  0.00  0.00    +0.000 HD
ATOM     17  H   UNL     1       5.886   2.805  14.360  0.00  0.00    +0.000 HD
ENDBRANCH  14  15
ENDBRANCH  13  14
ENDBRANCH   4  13
TORSDOF 4
ENDMDL
MODEL 7
REMARK VINA RESULT:      -6.2      2.069      5.801
REMARK  Name = 
REMARK  5 active torsions:
REMARK  status: ('A' for Active; 'I' for Inactive)
REMARK    1  A    between atoms: C_1  and  C_2
REMARK    2  A    between atoms: C_7  and  N_8
REMARK    3  A    between atoms: C_11  and  C_12
REMARK    4  A    between atoms: C_12  and  C_13
REMARK    5  A    between atoms: C_13  and  N_14
REMARK                            x       y       z     vdW  Elec       q    Type
REMARK                         _______ _______ _______ _____ _____    ______ ____
ROOT
ATOM      1  N   UNL     1       3.961   4.746  18.170  0.00  0.00    +0.000 N 
ATOM      2  C   UNL     1       3.805   5.903  17.437  0.00  0.00    +0.000 A 
ATOM      3  C   UNL     1       4.888   6.063  16.603  0.00  0.00    +0.000 A 
ATOM      4  C   UNL     1       5.783   4.998  16.857  0.00  0.00    +0.000 A 
ATOM      5  C   UNL     1       5.203   4.236  17.858  0.00  0.00    +0.000 A 
ENDROOT
BRANCH   1  12
ATOM      6  C   UNL     1       2.491   2.177  17.562  0.00  0.00    +0.000 C 
ATOM      7  C   UNL     1       2.311   2.999  18.812  0.00  0.00    +0.000 A 
ATOM      8  C   UNL     1       1.435   2.503  19.796  0.00  0.00    +0.000 A 
ATOM      9  C   UNL     1       1.291   3.143  21.031  0.00  0.00    +0.000 A 
ATOM     10  C   UNL     1       2.026   4.288  21.309  0.00  0.00    +0.000 A 
ATOM     11  C   UNL     1       2.900   4.798  20.353  0.00  0.00    +0.000 A 
ATOM     12  C   UNL     1       3.041   4.174  19.097  0.00  0.00    +0.000 A 
ENDBRANCH   1  12
BRANCH   4  13
ATOM     13  C   UNL     1       7.093   4.758  16.190  0.00  0.00    +0.000 C 
BRANCH  13  14
ATOM     14  C   UNL     1       6.977   4.783  14.661  0.00  0.00    +0.000 C 
BRANCH  14  15
ATOM     15  N   UNL     1       6.293   3.592  14.154  0.00  0.00    +0.000 NA
ATOM     16  H   UNL     1       6.091   3.715  13.162  0.00  0.00    +0.000 HD
ATOM     17  H   UNL     1       5.392   3.505  14.620  0.00  0.00    +0.000 HD
ENDBRANCH  14  15
ENDBRANCH  13  14
ENDBRANCH   4  13
TORSDOF 4
ENDMDL
MODEL 8
REMARK VINA RESULT:      -6.2      1.642      5.805
REMARK  Name = 
REMARK  5 active torsions:
REMARK  status: ('A' for Active; 'I' for Inactive)
REMARK    1  A    between atoms: C_1  and  C_2
REMARK    2  A    between atoms: C_7  and  N_8
REMARK    3  A    between atoms: C_11  and  C_12
REMARK    4  A    between atoms: C_12  and  C_13
REMARK    5  A    between atoms: C_13  and  N_14
REMARK                            x       y       z     vdW  Elec       q    Type
REMARK                         _______ _______ _______ _____ _____    ______ ____
ROOT
ATOM      1  N   UNL     1       4.221   4.436  18.345  0.00  0.00    +0.000 N 
ATOM      2  C   UNL     1       4.341   4.603  16.982  0.00  0.00    +0.000 A 
ATOM      3  C   UNL     1       5.627   4.992  16.683  0.00  0.00    +0.000 A 
ATOM      4  C   UNL     1       6.327   5.126  17.905  0.00  0.00    +0.000 A 
ATOM      5  C   UNL     1       5.420   4.823  18.905  0.00  0.00    +0.000 A 
ENDROOT
BRANCH   1  12
ATOM      6  C   UNL     1       3.471   1.509  18.418  0.00  0.00    +0.000 C 
ATOM      7  C   UNL     1       2.689   2.617  19.076  0.00  0.00    +0.000 A 
ATOM      8  C   UNL     1       1.556   2.256  19.828  0.00  0.00    +0.000 A 
ATOM      9  C   UNL     1       0.835   3.204  20.561  0.00  0.00    +0.000 A 
ATOM     10  C   UNL     1       1.239   4.533  20.560  0.00  0.00    +0.000 A 
ATOM     11  C   UNL     1       2.358   4.917  19.824  0.00  0.00    +0.000 A 
ATOM     12  C   UNL     1       3.081   3.974  19.067  0.00  0.00    +0.000 A 
ENDBRANCH   1  12
BRANCH   4  13
ATOM     13  C   UNL     1       7.751   5.529  18.074  0.00  0.00    +0.000 C 
BRANCH  13  14
ATOM     14  C   UNL     1       7.899   7.028  18.361  0.00  0.00    +0.000 C 
BRANCH  14  15
ATOM     15  N   UNL     1       7.675   7.831  17.158  0.00  0.00    +0.000 NA
ATOM     16  H   UNL     1       7.972   7.303  16.338  0.00  0.00    +0.000 HD
ATOM     17  H   UNL     1       8.271   8.656  17.196  0.00  0.00    +0.000 HD
ENDBRANCH  14  15
ENDBRANCH  13  14
ENDBRANCH   4  13
TORSDOF 4
ENDMDL
MODEL 9
REMARK VINA RESULT:      -6.2      2.105      5.739
REMARK  Name = 
REMARK  5 active torsions:
REMARK  status: ('A' for Active; 'I' for Inactive)
REMARK    1  A    between atoms: C_1  and  C_2
REMARK    2  A    between atoms: C_7  and  N_8
REMARK    3  A    between atoms: C_11  and  C_12
REMARK    4  A    between atoms: C_12  and  C_13
REMARK    5  A    between atoms: C_13  and  N_14
REMARK                            x       y       z     vdW  Elec       q    Type
REMARK                         _______ _______ _______ _____ _____    ______ ____
ROOT
ATOM      1  N   UNL     1       4.380   4.309  18.757  0.00  0.00    +0.000 N 
ATOM      2  C   UNL     1       5.220   5.358  19.064  0.00  0.00    +0.000 A 
ATOM      3  C   UNL     1       6.126   5.528  18.042  0.00  0.00    +0.000 A 
ATOM      4  C   UNL     1       5.883   4.517  17.082  0.00  0.00    +0.000 A 
ATOM      5  C   UNL     1       4.835   3.759  17.577  0.00  0.00    +0.000 A 
ENDROOT
BRANCH   1  12
ATOM      6  C   UNL     1       1.548   4.669  17.765  0.00  0.00    +0.000 C 
ATOM      7  C   UNL     1       1.928   4.043  19.083  0.00  0.00    +0.000 A 
ATOM      8  C   UNL     1       0.889   3.537  19.886  0.00  0.00    +0.000 A 
ATOM      9  C   UNL     1       1.156   2.844  21.070  0.00  0.00    +0.000 A 
ATOM     10  C   UNL     1       2.470   2.637  21.471  0.00  0.00    +0.000 A 
ATOM     11  C   UNL     1       3.517   3.128  20.694  0.00  0.00    +0.000 A 
ATOM     12  C   UNL     1       3.260   3.844  19.507  0.00  0.00    +0.000 A 
ENDBRANCH   1  12
BRANCH   4  13
ATOM     13  C   UNL     1       6.620   4.307  15.805  0.00  0.00    +0.000 C 
BRANCH  13  14
ATOM     14  C   UNL     1       5.683   4.283  14.592  0.00  0.00    +0.000 C 
BRANCH  14  15
ATOM     15  N   UNL     1       6.259   3.523  13.482  0.00  0.00    +0.000 NA
ATOM     16  H   UNL     1       5.512   3.200  12.868  0.00  0.00    +0.000 HD
ATOM     17  H   UNL     1       6.707   2.686  13.850  0.00  0.00    +0.000 HD
ENDBRANCH  14  15
ENDBRANCH  13  14
ENDBRANCH   4  13
TORSDOF 4
ENDMDL
