MODEL 1
REMARK VINA RESULT:      -7.7      0.000      0.000
REMARK  Name = 
REMARK  7 active torsions:
REMARK  status: ('A' for Active; 'I' for Inactive)
REMARK    1  A    between atoms: C_1  and  C_2
REMARK    2  A    between atoms: C_2  and  C_3
REMARK    3  A    between atoms: C_3  and  C_4
REMARK    4  A    between atoms: C_9  and  C_10
REMARK    5  A    between atoms: C_13  and  C_14
REMARK    6  A    between atoms: C_17  and  C_18
REMARK    7  A    between atoms: C_18  and  O_20
REMARK                            x       y       z     vdW  Elec       q    Type
REMARK                         _______ _______ _______ _____ _____    ______ ____
ROOT
ATOM      1  C   UNL     1       1.429   8.579  19.779  0.00  0.00    +0.000 A 
ATOM      2  C   UNL     1       1.713   7.421  20.468  0.00  0.00    +0.000 A 
ATOM      3  N   UNL     1       2.556   6.528  19.820  0.00  0.00    +0.000 NA
ATOM      4  C   UNL     1       2.932   7.009  18.647  0.00  0.00    +0.000 A 
ATOM      5  S   UNL     1       2.202   8.532  18.265  0.00  0.00    +0.000 S 
ENDROOT
BRANCH   1  11
ATOM      6  C   UNL     1      -2.002  12.211  20.279  0.00  0.00    +0.000 A 
ATOM      7  C   UNL     1      -2.695  11.997  19.071  0.00  0.00    +0.000 A 
ATOM      8  C   UNL     1      -2.346  10.979  18.192  0.00  0.00    +0.000 A 
ATOM      9  C   UNL     1      -1.271  10.137  18.476  0.00  0.00    +0.000 A 
ATOM     10  C   UNL     1      -0.537  10.318  19.666  0.00  0.00    +0.000 A 
ATOM     11  C   UNL     1       0.591   9.707  20.298  0.00  0.00    +0.000 A 
ATOM     12  N   UNL     1       0.871  10.286  21.474  0.00  0.00    +0.000 NA
ATOM     13  N   UNL     1      -0.043  11.261  21.580  0.00  0.00    +0.000 N 
ATOM     14  C   UNL     1      -0.923  11.340  20.530  0.00  0.00    +0.000 A 
ATOM     15  H   UNL     1      -0.014  11.855  22.401  0.00  0.00    +0.000 HD
BRANCH   6  16
ATOM     16  C   UNL     1      -2.430  13.319  21.209  0.00  0.00    +0.000 C 
BRANCH  16  18
ATOM     17  C   UNL     1      -3.033  12.327  23.483  0.00  0.00    +0.000 C 
ATOM     18  C   UNL     1      -3.549  12.924  22.180  0.00  0.00    +0.000 C 
ENDBRANCH  16  18
ENDBRANCH   6  16
ENDBRANCH   1  11
BRANCH   4  19
ATOM     19  C   UNL     1       3.858   6.412  17.726  0.00  0.00    +0.000 A 
ATOM     20  C   UNL     1       4.573   7.177  16.885  0.00  0.00    +0.000 A 
ATOM     21  C   UNL     1       5.474   6.566  15.932  0.00  0.00    +0.000 A 
ATOM     22  C   UNL     1       5.619   5.229  15.852  0.00  0.00    +0.000 A 
ATOM     23  C   UNL     1       4.831   4.390  16.791  0.00  0.00    +0.000 A 
ATOM     24  O   UNL     1       4.922   3.164  16.765  0.00  0.00    +0.000 OA
ATOM     25  N   UNL     1       4.006   5.041  17.667  0.00  0.00    +0.000 N 
ATOM     26  H   UNL     1       3.465   4.459  18.298  0.00  0.00    +0.000 HD
BRANCH  22  27
ATOM     27  C   UNL     1       6.538   4.660  14.843  0.00  0.00    +0.000 C 
ATOM     28  O   UNL     1       7.555   5.227  14.471  0.00  0.00    +0.000 OA
BRANCH  27  29
ATOM     29  O   UNL     1       6.169   3.457  14.353  0.00  0.00    +0.000 OA
ATOM     30  H   UNL     1       5.242   3.190  14.567  0.00  0.00    +0.000 HD
ENDBRANCH  27  29
ENDBRANCH  22  27
ENDBRANCH   4  19
TORSDOF 6
ENDMDL
MODEL 2
REMARK VINA RESULT:      -7.6      0.951      1.463
REMARK  Name = 
REMARK  7 active torsions:
REMARK  status: ('A' for Active; 'I' for Inactive)
REMARK    1  A    between atoms: C_1  and  C_2
REMARK    2  A    between atoms: C_2  and  C_3
REMARK    3  A    between atoms: C_3  and  C_4
REMARK    4  A    between atoms: C_9  and  C_10
REMARK    5  A    between atoms: C_13  and  C_14
REMARK    6  A    between atoms: C_17  and  C_18
REMARK    7  A    between atoms: C_18  and  O_20
REMARK                            x       y       z     vdW  Elec       q    Type
REMARK                         _______ _______ _______ _____ _____    ______ ____
ROOT
ATOM      1  C   UNL     1       1.229   8.802  19.745  0.00  0.00    +0.000 A 
ATOM      2  C   UNL     1       1.514   7.722  20.550  0.00  0.00    +0.000 A 
ATOM      3  N   UNL     1       2.381   6.782  20.010  0.00  0.00    +0.000 NA
ATOM      4  C   UNL     1       2.773   7.149  18.802  0.00  0.00    +0.000 A 
ATOM      5  S   UNL     1       2.031   8.615  18.257  0.00  0.00    +0.000 S 
ENDROOT
BRANCH   1  11
ATOM      6  C   UNL     1      -2.328  12.344  19.875  0.00  0.00    +0.000 A 
ATOM      7  C   UNL     1      -3.062  11.930  18.746  0.00  0.00    +0.000 A 
ATOM      8  C   UNL     1      -2.707  10.806  18.008  0.00  0.00    +0.000 A 
ATOM      9  C   UNL     1      -1.587  10.054  18.360  0.00  0.00    +0.000 A 
ATOM     10  C   UNL     1      -0.812  10.434  19.474  0.00  0.00    +0.000 A 
ATOM     11  C   UNL     1       0.366   9.964  20.134  0.00  0.00    +0.000 A 
ATOM     12  N   UNL     1       0.672  10.719  21.198  0.00  0.00    +0.000 NA
ATOM     13  N   UNL     1      -0.278  11.666  21.204  0.00  0.00    +0.000 N 
ATOM     14  C   UNL     1      -1.203  11.558  20.198  0.00  0.00    +0.000 A 
ATOM     15  H   UNL     1      -0.239  12.375  21.928  0.00  0.00    +0.000 HD
BRANCH   6  16
ATOM     16  C   UNL     1      -2.762  13.561  20.653  0.00  0.00    +0.000 C 
BRANCH  16  18
ATOM     17  C   UNL     1      -3.689  12.750  22.889  0.00  0.00    +0.000 C 
ATOM     18  C   UNL     1      -4.007  13.338  21.521  0.00  0.00    +0.000 C 
ENDBRANCH  16  18
ENDBRANCH   6  16
ENDBRANCH   1  11
BRANCH   4  19
ATOM     19  C   UNL     1       3.725   6.477  17.962  0.00  0.00    +0.000 A 
ATOM     20  C   UNL     1       3.509   5.214  17.561  0.00  0.00    +0.000 A 
ATOM     21  C   UNL     1       4.491   4.530  16.749  0.00  0.00    +0.000 A 
ATOM     22  C   UNL     1       5.641   5.125  16.378  0.00  0.00    +0.000 A 
ATOM     23  C   UNL     1       5.870   6.525  16.819  0.00  0.00    +0.000 A 
ATOM     24  O   UNL     1       6.901   7.119  16.511  0.00  0.00    +0.000 OA
ATOM     25  N   UNL     1       4.892   7.107  17.578  0.00  0.00    +0.000 N 
ATOM     26  H   UNL     1       5.061   8.060  17.882  0.00  0.00    +0.000 HD
BRANCH  22  27
ATOM     27  C   UNL     1       6.618   4.368  15.566  0.00  0.00    +0.000 C 
ATOM     28  O   UNL     1       6.306   3.723  14.576  0.00  0.00    +0.000 OA
BRANCH  27  29
ATOM     29  O   UNL     1       7.894   4.438  16.002  0.00  0.00    +0.000 OA
ATOM     30  H   UNL     1       8.071   3.952  16.844  0.00  0.00    +0.000 HD
ENDBRANCH  27  29
ENDBRANCH  22  27
ENDBRANCH   4  19
TORSDOF 6
ENDMDL
MODEL 3
REMARK VINA RESULT:      -7.6      4.432     10.027
REMARK  Name = 
REMARK  7 active torsions:
REMARK  status: ('A' for Active; 'I' for Inactive)
REMARK    1  A    between atoms: C_1  and  C_2
REMARK    2  A    between atoms: C_2  and  C_3
REMARK    3  A    between atoms: C_3  and  C_4
REMARK    4  A    between atoms: C_9  and  C_10
REMARK    5  A    between atoms: C_13  and  C_14
REMARK    6  A    between atoms: C_17  and  C_18
REMARK    7  A    between atoms: C_18  and  O_20
REMARK                            x       y       z     vdW  Elec       q    Type
REMARK                         _______ _______ _______ _____ _____    ______ ____
ROOT
ATOM      1  C   UNL     1       2.561   6.097  19.191  0.00  0.00    +0.000 A 
ATOM      2  C   UNL     1       2.023   5.542  20.331  0.00  0.00    +0.000 A 
ATOM      3  N   UNL     1       1.351   6.422  21.169  0.00  0.00    +0.000 NA
ATOM      4  C   UNL     1       1.358   7.644  20.662  0.00  0.00    +0.000 A 
ATOM      5  S   UNL     1       2.254   7.769  19.187  0.00  0.00    +0.000 S 
ENDROOT
BRANCH   1  11
ATOM      6  C   UNL     1       5.907   4.562  15.776  0.00  0.00    +0.000 A 
ATOM      7  C   UNL     1       6.903   5.526  16.028  0.00  0.00    +0.000 A 
ATOM      8  C   UNL     1       6.762   6.490  17.019  0.00  0.00    +0.000 A 
ATOM      9  C   UNL     1       5.605   6.542  17.796  0.00  0.00    +0.000 A 
ATOM     10  C   UNL     1       4.572   5.607  17.575  0.00  0.00    +0.000 A 
ATOM     11  C   UNL     1       3.278   5.337  18.118  0.00  0.00    +0.000 A 
ATOM     12  N   UNL     1       2.706   4.278  17.528  0.00  0.00    +0.000 NA
ATOM     13  N   UNL     1       3.607   3.895  16.610  0.00  0.00    +0.000 N 
ATOM     14  C   UNL     1       4.753   4.648  16.581  0.00  0.00    +0.000 A 
ATOM     15  H   UNL     1       3.378   3.104  16.019  0.00  0.00    +0.000 HD
BRANCH   6  16
ATOM     16  C   UNL     1       6.113   3.526  14.700  0.00  0.00    +0.000 C 
BRANCH  16  18
ATOM     17  C   UNL     1       5.811   3.186  12.188  0.00  0.00    +0.000 C 
ATOM     18  C   UNL     1       6.299   4.111  13.295  0.00  0.00    +0.000 C 
ENDBRANCH  16  18
ENDBRANCH   6  16
ENDBRANCH   1  11
BRANCH   4  19
ATOM     19  C   UNL     1       0.702   8.803  21.199  0.00  0.00    +0.000 A 
ATOM     20  C   UNL     1       0.280   8.820  22.474  0.00  0.00    +0.000 A 
ATOM     21  C   UNL     1      -0.416   9.976  22.995  0.00  0.00    +0.000 A 
ATOM     22  C   UNL     1      -0.666  11.057  22.230  0.00  0.00    +0.000 A 
ATOM     23  C   UNL     1      -0.189  11.034  20.823  0.00  0.00    +0.000 A 
ATOM     24  O   UNL     1      -0.390  11.990  20.077  0.00  0.00    +0.000 OA
ATOM     25  N   UNL     1       0.467   9.908  20.405  0.00  0.00    +0.000 N 
ATOM     26  H   UNL     1       0.780   9.898  19.441  0.00  0.00    +0.000 HD
BRANCH  22  27
ATOM     27  C   UNL     1      -1.401  12.200  22.811  0.00  0.00    +0.000 C 
ATOM     28  O   UNL     1      -2.528  12.103  23.276  0.00  0.00    +0.000 OA
BRANCH  27  29
ATOM     29  O   UNL     1      -0.734  13.374  22.789  0.00  0.00    +0.000 OA
ATOM     30  H   UNL     1      -1.301  14.174  22.914  0.00  0.00    +0.000 HD
ENDBRANCH  27  29
ENDBRANCH  22  27
ENDBRANCH   4  19
TORSDOF 6
ENDMDL
MODEL 4
REMARK VINA RESULT:      -7.6      1.580      2.132
REMARK  Name = 
REMARK  7 active torsions:
REMARK  status: ('A' for Active; 'I' for Inactive)
REMARK    1  A    between atoms: C_1  and  C_2
REMARK    2  A    between atoms: C_2  and  C_3
REMARK    3  A    between atoms: C_3  and  C_4
REMARK    4  A    between atoms: C_9  and  C_10
REMARK    5  A    between atoms: C_13  and  C_14
REMARK    6  A    between atoms: C_17  and  C_18
REMARK    7  A    between atoms: C_18  and  O_20
REMARK                            x       y       z     vdW  Elec       q    Type
REMARK                         _______ _______ _______ _____ _____    ______ ____
ROOT
ATOM      1  C   UNL     1       1.024   9.030  19.475  0.00  0.00    +0.000 A 
ATOM      2  C   UNL     1       1.280   8.088  20.447  0.00  0.00    +0.000 A 
ATOM      3  N   UNL     1       2.246   7.144  20.129  0.00  0.00    +0.000 NA
ATOM      4  C   UNL     1       2.743   7.373  18.925  0.00  0.00    +0.000 A 
ATOM      5  S   UNL     1       1.987   8.701  18.113  0.00  0.00    +0.000 S 
ENDROOT
BRANCH   1  11
ATOM      6  C   UNL     1      -2.166  12.464  21.276  0.00  0.00    +0.000 A 
ATOM      7  C   UNL     1      -2.070  12.128  22.641  0.00  0.00    +0.000 A 
ATOM      8  C   UNL     1      -1.228  11.118  23.094  0.00  0.00    +0.000 A 
ATOM      9  C   UNL     1      -0.455  10.385  22.194  0.00  0.00    +0.000 A 
ATOM     10  C   UNL     1      -0.525  10.675  20.815  0.00  0.00    +0.000 A 
ATOM     11  C   UNL     1       0.066  10.174  19.614  0.00  0.00    +0.000 A 
ATOM     12  N   UNL     1      -0.356  10.849  18.536  0.00  0.00    +0.000 NA
ATOM     13  N   UNL     1      -1.218  11.748  19.036  0.00  0.00    +0.000 N 
ATOM     14  C   UNL     1      -1.369  11.702  20.398  0.00  0.00    +0.000 A 
ATOM     15  H   UNL     1      -1.684  12.373  18.389  0.00  0.00    +0.000 HD
BRANCH   6  16
ATOM     16  C   UNL     1      -3.081  13.580  20.836  0.00  0.00    +0.000 C 
BRANCH  16  18
ATOM     17  C   UNL     1      -5.450  12.752  21.302  0.00  0.00    +0.000 C 
ATOM     18  C   UNL     1      -4.412  13.101  20.244  0.00  0.00    +0.000 C 
ENDBRANCH  16  18
ENDBRANCH   6  16
ENDBRANCH   1  11
BRANCH   4  19
ATOM     19  C   UNL     1       3.811   6.660  18.282  0.00  0.00    +0.000 A 
ATOM     20  C   UNL     1       4.180   6.967  17.028  0.00  0.00    +0.000 A 
ATOM     21  C   UNL     1       5.229   6.217  16.373  0.00  0.00    +0.000 A 
ATOM     22  C   UNL     1       5.859   5.196  16.986  0.00  0.00    +0.000 A 
ATOM     23  C   UNL     1       5.451   4.867  18.376  0.00  0.00    +0.000 A 
ATOM     24  O   UNL     1       5.989   3.945  18.987  0.00  0.00    +0.000 OA
ATOM     25  N   UNL     1       4.457   5.626  18.931  0.00  0.00    +0.000 N 
ATOM     26  H   UNL     1       4.179   5.387  19.877  0.00  0.00    +0.000 HD
BRANCH  22  27
ATOM     27  C   UNL     1       6.908   4.452  16.259  0.00  0.00    +0.000 C 
ATOM     28  O   UNL     1       6.803   4.124  15.085  0.00  0.00    +0.000 OA
BRANCH  27  29
ATOM     29  O   UNL     1       8.003   4.151  16.991  0.00  0.00    +0.000 OA
ATOM     30  H   UNL     1       8.299   3.211  16.924  0.00  0.00    +0.000 HD
ENDBRANCH  27  29
ENDBRANCH  22  27
ENDBRANCH   4  19
TORSDOF 6
ENDMDL
MODEL 5
REMARK VINA RESULT:      -7.6      1.217      1.891
REMARK  Name = 
REMARK  7 active torsions:
REMARK  status: ('A' for Active; 'I' for Inactive)
REMARK    1  A    between atoms: C_1  and  C_2
REMARK    2  A    between atoms: C_2  and  C_3
REMARK    3  A    between atoms: C_3  and  C_4
REMARK    4  A    between atoms: C_9  and  C_10
REMARK    5  A    between atoms: C_13  and  C_14
REMARK    6  A    between atoms: C_17  and  C_18
REMARK    7  A    between atoms: C_18  and  O_20
REMARK                            x       y       z     vdW  Elec       q    Type
REMARK                         _______ _______ _______ _____ _____    ______ ____
ROOT
ATOM      1  C   UNL     1       1.387   8.853  19.360  0.00  0.00    +0.000 A 
ATOM      2  C   UNL     1       1.707   7.786  20.171  0.00  0.00    +0.000 A 
ATOM      3  N   UNL     1       2.577   6.854  19.622  0.00  0.00    +0.000 NA
ATOM      4  C   UNL     1       2.937   7.215  18.401  0.00  0.00    +0.000 A 
ATOM      5  S   UNL     1       2.160   8.663  17.858  0.00  0.00    +0.000 S 
ENDROOT
BRANCH   1  11
ATOM      6  C   UNL     1      -1.601  12.003  21.883  0.00  0.00    +0.000 A 
ATOM      7  C   UNL     1      -1.588  11.337  23.125  0.00  0.00    +0.000 A 
ATOM      8  C   UNL     1      -0.847  10.180  23.332  0.00  0.00    +0.000 A 
ATOM      9  C   UNL     1      -0.095   9.625  22.296  0.00  0.00    +0.000 A 
ATOM     10  C   UNL     1      -0.085  10.247  21.030  0.00  0.00    +0.000 A 
ATOM     11  C   UNL     1       0.515  10.005  19.756  0.00  0.00    +0.000 A 
ATOM     12  N   UNL     1       0.191  10.957  18.869  0.00  0.00    +0.000 NA
ATOM     13  N   UNL     1      -0.619  11.776  19.556  0.00  0.00    +0.000 N 
ATOM     14  C   UNL     1      -0.830  11.412  20.862  0.00  0.00    +0.000 A 
ATOM     15  H   UNL     1      -1.008  12.577  19.073  0.00  0.00    +0.000 HD
BRANCH   6  16
ATOM     16  C   UNL     1      -2.408  13.266  21.712  0.00  0.00    +0.000 C 
BRANCH  16  18
ATOM     17  C   UNL     1      -4.271  12.650  20.079  0.00  0.00    +0.000 C 
ATOM     18  C   UNL     1      -3.909  13.026  21.509  0.00  0.00    +0.000 C 
ENDBRANCH  16  18
ENDBRANCH   6  16
ENDBRANCH   1  11
BRANCH   4  19
ATOM     19  C   UNL     1       3.880   6.549  17.548  0.00  0.00    +0.000 A 
ATOM     20  C   UNL     1       4.646   7.251  16.698  0.00  0.00    +0.000 A 
ATOM     21  C   UNL     1       5.565   6.570  15.812  0.00  0.00    +0.000 A 
ATOM     22  C   UNL     1       5.677   5.227  15.805  0.00  0.00    +0.000 A 
ATOM     23  C   UNL     1       4.832   4.457  16.753  0.00  0.00    +0.000 A 
ATOM     24  O   UNL     1       4.890   3.230  16.792  0.00  0.00    +0.000 OA
ATOM     25  N   UNL     1       3.993   5.173  17.564  0.00  0.00    +0.000 N 
ATOM     26  H   UNL     1       3.414   4.637  18.201  0.00  0.00    +0.000 HD
BRANCH  22  27
ATOM     27  C   UNL     1       6.617   4.585  14.862  0.00  0.00    +0.000 C 
ATOM     28  O   UNL     1       7.664   5.105  14.505  0.00  0.00    +0.000 OA
BRANCH  27  29
ATOM     29  O   UNL     1       6.231   3.371  14.414  0.00  0.00    +0.000 OA
ATOM     30  H   UNL     1       6.860   2.944  13.783  0.00  0.00    +0.000 HD
ENDBRANCH  27  29
ENDBRANCH  22  27
ENDBRANCH   4  19
TORSDOF 6
ENDMDL
MODEL 6
REMARK VINA RESULT:      -7.5      1.517      2.362
REMARK  Name = 
REMARK  7 active torsions:
REMARK  status: ('A' for Active; 'I' for Inactive)
REMARK    1  A    between atoms: C_1  and  C_2
REMARK    2  A    between atoms: C_2  and  C_3
REMARK    3  A    between atoms: C_3  and  C_4
REMARK    4  A    between atoms: C_9  and  C_10
REMARK    5  A    between atoms: C_13  and  C_14
REMARK    6  A    between atoms: C_17  and  C_18
REMARK    7  A    between atoms: C_18  and  O_20
REMARK                            x       y       z     vdW  Elec       q    Type
REMARK                         _______ _______ _______ _____ _____    ______ ____
ROOT
ATOM      1  C   UNL     1       1.104   9.057  19.425  0.00  0.00    +0.000 A 
ATOM      2  C   UNL     1       1.439   8.098  20.356  0.00  0.00    +0.000 A 
ATOM      3  N   UNL     1       2.334   7.128  19.925  0.00  0.00    +0.000 NA
ATOM      4  C   UNL     1       2.700   7.354  18.674  0.00  0.00    +0.000 A 
ATOM      5  S   UNL     1       1.898   8.712  17.961  0.00  0.00    +0.000 S 
ENDROOT
BRANCH   1  11
ATOM      6  C   UNL     1      -1.979  12.407  21.541  0.00  0.00    +0.000 A 
ATOM      7  C   UNL     1      -1.966  11.889  22.851  0.00  0.00    +0.000 A 
ATOM      8  C   UNL     1      -1.202  10.780  23.197  0.00  0.00    +0.000 A 
ATOM      9  C   UNL     1      -0.427  10.127  22.239  0.00  0.00    +0.000 A 
ATOM     10  C   UNL     1      -0.416  10.599  20.910  0.00  0.00    +0.000 A 
ATOM     11  C   UNL     1       0.204  10.227  19.677  0.00  0.00    +0.000 A 
ATOM     12  N   UNL     1      -0.130  11.062  18.684  0.00  0.00    +0.000 NA
ATOM     13  N   UNL     1      -0.965  11.937  19.265  0.00  0.00    +0.000 N 
ATOM     14  C   UNL     1      -1.183  11.720  20.601  0.00  0.00    +0.000 A 
ATOM     15  H   UNL     1      -1.366  12.668  18.689  0.00  0.00    +0.000 HD
BRANCH   6  16
ATOM     16  C   UNL     1      -2.811  13.623  21.219  0.00  0.00    +0.000 C 
BRANCH  16  18
ATOM     17  C   UNL     1      -4.950  12.882  20.040  0.00  0.00    +0.000 C 
ATOM     18  C   UNL     1      -4.323  13.395  21.330  0.00  0.00    +0.000 C 
ENDBRANCH  16  18
ENDBRANCH   6  16
ENDBRANCH   1  11
BRANCH   4  19
ATOM     19  C   UNL     1       3.667   6.616  17.911  0.00  0.00    +0.000 A 
ATOM     20  C   UNL     1       3.448   5.330  17.593  0.00  0.00    +0.000 A 
ATOM     21  C   UNL     1       4.444   4.581  16.859  0.00  0.00    +0.000 A 
ATOM     22  C   UNL     1       5.612   5.138  16.482  0.00  0.00    +0.000 A 
ATOM     23  C   UNL     1       5.845   6.562  16.832  0.00  0.00    +0.000 A 
ATOM     24  O   UNL     1       6.892   7.123  16.515  0.00  0.00    +0.000 OA
ATOM     25  N   UNL     1       4.852   7.206  17.520  0.00  0.00    +0.000 N 
ATOM     26  H   UNL     1       5.025   8.175  17.762  0.00  0.00    +0.000 HD
BRANCH  22  27
ATOM     27  C   UNL     1       6.603   4.317  15.754  0.00  0.00    +0.000 C 
ATOM     28  O   UNL     1       6.317   3.631  14.782  0.00  0.00    +0.000 OA
BRANCH  27  29
ATOM     29  O   UNL     1       7.859   4.374  16.246  0.00  0.00    +0.000 OA
ATOM     30  H   UNL     1       8.400   3.560  16.094  0.00  0.00    +0.000 HD
ENDBRANCH  27  29
ENDBRANCH  22  27
ENDBRANCH   4  19
TORSDOF 6
ENDMDL
MODEL 7
REMARK VINA RESULT:      -7.5      2.643      3.361
REMARK  Name = 
REMARK  7 active torsions:
REMARK  status: ('A' for Active; 'I' for Inactive)
REMARK    1  A    between atoms: C_1  and  C_2
REMARK    2  A    between atoms: C_2  and  C_3
REMARK    3  A    between atoms: C_3  and  C_4
REMARK    4  A    between atoms: C_9  and  C_10
REMARK    5  A    between atoms: C_13  and  C_14
REMARK    6  A    between atoms: C_17  and  C_18
REMARK    7  A    between atoms: C_18  and  O_20
REMARK                            x       y       z     vdW  Elec       q    Type
REMARK                         _______ _______ _______ _____ _____    ______ ____
ROOT
ATOM      1  C   UNL     1       1.278   9.473  19.171  0.00  0.00    +0.000 A 
ATOM      2  C   UNL     1       1.874   9.371  17.933  0.00  0.00    +0.000 A 
ATOM      3  N   UNL     1       2.522   8.171  17.675  0.00  0.00    +0.000 NA
ATOM      4  C   UNL     1       2.406   7.348  18.704  0.00  0.00    +0.000 A 
ATOM      5  S   UNL     1       1.571   8.046  20.050  0.00  0.00    +0.000 S 
ENDROOT
BRANCH   1  11
ATOM      6  C   UNL     1      -1.582  12.582  21.884  0.00  0.00    +0.000 A 
ATOM      7  C   UNL     1      -1.687  11.792  23.046  0.00  0.00    +0.000 A 
ATOM      8  C   UNL     1      -1.051  10.562  23.160  0.00  0.00    +0.000 A 
ATOM      9  C   UNL     1      -0.292  10.057  22.104  0.00  0.00    +0.000 A 
ATOM     10  C   UNL     1      -0.167  10.803  20.914  0.00  0.00    +0.000 A 
ATOM     11  C   UNL     1       0.480  10.646  19.649  0.00  0.00    +0.000 A 
ATOM     12  N   UNL     1       0.279  11.708  18.857  0.00  0.00    +0.000 NA
ATOM     13  N   UNL     1      -0.500  12.517  19.592  0.00  0.00    +0.000 N 
ATOM     14  C   UNL     1      -0.807  12.038  20.839  0.00  0.00    +0.000 A 
ATOM     15  H   UNL     1      -0.798  13.394  19.181  0.00  0.00    +0.000 HD
BRANCH   6  16
ATOM     16  C   UNL     1      -2.278  13.919  21.814  0.00  0.00    +0.000 C 
BRANCH  16  18
ATOM     17  C   UNL     1      -4.784  13.538  22.111  0.00  0.00    +0.000 C 
ATOM     18  C   UNL     1      -3.657  13.873  21.144  0.00  0.00    +0.000 C 
ENDBRANCH  16  18
ENDBRANCH   6  16
ENDBRANCH   1  11
BRANCH   4  19
ATOM     19  C   UNL     1       2.875   5.993  18.783  0.00  0.00    +0.000 A 
ATOM     20  C   UNL     1       2.018   4.966  18.667  0.00  0.00    +0.000 A 
ATOM     21  C   UNL     1       2.492   3.604  18.787  0.00  0.00    +0.000 A 
ATOM     22  C   UNL     1       3.788   3.324  19.023  0.00  0.00    +0.000 A 
ATOM     23  C   UNL     1       4.732   4.465  19.143  0.00  0.00    +0.000 A 
ATOM     24  O   UNL     1       5.927   4.271  19.359  0.00  0.00    +0.000 OA
ATOM     25  N   UNL     1       4.210   5.723  19.010  0.00  0.00    +0.000 N 
ATOM     26  H   UNL     1       4.861   6.495  19.102  0.00  0.00    +0.000 HD
BRANCH  22  27
ATOM     27  C   UNL     1       4.211   1.914  19.159  0.00  0.00    +0.000 C 
ATOM     28  O   UNL     1       3.780   1.016  18.450  0.00  0.00    +0.000 OA
BRANCH  27  29
ATOM     29  O   UNL     1       5.113   1.683  20.137  0.00  0.00    +0.000 OA
ATOM     30  H   UNL     1       5.672   2.462  20.376  0.00  0.00    +0.000 HD
ENDBRANCH  27  29
ENDBRANCH  22  27
ENDBRANCH   4  19
TORSDOF 6
ENDMDL
MODEL 8
REMARK VINA RESULT:      -7.5      5.912     10.534
REMARK  Name = 
REMARK  7 active torsions:
REMARK  status: ('A' for Active; 'I' for Inactive)
REMARK    1  A    between atoms: C_1  and  C_2
REMARK    2  A    between atoms: C_2  and  C_3
REMARK    3  A    between atoms: C_3  and  C_4
REMARK    4  A    between atoms: C_9  and  C_10
REMARK    5  A    between atoms: C_13  and  C_14
REMARK    6  A    between atoms: C_17  and  C_18
REMARK    7  A    between atoms: C_18  and  O_20
REMARK                            x       y       z     vdW  Elec       q    Type
REMARK                         _______ _______ _______ _____ _____    ______ ____
ROOT
ATOM      1  C   UNL     1       0.823   9.325  21.097  0.00  0.00    +0.000 A 
ATOM      2  C   UNL     1       0.917   9.129  22.457  0.00  0.00    +0.000 A 
ATOM      3  N   UNL     1       0.183  10.007  23.243  0.00  0.00    +0.000 NA
ATOM      4  C   UNL     1      -0.487  10.861  22.487  0.00  0.00    +0.000 A 
ATOM      5  S   UNL     1      -0.176  10.668  20.795  0.00  0.00    +0.000 S 
ENDROOT
BRANCH   1  11
ATOM      6  C   UNL     1       2.921   5.501  18.609  0.00  0.00    +0.000 A 
ATOM      7  C   UNL     1       2.730   4.502  19.584  0.00  0.00    +0.000 A 
ATOM      8  C   UNL     1       2.083   4.760  20.787  0.00  0.00    +0.000 A 
ATOM      9  C   UNL     1       1.611   6.040  21.076  0.00  0.00    +0.000 A 
ATOM     10  C   UNL     1       1.788   7.078  20.138  0.00  0.00    +0.000 A 
ATOM     11  C   UNL     1       1.479   8.471  20.055  0.00  0.00    +0.000 A 
ATOM     12  N   UNL     1       1.874   8.996  18.887  0.00  0.00    +0.000 NA
ATOM     13  N   UNL     1       2.445   7.965  18.247  0.00  0.00    +0.000 N 
ATOM     14  C   UNL     1       2.430   6.781  18.938  0.00  0.00    +0.000 A 
ATOM     15  H   UNL     1       2.840   8.134  17.329  0.00  0.00    +0.000 HD
BRANCH   6  16
ATOM     16  C   UNL     1       3.615   5.168  17.312  0.00  0.00    +0.000 C 
BRANCH  16  18
ATOM     17  C   UNL     1       5.230   6.423  15.785  0.00  0.00    +0.000 C 
ATOM     18  C   UNL     1       4.999   5.810  17.160  0.00  0.00    +0.000 C 
ENDBRANCH  16  18
ENDBRANCH   6  16
ENDBRANCH   1  11
BRANCH   4  19
ATOM     19  C   UNL     1      -1.411  11.866  22.931  0.00  0.00    +0.000 A 
ATOM     20  C   UNL     1      -1.082  13.166  22.883  0.00  0.00    +0.000 A 
ATOM     21  C   UNL     1      -2.002  14.170  23.371  0.00  0.00    +0.000 A 
ATOM     22  C   UNL     1      -3.201  13.839  23.888  0.00  0.00    +0.000 A 
ATOM     23  C   UNL     1      -3.562  12.398  23.931  0.00  0.00    +0.000 A 
ATOM     24  O   UNL     1      -4.643  12.036  24.393  0.00  0.00    +0.000 OA
ATOM     25  N   UNL     1      -2.642  11.510  23.445  0.00  0.00    +0.000 N 
ATOM     26  H   UNL     1      -2.895  10.529  23.488  0.00  0.00    +0.000 HD
BRANCH  22  27
ATOM     27  C   UNL     1      -4.092  14.906  24.391  0.00  0.00    +0.000 C 
ATOM     28  O   UNL     1      -3.680  15.904  24.965  0.00  0.00    +0.000 OA
BRANCH  27  29
ATOM     29  O   UNL     1      -5.408  14.697  24.175  0.00  0.00    +0.000 OA
ATOM     30  H   UNL     1      -5.727  13.793  24.411  0.00  0.00    +0.000 HD
ENDBRANCH  27  29
ENDBRANCH  22  27
ENDBRANCH   4  19
TORSDOF 6
ENDMDL
MODEL 9
REMARK VINA RESULT:      -7.5      2.405      2.900
REMARK  Name = 
REMARK  7 active torsions:
REMARK  status: ('A' for Active; 'I' for Inactive)
REMARK    1  A    between atoms: C_1  and  C_2
REMARK    2  A    between atoms: C_2  and  C_3
REMARK    3  A    between atoms: C_3  and  C_4
REMARK    4  A    between atoms: C_9  and  C_10
REMARK    5  A    between atoms: C_13  and  C_14
REMARK    6  A    between atoms: C_17  and  C_18
REMARK    7  A    between atoms: C_18  and  O_20
REMARK                            x       y       z     vdW  Elec       q    Type
REMARK                         _______ _______ _______ _____ _____    ______ ____
ROOT
ATOM      1  C   UNL     1       1.204   9.374  19.698  0.00  0.00    +0.000 A 
ATOM      2  C   UNL     1       1.703   9.332  18.415  0.00  0.00    +0.000 A 
ATOM      3  N   UNL     1       2.347   8.155  18.058  0.00  0.00    +0.000 NA
ATOM      4  C   UNL     1       2.323   7.290  19.058  0.00  0.00    +0.000 A 
ATOM      5  S   UNL     1       1.585   7.919  20.492  0.00  0.00    +0.000 S 
ENDROOT
BRANCH   1  11
ATOM      6  C   UNL     1      -2.234  12.925  20.582  0.00  0.00    +0.000 A 
ATOM      7  C   UNL     1      -3.132  12.593  19.548  0.00  0.00    +0.000 A 
ATOM      8  C   UNL     1      -2.909  11.519  18.695  0.00  0.00    +0.000 A 
ATOM      9  C   UNL     1      -1.762  10.736  18.827  0.00  0.00    +0.000 A 
ATOM     10  C   UNL     1      -0.826  11.035  19.838  0.00  0.00    +0.000 A 
ATOM     11  C   UNL     1       0.428  10.513  20.285  0.00  0.00    +0.000 A 
ATOM     12  N   UNL     1       0.899  11.192  21.340  0.00  0.00    +0.000 NA
ATOM     13  N   UNL     1      -0.023  12.144  21.548  0.00  0.00    +0.000 N 
ATOM     14  C   UNL     1      -1.088  12.111  20.684  0.00  0.00    +0.000 A 
ATOM     15  H   UNL     1       0.133  12.802  22.303  0.00  0.00    +0.000 HD
BRANCH   6  16
ATOM     16  C   UNL     1      -2.529  14.090  21.494  0.00  0.00    +0.000 C 
BRANCH  16  18
ATOM     17  C   UNL     1      -3.362  12.554  23.354  0.00  0.00    +0.000 C 
ATOM     18  C   UNL     1      -3.620  13.810  22.534  0.00  0.00    +0.000 C 
ENDBRANCH  16  18
ENDBRANCH   6  16
ENDBRANCH   1  11
BRANCH   4  19
ATOM     19  C   UNL     1       2.817   5.941  19.044  0.00  0.00    +0.000 A 
ATOM     20  C   UNL     1       1.972   4.906  18.914  0.00  0.00    +0.000 A 
ATOM     21  C   UNL     1       2.472   3.549  18.941  0.00  0.00    +0.000 A 
ATOM     22  C   UNL     1       3.782   3.281  19.102  0.00  0.00    +0.000 A 
ATOM     23  C   UNL     1       4.713   4.431  19.238  0.00  0.00    +0.000 A 
ATOM     24  O   UNL     1       5.919   4.248  19.389  0.00  0.00    +0.000 OA
ATOM     25  N   UNL     1       4.165   5.684  19.195  0.00  0.00    +0.000 N 
ATOM     26  H   UNL     1       4.807   6.463  19.298  0.00  0.00    +0.000 HD
BRANCH  22  27
ATOM     27  C   UNL     1       4.233   1.873  19.145  0.00  0.00    +0.000 C 
ATOM     28  O   UNL     1       3.774   1.003  18.419  0.00  0.00    +0.000 OA
BRANCH  27  29
ATOM     29  O   UNL     1       5.195   1.612  20.056  0.00  0.00    +0.000 OA
ATOM     30  H   UNL     1       6.119   1.728  19.727  0.00  0.00    +0.000 HD
ENDBRANCH  27  29
ENDBRANCH  22  27
ENDBRANCH   4  19
TORSDOF 6
ENDMDL
