MODEL 1
REMARK VINA RESULT:      -7.3      0.000      0.000
REMARK  Name = 
REMARK  4 active torsions:
REMARK  status: ('A' for Active; 'I' for Inactive)
REMARK    1  A    between atoms: C_2  and  C_3
REMARK    2  A    between atoms: C_3  and  C_4
REMARK    3  A    between atoms: N_13  and  C_14
REMARK    4  A    between atoms: C_14  and  C_15
REMARK                            x       y       z     vdW  Elec       q    Type
REMARK                         _______ _______ _______ _____ _____    ______ ____
ROOT
ATOM      1  C   UNL     1       7.741   6.361  18.618  0.00  0.00    +0.000 C 
ENDROOT
BRANCH   1   2
ATOM      2  C   UNL     1       6.891   5.349  17.918  0.00  0.00    +0.000 A 
ATOM      3  C   UNL     1       7.312   4.456  16.948  0.00  0.00    +0.000 A 
ATOM      4  N   UNL     1       6.226   3.742  16.517  0.00  0.00    +0.000 N 
ATOM      5  C   UNL     1       5.092   4.154  17.175  0.00  0.00    +0.000 A 
ATOM      6  C   UNL     1       3.766   3.720  17.047  0.00  0.00    +0.000 A 
ATOM      7  C   UNL     1       2.802   4.333  17.849  0.00  0.00    +0.000 A 
ATOM      8  C   UNL     1       3.151   5.342  18.744  0.00  0.00    +0.000 A 
ATOM      9  C   UNL     1       4.481   5.763  18.859  0.00  0.00    +0.000 A 
ATOM     10  C   UNL     1       5.476   5.163  18.062  0.00  0.00    +0.000 A 
ATOM     11  H   UNL     1       6.242   3.028  15.802  0.00  0.00    +0.000 HD
ENDBRANCH   1   2
BRANCH   1  13
ATOM     12  O   UNL     1       7.275   7.894  16.812  0.00  0.00    +0.000 OA
ATOM     13  C   UNL     1       7.795   7.703  17.910  0.00  0.00    +0.000 C 
ATOM     14  N   UNL     1       8.521   8.667  18.577  0.00  0.00    +0.000 N 
ATOM     15  H   UNL     1       8.728   8.522  19.555  0.00  0.00    +0.000 HD
BRANCH  14  16
ATOM     16  C   UNL     1       8.660  10.009  18.058  0.00  0.00    +0.000 C 
BRANCH  16  17
ATOM     17  C   UNL     1       9.543  10.802  18.965  0.00  0.00    +0.000 A 
ATOM     18  C   UNL     1       9.410  10.991  20.328  0.00  0.00    +0.000 A 
ATOM     19  C   UNL     1      10.428  11.832  20.861  0.00  0.00    +0.000 A 
ATOM     20  C   UNL     1      11.312  12.249  19.891  0.00  0.00    +0.000 A 
ATOM     21  S   UNL     1      10.912  11.629  18.348  0.00  0.00    +0.000 S 
ENDBRANCH  16  17
ENDBRANCH  14  16
ENDBRANCH   1  13
TORSDOF 4
ENDMDL
MODEL 2
REMARK VINA RESULT:      -7.1      4.949      6.521
REMARK  Name = 
REMARK  4 active torsions:
REMARK  status: ('A' for Active; 'I' for Inactive)
REMARK    1  A    between atoms: C_2  and  C_3
REMARK    2  A    between atoms: C_3  and  C_4
REMARK    3  A    between atoms: N_13  and  C_14
REMARK    4  A    between atoms: C_14  and  C_15
REMARK                            x       y       z     vdW  Elec       q    Type
REMARK                         _______ _______ _______ _____ _____    ______ ____
ROOT
ATOM      1  C   UNL     1       4.443   4.027  16.612  0.00  0.00    +0.000 C 
ENDROOT
BRANCH   1   2
ATOM      2  C   UNL     1       5.633   4.569  15.886  0.00  0.00    +0.000 A 
ATOM      3  C   UNL     1       6.547   5.483  16.380  0.00  0.00    +0.000 A 
ATOM      4  N   UNL     1       7.451   5.767  15.392  0.00  0.00    +0.000 N 
ATOM      5  C   UNL     1       7.146   5.067  14.249  0.00  0.00    +0.000 A 
ATOM      6  C   UNL     1       7.779   5.058  13.000  0.00  0.00    +0.000 A 
ATOM      7  C   UNL     1       7.236   4.245  12.002  0.00  0.00    +0.000 A 
ATOM      8  C   UNL     1       6.103   3.473  12.246  0.00  0.00    +0.000 A 
ATOM      9  C   UNL     1       5.483   3.495  13.501  0.00  0.00    +0.000 A 
ATOM     10  C   UNL     1       6.008   4.306  14.527  0.00  0.00    +0.000 A 
ATOM     11  H   UNL     1       8.223   6.414  15.473  0.00  0.00    +0.000 HD
ENDBRANCH   1   2
BRANCH   1  13
ATOM     12  O   UNL     1       5.006   4.258  18.949  0.00  0.00    +0.000 OA
ATOM     13  C   UNL     1       4.280   4.589  18.014  0.00  0.00    +0.000 C 
ATOM     14  N   UNL     1       3.216   5.455  18.157  0.00  0.00    +0.000 N 
ATOM     15  H   UNL     1       2.805   5.852  17.324  0.00  0.00    +0.000 HD
BRANCH  14  16
ATOM     16  C   UNL     1       2.925   6.099  19.418  0.00  0.00    +0.000 C 
BRANCH  16  17
ATOM     17  C   UNL     1       2.303   7.432  19.160  0.00  0.00    +0.000 A 
ATOM     18  C   UNL     1       2.298   8.154  17.981  0.00  0.00    +0.000 A 
ATOM     19  C   UNL     1       1.627   9.403  18.113  0.00  0.00    +0.000 A 
ATOM     20  C   UNL     1       1.132   9.591  19.383  0.00  0.00    +0.000 A 
ATOM     21  S   UNL     1       1.477   8.267  20.409  0.00  0.00    +0.000 S 
ENDBRANCH  16  17
ENDBRANCH  14  16
ENDBRANCH   1  13
TORSDOF 4
ENDMDL
MODEL 3
REMARK VINA RESULT:      -7.1      4.946      6.607
REMARK  Name = 
REMARK  4 active torsions:
REMARK  status: ('A' for Active; 'I' for Inactive)
REMARK    1  A    between atoms: C_2  and  C_3
REMARK    2  A    between atoms: C_3  and  C_4
REMARK    3  A    between atoms: N_13  and  C_14
REMARK    4  A    between atoms: C_14  and  C_15
REMARK                            x       y       z     vdW  Elec       q    Type
REMARK                         _______ _______ _______ _____ _____    ______ ____
ROOT
ATOM      1  C   UNL     1       3.734   6.588  17.175  0.00  0.00    +0.000 C 
ENDROOT
BRANCH   1   2
ATOM      2  C   UNL     1       2.960   6.186  18.389  0.00  0.00    +0.000 A 
ATOM      3  C   UNL     1       2.825   6.921  19.554  0.00  0.00    +0.000 A 
ATOM      4  N   UNL     1       2.090   6.186  20.445  0.00  0.00    +0.000 N 
ATOM      5  C   UNL     1       1.746   4.974  19.897  0.00  0.00    +0.000 A 
ATOM      6  C   UNL     1       1.018   3.909  20.444  0.00  0.00    +0.000 A 
ATOM      7  C   UNL     1       0.826   2.778  19.649  0.00  0.00    +0.000 A 
ATOM      8  C   UNL     1       1.343   2.714  18.357  0.00  0.00    +0.000 A 
ATOM      9  C   UNL     1       2.068   3.788  17.826  0.00  0.00    +0.000 A 
ATOM     10  C   UNL     1       2.278   4.943  18.605  0.00  0.00    +0.000 A 
ATOM     11  H   UNL     1       1.849   6.475  21.384  0.00  0.00    +0.000 HD
ENDBRANCH   1   2
BRANCH   1  13
ATOM     12  O   UNL     1       5.397   4.947  17.786  0.00  0.00    +0.000 OA
ATOM     13  C   UNL     1       5.013   5.793  16.979  0.00  0.00    +0.000 C 
ATOM     14  N   UNL     1       5.731   6.141  15.854  0.00  0.00    +0.000 N 
ATOM     15  H   UNL     1       5.264   6.670  15.131  0.00  0.00    +0.000 HD
BRANCH  14  16
ATOM     16  C   UNL     1       6.963   5.473  15.503  0.00  0.00    +0.000 C 
BRANCH  16  17
ATOM     17  C   UNL     1       6.790   4.771  14.196  0.00  0.00    +0.000 A 
ATOM     18  C   UNL     1       5.845   3.820  13.861  0.00  0.00    +0.000 A 
ATOM     19  C   UNL     1       5.998   3.348  12.526  0.00  0.00    +0.000 A 
ATOM     20  C   UNL     1       7.047   3.962  11.881  0.00  0.00    +0.000 A 
ATOM     21  S   UNL     1       7.842   5.097  12.882  0.00  0.00    +0.000 S 
ENDBRANCH  16  17
ENDBRANCH  14  16
ENDBRANCH   1  13
TORSDOF 4
ENDMDL
MODEL 4
REMARK VINA RESULT:      -7.0      5.379      6.153
REMARK  Name = 
REMARK  4 active torsions:
REMARK  status: ('A' for Active; 'I' for Inactive)
REMARK    1  A    between atoms: C_2  and  C_3
REMARK    2  A    between atoms: C_3  and  C_4
REMARK    3  A    between atoms: N_13  and  C_14
REMARK    4  A    between atoms: C_14  and  C_15
REMARK                            x       y       z     vdW  Elec       q    Type
REMARK                         _______ _______ _______ _____ _____    ______ ____
ROOT
ATOM      1  C   UNL     1       3.867   4.980  17.120  0.00  0.00    +0.000 C 
ENDROOT
BRANCH   1   2
ATOM      2  C   UNL     1       4.005   4.134  18.345  0.00  0.00    +0.000 A 
ATOM      3  C   UNL     1       5.135   3.437  18.736  0.00  0.00    +0.000 A 
ATOM      4  N   UNL     1       4.841   2.742  19.878  0.00  0.00    +0.000 N 
ATOM      5  C   UNL     1       3.534   2.957  20.245  0.00  0.00    +0.000 A 
ATOM      6  C   UNL     1       2.804   2.443  21.324  0.00  0.00    +0.000 A 
ATOM      7  C   UNL     1       1.468   2.831  21.447  0.00  0.00    +0.000 A 
ATOM      8  C   UNL     1       0.886   3.697  20.525  0.00  0.00    +0.000 A 
ATOM      9  C   UNL     1       1.631   4.200  19.451  0.00  0.00    +0.000 A 
ATOM     10  C   UNL     1       2.982   3.826  19.301  0.00  0.00    +0.000 A 
ATOM     11  H   UNL     1       5.480   2.137  20.375  0.00  0.00    +0.000 HD
ENDBRANCH   1   2
BRANCH   1  13
ATOM     12  O   UNL     1       4.985   7.107  17.358  0.00  0.00    +0.000 OA
ATOM     13  C   UNL     1       3.933   6.471  17.401  0.00  0.00    +0.000 C 
ATOM     14  N   UNL     1       2.727   7.034  17.761  0.00  0.00    +0.000 N 
ATOM     15  H   UNL     1       1.880   6.520  17.565  0.00  0.00    +0.000 HD
BRANCH  14  16
ATOM     16  C   UNL     1       2.603   8.445  18.045  0.00  0.00    +0.000 C 
BRANCH  16  17
ATOM     17  C   UNL     1       1.745   8.633  19.254  0.00  0.00    +0.000 A 
ATOM     18  C   UNL     1       1.707   7.856  20.396  0.00  0.00    +0.000 A 
ATOM     19  C   UNL     1       0.744   8.322  21.337  0.00  0.00    +0.000 A 
ATOM     20  C   UNL     1       0.087   9.445  20.888  0.00  0.00    +0.000 A 
ATOM     21  S   UNL     1       0.629   9.931  19.341  0.00  0.00    +0.000 S 
ENDBRANCH  16  17
ENDBRANCH  14  16
ENDBRANCH   1  13
TORSDOF 4
ENDMDL
MODEL 5
REMARK VINA RESULT:      -6.9      5.218      7.819
REMARK  Name = 
REMARK  4 active torsions:
REMARK  status: ('A' for Active; 'I' for Inactive)
REMARK    1  A    between atoms: C_2  and  C_3
REMARK    2  A    between atoms: C_3  and  C_4
REMARK    3  A    between atoms: N_13  and  C_14
REMARK    4  A    between atoms: C_14  and  C_15
REMARK                            x       y       z     vdW  Elec       q    Type
REMARK                         _______ _______ _______ _____ _____    ______ ____
ROOT
ATOM      1  C   UNL     1       4.938   3.284  16.266  0.00  0.00    +0.000 C 
ENDROOT
BRANCH   1   2
ATOM      2  C   UNL     1       6.000   4.086  15.584  0.00  0.00    +0.000 A 
ATOM      3  C   UNL     1       6.824   5.026  16.178  0.00  0.00    +0.000 A 
ATOM      4  N   UNL     1       7.618   5.578  15.209  0.00  0.00    +0.000 N 
ATOM      5  C   UNL     1       7.328   5.029  13.983  0.00  0.00    +0.000 A 
ATOM      6  C   UNL     1       7.874   5.298  12.721  0.00  0.00    +0.000 A 
ATOM      7  C   UNL     1       7.371   4.584  11.631  0.00  0.00    +0.000 A 
ATOM      8  C   UNL     1       6.362   3.639  11.797  0.00  0.00    +0.000 A 
ATOM      9  C   UNL     1       5.828   3.383  13.066  0.00  0.00    +0.000 A 
ATOM     10  C   UNL     1       6.315   4.088  14.185  0.00  0.00    +0.000 A 
ATOM     11  H   UNL     1       8.307   6.302  15.359  0.00  0.00    +0.000 HD
ENDBRANCH   1   2
BRANCH   1  13
ATOM     12  O   UNL     1       4.242   5.219  17.532  0.00  0.00    +0.000 OA
ATOM     13  C   UNL     1       3.945   4.129  17.046  0.00  0.00    +0.000 C 
ATOM     14  N   UNL     1       2.707   3.545  17.207  0.00  0.00    +0.000 N 
ATOM     15  H   UNL     1       2.460   2.769  16.609  0.00  0.00    +0.000 HD
BRANCH  14  16
ATOM     16  C   UNL     1       1.636   4.217  17.907  0.00  0.00    +0.000 C 
BRANCH  16  17
ATOM     17  C   UNL     1       1.667   3.830  19.349  0.00  0.00    +0.000 A 
ATOM     18  C   UNL     1       1.130   2.700  19.937  0.00  0.00    +0.000 A 
ATOM     19  C   UNL     1       1.330   2.675  21.347  0.00  0.00    +0.000 A 
ATOM     20  C   UNL     1       2.022   3.779  21.789  0.00  0.00    +0.000 A 
ATOM     21  S   UNL     1       2.425   4.839  20.509  0.00  0.00    +0.000 S 
ENDBRANCH  16  17
ENDBRANCH  14  16
ENDBRANCH   1  13
TORSDOF 4
ENDMDL
MODEL 6
REMARK VINA RESULT:      -6.8      5.269      6.608
REMARK  Name = 
REMARK  4 active torsions:
REMARK  status: ('A' for Active; 'I' for Inactive)
REMARK    1  A    between atoms: C_2  and  C_3
REMARK    2  A    between atoms: C_3  and  C_4
REMARK    3  A    between atoms: N_13  and  C_14
REMARK    4  A    between atoms: C_14  and  C_15
REMARK                            x       y       z     vdW  Elec       q    Type
REMARK                         _______ _______ _______ _____ _____    ______ ____
ROOT
ATOM      1  C   UNL     1       4.075   6.421  17.495  0.00  0.00    +0.000 C 
ENDROOT
BRANCH   1   2
ATOM      2  C   UNL     1       3.141   6.053  18.604  0.00  0.00    +0.000 A 
ATOM      3  C   UNL     1       2.865   6.811  19.728  0.00  0.00    +0.000 A 
ATOM      4  N   UNL     1       2.008   6.103  20.527  0.00  0.00    +0.000 N 
ATOM      5  C   UNL     1       1.721   4.886  19.958  0.00  0.00    +0.000 A 
ATOM      6  C   UNL     1       0.911   3.841  20.424  0.00  0.00    +0.000 A 
ATOM      7  C   UNL     1       0.808   2.697  19.629  0.00  0.00    +0.000 A 
ATOM      8  C   UNL     1       1.489   2.602  18.418  0.00  0.00    +0.000 A 
ATOM      9  C   UNL     1       2.294   3.656  17.969  0.00  0.00    +0.000 A 
ATOM     10  C   UNL     1       2.418   4.823  18.749  0.00  0.00    +0.000 A 
ATOM     11  H   UNL     1       1.650   6.413  21.420  0.00  0.00    +0.000 HD
ENDBRANCH   1   2
BRANCH   1  13
ATOM     12  O   UNL     1       6.000   5.041  17.963  0.00  0.00    +0.000 OA
ATOM     13  C   UNL     1       5.100   5.346  17.182  0.00  0.00    +0.000 C 
ATOM     14  N   UNL     1       4.969   4.785  15.929  0.00  0.00    +0.000 N 
ATOM     15  H   UNL     1       4.098   4.914  15.433  0.00  0.00    +0.000 HD
BRANCH  14  16
ATOM     16  C   UNL     1       5.848   3.733  15.472  0.00  0.00    +0.000 C 
BRANCH  16  17
ATOM     17  C   UNL     1       6.514   4.160  14.205  0.00  0.00    +0.000 A 
ATOM     18  C   UNL     1       7.460   5.154  14.035  0.00  0.00    +0.000 A 
ATOM     19  C   UNL     1       7.854   5.302  12.675  0.00  0.00    +0.000 A 
ATOM     20  C   UNL     1       7.207   4.410  11.851  0.00  0.00    +0.000 A 
ATOM     21  S   UNL     1       6.129   3.403  12.716  0.00  0.00    +0.000 S 
ENDBRANCH  16  17
ENDBRANCH  14  16
ENDBRANCH   1  13
TORSDOF 4
ENDMDL
MODEL 7
REMARK VINA RESULT:      -6.7      4.753      6.347
REMARK  Name = 
REMARK  4 active torsions:
REMARK  status: ('A' for Active; 'I' for Inactive)
REMARK    1  A    between atoms: C_2  and  C_3
REMARK    2  A    between atoms: C_3  and  C_4
REMARK    3  A    between atoms: N_13  and  C_14
REMARK    4  A    between atoms: C_14  and  C_15
REMARK                            x       y       z     vdW  Elec       q    Type
REMARK                         _______ _______ _______ _____ _____    ______ ____
ROOT
ATOM      1  C   UNL     1       3.319   3.457  20.113  0.00  0.00    +0.000 C 
ENDROOT
BRANCH   1   2
ATOM      2  C   UNL     1       4.061   3.618  18.824  0.00  0.00    +0.000 A 
ATOM      3  C   UNL     1       3.769   2.987  17.628  0.00  0.00    +0.000 A 
ATOM      4  N   UNL     1       4.712   3.354  16.705  0.00  0.00    +0.000 N 
ATOM      5  C   UNL     1       5.628   4.207  17.272  0.00  0.00    +0.000 A 
ATOM      6  C   UNL     1       6.761   4.814  16.714  0.00  0.00    +0.000 A 
ATOM      7  C   UNL     1       7.528   5.639  17.540  0.00  0.00    +0.000 A 
ATOM      8  C   UNL     1       7.176   5.846  18.871  0.00  0.00    +0.000 A 
ATOM      9  C   UNL     1       6.041   5.230  19.412  0.00  0.00    +0.000 A 
ATOM     10  C   UNL     1       5.247   4.392  18.603  0.00  0.00    +0.000 A 
ATOM     11  H   UNL     1       4.750   3.031  15.748  0.00  0.00    +0.000 HD
ENDBRANCH   1   2
BRANCH   1  13
ATOM     12  O   UNL     1       1.014   4.176  20.165  0.00  0.00    +0.000 OA
ATOM     13  C   UNL     1       2.201   4.468  20.301  0.00  0.00    +0.000 C 
ATOM     14  N   UNL     1       2.635   5.747  20.579  0.00  0.00    +0.000 N 
ATOM     15  H   UNL     1       3.587   5.874  20.892  0.00  0.00    +0.000 HD
BRANCH  14  16
ATOM     16  C   UNL     1       1.707   6.831  20.807  0.00  0.00    +0.000 C 
BRANCH  16  17
ATOM     17  C   UNL     1       1.795   7.804  19.677  0.00  0.00    +0.000 A 
ATOM     18  C   UNL     1       2.466   7.654  18.477  0.00  0.00    +0.000 A 
ATOM     19  C   UNL     1       2.353   8.803  17.644  0.00  0.00    +0.000 A 
ATOM     20  C   UNL     1       1.591   9.789  18.229  0.00  0.00    +0.000 A 
ATOM     21  S   UNL     1       1.019   9.329  19.773  0.00  0.00    +0.000 S 
ENDBRANCH  16  17
ENDBRANCH  14  16
ENDBRANCH   1  13
TORSDOF 4
ENDMDL
MODEL 8
REMARK VINA RESULT:      -6.7      4.685      6.152
REMARK  Name = 
REMARK  4 active torsions:
REMARK  status: ('A' for Active; 'I' for Inactive)
REMARK    1  A    between atoms: C_2  and  C_3
REMARK    2  A    between atoms: C_3  and  C_4
REMARK    3  A    between atoms: N_13  and  C_14
REMARK    4  A    between atoms: C_14  and  C_15
REMARK                            x       y       z     vdW  Elec       q    Type
REMARK                         _______ _______ _______ _____ _____    ______ ____
ROOT
ATOM      1  C   UNL     1       5.499   5.017  18.864  0.00  0.00    +0.000 C 
ENDROOT
BRANCH   1   2
ATOM      2  C   UNL     1       4.433   3.997  18.616  0.00  0.00    +0.000 A 
ATOM      3  C   UNL     1       4.451   3.014  17.643  0.00  0.00    +0.000 A 
ATOM      4  N   UNL     1       3.271   2.323  17.705  0.00  0.00    +0.000 N 
ATOM      5  C   UNL     1       2.467   2.838  18.693  0.00  0.00    +0.000 A 
ATOM      6  C   UNL     1       1.180   2.460  19.098  0.00  0.00    +0.000 A 
ATOM      7  C   UNL     1       0.591   3.179  20.141  0.00  0.00    +0.000 A 
ATOM      8  C   UNL     1       1.262   4.235  20.752  0.00  0.00    +0.000 A 
ATOM      9  C   UNL     1       2.548   4.598  20.334  0.00  0.00    +0.000 A 
ATOM     10  C   UNL     1       3.169   3.892  19.284  0.00  0.00    +0.000 A 
ATOM     11  H   UNL     1       3.009   1.557  17.100  0.00  0.00    +0.000 HD
ENDBRANCH   1   2
BRANCH   1  13
ATOM     12  O   UNL     1       7.743   4.381  18.238  0.00  0.00    +0.000 OA
ATOM     13  C   UNL     1       6.678   4.905  17.914  0.00  0.00    +0.000 C 
ATOM     14  N   UNL     1       6.472   5.489  16.682  0.00  0.00    +0.000 N 
ATOM     15  H   UNL     1       5.524   5.700  16.404  0.00  0.00    +0.000 HD
BRANCH  14  16
ATOM     16  C   UNL     1       7.481   5.460  15.649  0.00  0.00    +0.000 C 
BRANCH  16  17
ATOM     17  C   UNL     1       6.928   4.784  14.437  0.00  0.00    +0.000 A 
ATOM     18  C   UNL     1       5.772   4.032  14.336  0.00  0.00    +0.000 A 
ATOM     19  C   UNL     1       5.571   3.518  13.024  0.00  0.00    +0.000 A 
ATOM     20  C   UNL     1       6.573   3.901  12.162  0.00  0.00    +0.000 A 
ATOM     21  S   UNL     1       7.748   4.874  12.934  0.00  0.00    +0.000 S 
ENDBRANCH  16  17
ENDBRANCH  14  16
ENDBRANCH   1  13
TORSDOF 4
ENDMDL
MODEL 9
REMARK VINA RESULT:      -6.7      4.574      6.267
REMARK  Name = 
REMARK  4 active torsions:
REMARK  status: ('A' for Active; 'I' for Inactive)
REMARK    1  A    between atoms: C_2  and  C_3
REMARK    2  A    between atoms: C_3  and  C_4
REMARK    3  A    between atoms: N_13  and  C_14
REMARK    4  A    between atoms: C_14  and  C_15
REMARK                            x       y       z     vdW  Elec       q    Type
REMARK                         _______ _______ _______ _____ _____    ______ ____
ROOT
ATOM      1  C   UNL     1       4.692   6.449  17.742  0.00  0.00    +0.000 C 
ENDROOT
BRANCH   1   2
ATOM      2  C   UNL     1       4.536   5.114  18.399  0.00  0.00    +0.000 A 
ATOM      3  C   UNL     1       5.533   4.392  19.031  0.00  0.00    +0.000 A 
ATOM      4  N   UNL     1       5.004   3.200  19.449  0.00  0.00    +0.000 N 
ATOM      5  C   UNL     1       3.679   3.115  19.096  0.00  0.00    +0.000 A 
ATOM      6  C   UNL     1       2.754   2.083  19.302  0.00  0.00    +0.000 A 
ATOM      7  C   UNL     1       1.457   2.268  18.819  0.00  0.00    +0.000 A 
ATOM      8  C   UNL     1       1.100   3.439  18.155  0.00  0.00    +0.000 A 
ATOM      9  C   UNL     1       2.038   4.460  17.957  0.00  0.00    +0.000 A 
ATOM     10  C   UNL     1       3.355   4.302  18.434  0.00  0.00    +0.000 A 
ATOM     11  H   UNL     1       5.513   2.471  19.930  0.00  0.00    +0.000 HD
ENDBRANCH   1   2
BRANCH   1  13
ATOM     12  O   UNL     1       6.726   7.524  17.009  0.00  0.00    +0.000 OA
ATOM     13  C   UNL     1       5.954   6.571  16.907  0.00  0.00    +0.000 C 
ATOM     14  N   UNL     1       6.129   5.556  15.991  0.00  0.00    +0.000 N 
ATOM     15  H   UNL     1       5.594   4.707  16.107  0.00  0.00    +0.000 HD
BRANCH  14  16
ATOM     16  C   UNL     1       7.287   5.503  15.127  0.00  0.00    +0.000 C 
BRANCH  16  17
ATOM     17  C   UNL     1       6.946   4.737  13.890  0.00  0.00    +0.000 A 
ATOM     18  C   UNL     1       7.625   4.724  12.686  0.00  0.00    +0.000 A 
ATOM     19  C   UNL     1       6.993   3.894  11.716  0.00  0.00    +0.000 A 
ATOM     20  C   UNL     1       5.860   3.292  12.214  0.00  0.00    +0.000 A 
ATOM     21  S   UNL     1       5.562   3.728  13.840  0.00  0.00    +0.000 S 
ENDBRANCH  16  17
ENDBRANCH  14  16
ENDBRANCH   1  13
TORSDOF 4
ENDMDL
