MODEL 1
REMARK VINA RESULT:      -6.2      0.000      0.000
REMARK  Name = 
REMARK  4 active torsions:
REMARK  status: ('A' for Active; 'I' for Inactive)
REMARK    1  A    between atoms: O_1  and  C_2
REMARK    2  A    between atoms: C_18  and  O_19
REMARK    3  A    between atoms: N_22  and  C_23
REMARK    4  A    between atoms: C_23  and  C_24
REMARK                            x       y       z     vdW  Elec       q    Type
REMARK                         _______ _______ _______ _____ _____    ______ ____
ROOT
ATOM      1  C   UNL     1      -2.958  10.023  16.358  0.00  0.00    +0.000 A 
ATOM      2  C   UNL     1      -4.166  10.774  16.430  0.00  0.00    +0.000 A 
ATOM      3  C   UNL     1      -4.346  11.714  17.461  0.00  0.00    +0.000 A 
ATOM      4  C   UNL     1      -3.423  11.662  18.475  0.00  0.00    +0.000 A 
ATOM      5  C   UNL     1      -2.615  10.586  18.563  0.00  0.00    +0.000 A 
ATOM      6  C   UNL     1      -2.122  10.049  17.453  0.00  0.00    +0.000 A 
ATOM      7  O   UNL     1      -0.748  10.050  17.646  0.00  0.00    +0.000 OA
ATOM      8  C   UNL     1      -0.293  11.047  19.005  0.00  0.00    +0.000 C 
ATOM      9  C   UNL     1      -0.989  11.723  20.817  0.00  0.00    +0.000 A 
ATOM     10  N   UNL     1      -1.104  10.939  21.934  0.00  0.00    +0.000 NA
ATOM     11  C   UNL     1      -1.709  11.442  23.061  0.00  0.00    +0.000 A 
ATOM     12  C   UNL     1      -2.302  12.704  23.226  0.00  0.00    +0.000 A 
ATOM     13 BR   UNL     1      -3.563  12.963  24.609  0.00  0.00    +0.000 Br
ATOM     14  C   UNL     1      -2.097  13.698  22.298  0.00  0.00    +0.000 A 
ATOM     15  C   UNL     1      -1.400  13.270  21.181  0.00  0.00    +0.000 A 
ATOM     16  C   UNL     1      -1.337  14.327  19.766  0.00  0.00    +0.000 C 
ATOM     17  C   UNL     1      -1.307  12.774  18.466  0.00  0.00    +0.000 C 
ATOM     18  C   UNL     1      -0.389  13.211  19.374  0.00  0.00    +0.000 C 
ATOM     19  C   UNL     1      -2.516  12.929  19.183  0.00  0.00    +0.000 C 
ATOM     20  N   UNL     1       1.076  12.379  20.096  0.00  0.00    +0.000 NA
ATOM     21  C   UNL     1       1.155  10.709  20.483  0.00  0.00    +0.000 C 
ATOM     22  C   UNL     1      -0.334   9.741  20.011  0.00  0.00    +0.000 C 
ATOM     23  C   UNL     1      -1.568  11.019  19.395  0.00  0.00    +0.000 C 
ENDROOT
BRANCH   1  24
ATOM     24  O   UNL     1      -2.627   9.384  15.206  0.00  0.00    +0.000 OA
ATOM     25  H   UNL     1      -3.160   8.573  15.154  0.00  0.00    +0.000 HD
ENDBRANCH   1  24
BRANCH  17  26
ATOM     26  O   UNL     1      -0.866  12.946  17.124  0.00  0.00    +0.000 OA
ATOM     27  H   UNL     1      -1.602  13.134  16.516  0.00  0.00    +0.000 HD
ENDBRANCH  17  26
BRANCH  20  28
ATOM     28  C   UNL     1       1.581  13.143  21.287  0.00  0.00    +0.000 C 
BRANCH  28  29
ATOM     29  C   UNL     1       2.769  14.046  21.033  0.00  0.00    +0.000 C 
ATOM     30  C   UNL     1       3.070  14.447  19.600  0.00  0.00    +0.000 C 
ATOM     31  C   UNL     1       2.620  15.492  20.571  0.00  0.00    +0.000 C 
ENDBRANCH  28  29
ENDBRANCH  20  28
TORSDOF 4
ENDMDL
MODEL 2
REMARK VINA RESULT:      -6.1      2.621      5.095
REMARK  Name = 
REMARK  4 active torsions:
REMARK  status: ('A' for Active; 'I' for Inactive)
REMARK    1  A    between atoms: O_1  and  C_2
REMARK    2  A    between atoms: C_18  and  O_19
REMARK    3  A    between atoms: N_22  and  C_23
REMARK    4  A    between atoms: C_23  and  C_24
REMARK                            x       y       z     vdW  Elec       q    Type
REMARK                         _______ _______ _______ _____ _____    ______ ____
ROOT
ATOM      1  C   UNL     1       1.485  16.812  19.191  0.00  0.00    +0.000 A 
ATOM      2  C   UNL     1       0.853  17.692  20.116  0.00  0.00    +0.000 A 
ATOM      3  C   UNL     1      -0.162  17.208  20.962  0.00  0.00    +0.000 A 
ATOM      4  C   UNL     1      -0.639  15.958  20.656  0.00  0.00    +0.000 A 
ATOM      5  C   UNL     1      -0.328  15.419  19.460  0.00  0.00    +0.000 A 
ATOM      6  C   UNL     1       0.894  15.587  18.968  0.00  0.00    +0.000 A 
ATOM      7  O   UNL     1       1.352  14.300  18.725  0.00  0.00    +0.000 OA
ATOM      8  C   UNL     1       0.335  13.104  19.490  0.00  0.00    +0.000 C 
ATOM      9  C   UNL     1      -1.606  12.773  20.080  0.00  0.00    +0.000 A 
ATOM     10  N   UNL     1      -2.637  12.524  19.214  0.00  0.00    +0.000 NA
ATOM     11  C   UNL     1      -3.925  12.453  19.689  0.00  0.00    +0.000 A 
ATOM     12  C   UNL     1      -4.365  12.655  21.008  0.00  0.00    +0.000 A 
ATOM     13 BR   UNL     1      -6.177  13.090  21.323  0.00  0.00    +0.000 Br
ATOM     14  C   UNL     1      -3.464  12.701  22.045  0.00  0.00    +0.000 A 
ATOM     15  C   UNL     1      -2.145  12.673  21.627  0.00  0.00    +0.000 A 
ATOM     16  C   UNL     1      -0.876  13.049  22.800  0.00  0.00    +0.000 C 
ATOM     17  C   UNL     1       0.320  13.900  21.405  0.00  0.00    +0.000 C 
ATOM     18  C   UNL     1      -0.074  12.608  21.592  0.00  0.00    +0.000 C 
ATOM     19  C   UNL     1      -0.874  14.606  21.679  0.00  0.00    +0.000 C 
ATOM     20  N   UNL     1      -0.029  11.165  20.463  0.00  0.00    +0.000 NA
ATOM     21  C   UNL     1      -0.308  11.243  18.771  0.00  0.00    +0.000 C 
ATOM     22  C   UNL     1      -0.554  12.941  18.112  0.00  0.00    +0.000 C 
ATOM     23  C   UNL     1      -0.594  14.049  19.630  0.00  0.00    +0.000 C 
ENDROOT
BRANCH   1  24
ATOM     24  O   UNL     1       2.671  17.160  18.629  0.00  0.00    +0.000 OA
ATOM     25  H   UNL     1       2.989  17.959  19.080  0.00  0.00    +0.000 HD
ENDBRANCH   1  24
BRANCH  17  26
ATOM     26  O   UNL     1       1.711  14.081  21.641  0.00  0.00    +0.000 OA
ATOM     27  H   UNL     1       2.193  14.325  20.831  0.00  0.00    +0.000 HD
ENDBRANCH  17  26
BRANCH  20  28
ATOM     28  C   UNL     1      -0.870  10.045  21.008  0.00  0.00    +0.000 C 
BRANCH  28  29
ATOM     29  C   UNL     1      -0.147   9.050  21.890  0.00  0.00    +0.000 C 
ATOM     30  C   UNL     1       1.285   9.356  22.289  0.00  0.00    +0.000 C 
ATOM     31  C   UNL     1       0.220   9.351  23.339  0.00  0.00    +0.000 C 
ENDBRANCH  28  29
ENDBRANCH  20  28
TORSDOF 4
ENDMDL
MODEL 3
REMARK VINA RESULT:      -6.1      8.413     11.914
REMARK  Name = 
REMARK  4 active torsions:
REMARK  status: ('A' for Active; 'I' for Inactive)
REMARK    1  A    between atoms: O_1  and  C_2
REMARK    2  A    between atoms: C_18  and  O_19
REMARK    3  A    between atoms: N_22  and  C_23
REMARK    4  A    between atoms: C_23  and  C_24
REMARK                            x       y       z     vdW  Elec       q    Type
REMARK                         _______ _______ _______ _____ _____    ______ ____
ROOT
ATOM      1  C   UNL     1      12.081  13.188  17.253  0.00  0.00    +0.000 A 
ATOM      2  C   UNL     1      12.324  12.125  18.169  0.00  0.00    +0.000 A 
ATOM      3  C   UNL     1      11.762  12.171  19.458  0.00  0.00    +0.000 A 
ATOM      4  C   UNL     1      11.209  13.373  19.820  0.00  0.00    +0.000 A 
ATOM      5  C   UNL     1      11.478  14.462  19.073  0.00  0.00    +0.000 A 
ATOM      6  C   UNL     1      11.529  14.349  17.750  0.00  0.00    +0.000 A 
ATOM      7  O   UNL     1      10.620  15.288  17.285  0.00  0.00    +0.000 OA
ATOM      8  C   UNL     1       9.600  15.884  18.572  0.00  0.00    +0.000 C 
ATOM      9  C   UNL     1       9.595  16.237  20.596  0.00  0.00    +0.000 A 
ATOM     10  N   UNL     1      10.281  17.260  21.197  0.00  0.00    +0.000 NA
ATOM     11  C   UNL     1      10.330  17.334  22.569  0.00  0.00    +0.000 A 
ATOM     12  C   UNL     1       9.784  16.433  23.497  0.00  0.00    +0.000 A 
ATOM     13 BR   UNL     1      10.457  16.398  25.263  0.00  0.00    +0.000 Br
ATOM     14  C   UNL     1       8.886  15.473  23.093  0.00  0.00    +0.000 A 
ATOM     15  C   UNL     1       8.720  15.422  21.720  0.00  0.00    +0.000 A 
ATOM     16  C   UNL     1       7.859  14.044  21.022  0.00  0.00    +0.000 C 
ATOM     17  C   UNL     1       8.972  14.059  19.330  0.00  0.00    +0.000 C 
ATOM     18  C   UNL     1       8.054  14.943  19.817  0.00  0.00    +0.000 C 
ATOM     19  C   UNL     1       9.674  13.700  20.503  0.00  0.00    +0.000 C 
ATOM     20  N   UNL     1       7.719  16.689  19.376  0.00  0.00    +0.000 NA
ATOM     21  C   UNL     1       8.922  17.833  18.942  0.00  0.00    +0.000 C 
ATOM     22  C   UNL     1      10.624  17.150  18.832  0.00  0.00    +0.000 C 
ATOM     23  C   UNL     1      10.476  15.377  19.439  0.00  0.00    +0.000 C 
ENDROOT
BRANCH   1  24
ATOM     24  O   UNL     1      12.315  13.005  15.928  0.00  0.00    +0.000 OA
ATOM     25  H   UNL     1      11.784  12.245  15.636  0.00  0.00    +0.000 HD
ENDBRANCH   1  24
BRANCH  17  26
ATOM     26  O   UNL     1       8.522  13.408  18.148  0.00  0.00    +0.000 OA
ATOM     27  H   UNL     1       8.160  14.035  17.498  0.00  0.00    +0.000 HD
ENDBRANCH  17  26
BRANCH  20  28
ATOM     28  C   UNL     1       6.837  17.332  20.410  0.00  0.00    +0.000 C 
BRANCH  28  29
ATOM     29  C   UNL     1       5.382  17.493  20.024  0.00  0.00    +0.000 C 
ATOM     30  C   UNL     1       4.541  16.239  19.865  0.00  0.00    +0.000 C 
ATOM     31  C   UNL     1       4.238  17.185  20.984  0.00  0.00    +0.000 C 
ENDBRANCH  28  29
ENDBRANCH  20  28
TORSDOF 4
ENDMDL
MODEL 4
REMARK VINA RESULT:      -6.1      2.733      5.312
REMARK  Name = 
REMARK  4 active torsions:
REMARK  status: ('A' for Active; 'I' for Inactive)
REMARK    1  A    between atoms: O_1  and  C_2
REMARK    2  A    between atoms: C_18  and  O_19
REMARK    3  A    between atoms: N_22  and  C_23
REMARK    4  A    between atoms: C_23  and  C_24
REMARK                            x       y       z     vdW  Elec       q    Type
REMARK                         _______ _______ _______ _____ _____    ______ ____
ROOT
ATOM      1  C   UNL     1       2.219  16.515  19.187  0.00  0.00    +0.000 A 
ATOM      2  C   UNL     1       1.146  17.403  19.488  0.00  0.00    +0.000 A 
ATOM      3  C   UNL     1      -0.133  16.886  19.766  0.00  0.00    +0.000 A 
ATOM      4  C   UNL     1      -0.306  15.554  19.485  0.00  0.00    +0.000 A 
ATOM      5  C   UNL     1       0.619  14.924  18.733  0.00  0.00    +0.000 A 
ATOM      6  C   UNL     1       1.905  15.202  18.913  0.00  0.00    +0.000 A 
ATOM      7  O   UNL     1       2.494  13.972  19.170  0.00  0.00    +0.000 OA
ATOM      8  C   UNL     1       1.296  12.746  19.505  0.00  0.00    +0.000 C 
ATOM      9  C   UNL     1      -0.642  12.219  19.068  0.00  0.00    +0.000 A 
ATOM     10  N   UNL     1      -1.046  11.725  17.856  0.00  0.00    +0.000 NA
ATOM     11  C   UNL     1      -2.385  11.531  17.611  0.00  0.00    +0.000 A 
ATOM     12  C   UNL     1      -3.464  11.827  18.460  0.00  0.00    +0.000 A 
ATOM     13 BR   UNL     1      -5.192  12.038  17.723  0.00  0.00    +0.000 Br
ATOM     14  C   UNL     1      -3.249  12.124  19.785  0.00  0.00    +0.000 A 
ATOM     15  C   UNL     1      -1.908  12.231  20.112  0.00  0.00    +0.000 A 
ATOM     16  C   UNL     1      -1.472  12.920  21.680  0.00  0.00    +0.000 C 
ATOM     17  C   UNL     1       0.229  13.757  20.968  0.00  0.00    +0.000 C 
ATOM     18  C   UNL     1      -0.130  12.454  21.151  0.00  0.00    +0.000 C 
ATOM     19  C   UNL     1      -0.968  14.316  20.464  0.00  0.00    +0.000 C 
ATOM     20  N   UNL     1       0.584  10.907  20.479  0.00  0.00    +0.000 NA
ATOM     21  C   UNL     1       1.234  10.740  18.899  0.00  0.00    +0.000 C 
ATOM     22  C   UNL     1       1.277  12.294  17.920  0.00  0.00    +0.000 C 
ATOM     23  C   UNL     1       0.381  13.561  18.981  0.00  0.00    +0.000 C 
ENDROOT
BRANCH   1  24
ATOM     24  O   UNL     1       3.501  16.956  19.258  0.00  0.00    +0.000 OA
ATOM     25  H   UNL     1       4.064  16.195  19.479  0.00  0.00    +0.000 HD
ENDBRANCH   1  24
BRANCH  17  26
ATOM     26  O   UNL     1       1.275  14.159  21.845  0.00  0.00    +0.000 OA
ATOM     27  H   UNL     1       1.819  14.870  21.466  0.00  0.00    +0.000 HD
ENDBRANCH  17  26
BRANCH  20  28
ATOM     28  C   UNL     1      -0.352   9.754  20.705  0.00  0.00    +0.000 C 
BRANCH  28  29
ATOM     29  C   UNL     1      -0.077   8.915  21.936  0.00  0.00    +0.000 C 
ATOM     30  C   UNL     1       1.183   9.204  22.730  0.00  0.00    +0.000 C 
ATOM     31  C   UNL     1      -0.150   9.481  23.349  0.00  0.00    +0.000 C 
ENDBRANCH  28  29
ENDBRANCH  20  28
TORSDOF 4
ENDMDL
MODEL 5
REMARK VINA RESULT:      -6.0      9.068     11.650
REMARK  Name = 
REMARK  4 active torsions:
REMARK  status: ('A' for Active; 'I' for Inactive)
REMARK    1  A    between atoms: O_1  and  C_2
REMARK    2  A    between atoms: C_18  and  O_19
REMARK    3  A    between atoms: N_22  and  C_23
REMARK    4  A    between atoms: C_23  and  C_24
REMARK                            x       y       z     vdW  Elec       q    Type
REMARK                         _______ _______ _______ _____ _____    ______ ____
ROOT
ATOM      1  C   UNL     1      11.832  12.739  18.142  0.00  0.00    +0.000 A 
ATOM      2  C   UNL     1      11.511  11.506  18.779  0.00  0.00    +0.000 A 
ATOM      3  C   UNL     1      10.676  11.499  19.911  0.00  0.00    +0.000 A 
ATOM      4  C   UNL     1      10.425  12.728  20.467  0.00  0.00    +0.000 A 
ATOM      5  C   UNL     1      11.182  13.778  20.090  0.00  0.00    +0.000 A 
ATOM      6  C   UNL     1      11.534  13.903  18.816  0.00  0.00    +0.000 A 
ATOM      7  O   UNL     1      11.090  15.167  18.454  0.00  0.00    +0.000 OA
ATOM      8  C   UNL     1       9.995  15.825  19.645  0.00  0.00    +0.000 C 
ATOM      9  C   UNL     1       9.574  15.773  21.656  0.00  0.00    +0.000 A 
ATOM     10  N   UNL     1      10.351  16.367  22.616  0.00  0.00    +0.000 NA
ATOM     11  C   UNL     1      10.066  16.162  23.945  0.00  0.00    +0.000 A 
ATOM     12  C   UNL     1       9.062  15.346  24.492  0.00  0.00    +0.000 A 
ATOM     13 BR   UNL     1       9.220  14.753  26.280  0.00  0.00    +0.000 Br
ATOM     14  C   UNL     1       8.058  14.847  23.696  0.00  0.00    +0.000 A 
ATOM     15  C   UNL     1       8.242  15.113  22.351  0.00  0.00    +0.000 A 
ATOM     16  C   UNL     1       7.225  14.272  21.174  0.00  0.00    +0.000 C 
ATOM     17  C   UNL     1       8.689  14.220  19.775  0.00  0.00    +0.000 C 
ATOM     18  C   UNL     1       7.976  15.257  20.300  0.00  0.00    +0.000 C 
ATOM     19  C   UNL     1       8.930  13.428  20.922  0.00  0.00    +0.000 C 
ATOM     20  N   UNL     1       8.290  17.062  20.277  0.00  0.00    +0.000 NA
ATOM     21  C   UNL     1       9.844  17.782  20.381  0.00  0.00    +0.000 C 
ATOM     22  C   UNL     1      11.241  16.590  20.407  0.00  0.00    +0.000 C 
ATOM     23  C   UNL     1      10.432  14.896  20.495  0.00  0.00    +0.000 C 
ENDROOT
BRANCH   1  24
ATOM     24  O   UNL     1      12.333  12.738  16.880  0.00  0.00    +0.000 OA
ATOM     25  H   UNL     1      12.833  13.562  16.759  0.00  0.00    +0.000 HD
ENDBRANCH   1  24
BRANCH  17  26
ATOM     26  O   UNL     1       8.388  13.996  18.403  0.00  0.00    +0.000 OA
ATOM     27  H   UNL     1       8.417  14.817  17.882  0.00  0.00    +0.000 HD
ENDBRANCH  17  26
BRANCH  20  28
ATOM     28  C   UNL     1       7.400  17.763  21.264  0.00  0.00    +0.000 C 
BRANCH  28  29
ATOM     29  C   UNL     1       6.058  18.219  20.732  0.00  0.00    +0.000 C 
ATOM     30  C   UNL     1       5.396  17.384  19.651  0.00  0.00    +0.000 C 
ATOM     31  C   UNL     1       4.764  17.461  21.005  0.00  0.00    +0.000 C 
ENDBRANCH  28  29
ENDBRANCH  20  28
TORSDOF 4
ENDMDL
MODEL 6
REMARK VINA RESULT:      -5.9      2.747      5.939
REMARK  Name = 
REMARK  4 active torsions:
REMARK  status: ('A' for Active; 'I' for Inactive)
REMARK    1  A    between atoms: O_1  and  C_2
REMARK    2  A    between atoms: C_18  and  O_19
REMARK    3  A    between atoms: N_22  and  C_23
REMARK    4  A    between atoms: C_23  and  C_24
REMARK                            x       y       z     vdW  Elec       q    Type
REMARK                         _______ _______ _______ _____ _____    ______ ____
ROOT
ATOM      1  C   UNL     1       2.790  16.529  19.604  0.00  0.00    +0.000 A 
ATOM      2  C   UNL     1       3.536  15.736  18.686  0.00  0.00    +0.000 A 
ATOM      3  C   UNL     1       3.122  14.423  18.397  0.00  0.00    +0.000 A 
ATOM      4  C   UNL     1       2.149  13.916  19.220  0.00  0.00    +0.000 A 
ATOM      5  C   UNL     1       1.869  14.564  20.369  0.00  0.00    +0.000 A 
ATOM      6  C   UNL     1       1.847  15.891  20.381  0.00  0.00    +0.000 A 
ATOM      7  O   UNL     1       0.590  16.215  20.872  0.00  0.00    +0.000 OA
ATOM      8  C   UNL     1      -0.469  14.827  20.886  0.00  0.00    +0.000 C 
ATOM      9  C   UNL     1      -0.446  12.779  21.061  0.00  0.00    +0.000 A 
ATOM     10  N   UNL     1      -0.204  12.113  22.234  0.00  0.00    +0.000 NA
ATOM     11  C   UNL     1      -0.072  10.745  22.227  0.00  0.00    +0.000 A 
ATOM     12  C   UNL     1      -0.105   9.886  21.116  0.00  0.00    +0.000 A 
ATOM     13 BR   UNL     1       0.672   8.168  21.250  0.00  0.00    +0.000 Br
ATOM     14  C   UNL     1      -0.547  10.339  19.896  0.00  0.00    +0.000 A 
ATOM     15  C   UNL     1      -0.795  11.701  19.874  0.00  0.00    +0.000 A 
ATOM     16  C   UNL     1      -1.054  12.489  18.313  0.00  0.00    +0.000 C 
ATOM     17  C   UNL     1      -0.203  14.224  18.919  0.00  0.00    +0.000 C 
ATOM     18  C   UNL     1      -1.361  13.607  19.290  0.00  0.00    +0.000 C 
ATOM     19  C   UNL     1       0.685  13.129  18.813  0.00  0.00    +0.000 C 
ATOM     20  N   UNL     1      -2.437  13.854  20.753  0.00  0.00    +0.000 NA
ATOM     21  C   UNL     1      -1.868  14.230  22.328  0.00  0.00    +0.000 C 
ATOM     22  C   UNL     1      -0.054  14.492  22.446  0.00  0.00    +0.000 C 
ATOM     23  C   UNL     1       0.611  14.058  20.742  0.00  0.00    +0.000 C 
ENDROOT
BRANCH   1  24
ATOM     24  O   UNL     1       2.963  17.876  19.631  0.00  0.00    +0.000 OA
ATOM     25  H   UNL     1       3.635  18.101  18.966  0.00  0.00    +0.000 HD
ENDBRANCH   1  24
BRANCH  17  26
ATOM     26  O   UNL     1      -0.438  15.442  18.222  0.00  0.00    +0.000 OA
ATOM     27  H   UNL     1      -0.244  16.222  18.770  0.00  0.00    +0.000 HD
ENDBRANCH  17  26
BRANCH  20  28
ATOM     28  C   UNL     1      -3.413  12.719  20.884  0.00  0.00    +0.000 C 
BRANCH  28  29
ATOM     29  C   UNL     1      -4.783  12.958  20.285  0.00  0.00    +0.000 C 
ATOM     30  C   UNL     1      -5.249  12.033  19.175  0.00  0.00    +0.000 C 
ATOM     31  C   UNL     1      -5.951  12.000  20.496  0.00  0.00    +0.000 C 
ENDBRANCH  28  29
ENDBRANCH  20  28
TORSDOF 4
ENDMDL
MODEL 7
REMARK VINA RESULT:      -5.9      3.048      5.633
REMARK  Name = 
REMARK  4 active torsions:
REMARK  status: ('A' for Active; 'I' for Inactive)
REMARK    1  A    between atoms: O_1  and  C_2
REMARK    2  A    between atoms: C_18  and  O_19
REMARK    3  A    between atoms: N_22  and  C_23
REMARK    4  A    between atoms: C_23  and  C_24
REMARK                            x       y       z     vdW  Elec       q    Type
REMARK                         _______ _______ _______ _____ _____    ______ ____
ROOT
ATOM      1  C   UNL     1      -3.404  13.560  24.592  0.00  0.00    +0.000 A 
ATOM      2  C   UNL     1      -3.382  14.964  24.354  0.00  0.00    +0.000 A 
ATOM      3  C   UNL     1      -2.685  15.476  23.245  0.00  0.00    +0.000 A 
ATOM      4  C   UNL     1      -1.866  14.585  22.600  0.00  0.00    +0.000 A 
ATOM      5  C   UNL     1      -1.572  13.417  23.206  0.00  0.00    +0.000 A 
ATOM      6  C   UNL     1      -2.519  12.778  23.882  0.00  0.00    +0.000 A 
ATOM      7  O   UNL     1      -2.556  11.511  23.317  0.00  0.00    +0.000 OA
ATOM      8  C   UNL     1      -1.670  11.455  21.813  0.00  0.00    +0.000 C 
ATOM      9  C   UNL     1      -0.077  12.320  20.844  0.00  0.00    +0.000 A 
ATOM     10  N   UNL     1       1.234  12.091  21.169  0.00  0.00    +0.000 NA
ATOM     11  C   UNL     1       2.225  12.820  20.557  0.00  0.00    +0.000 A 
ATOM     12  C   UNL     1       2.075  13.858  19.623  0.00  0.00    +0.000 A 
ATOM     13 BR   UNL     1       3.487  15.088  19.370  0.00  0.00    +0.000 Br
ATOM     14  C   UNL     1       0.861  14.082  19.017  0.00  0.00    +0.000 A 
ATOM     15  C   UNL     1      -0.159  13.298  19.529  0.00  0.00    +0.000 A 
ATOM     16  C   UNL     1      -1.826  13.688  19.091  0.00  0.00    +0.000 C 
ATOM     17  C   UNL     1      -2.559  13.078  20.878  0.00  0.00    +0.000 C 
ATOM     18  C   UNL     1      -1.991  12.386  19.849  0.00  0.00    +0.000 C 
ATOM     19  C   UNL     1      -1.746  14.234  20.929  0.00  0.00    +0.000 C 
ATOM     20  N   UNL     1      -1.285  10.696  19.785  0.00  0.00    +0.000 NA
ATOM     21  C   UNL     1      -0.408   9.958  21.063  0.00  0.00    +0.000 C 
ATOM     22  C   UNL     1      -0.310  10.956  22.602  0.00  0.00    +0.000 C 
ATOM     23  C   UNL     1      -1.095  12.606  22.161  0.00  0.00    +0.000 C 
ENDROOT
BRANCH   1  24
ATOM     24  O   UNL     1      -4.333  13.030  25.429  0.00  0.00    +0.000 OA
ATOM     25  H   UNL     1      -5.128  13.586  25.379  0.00  0.00    +0.000 HD
ENDBRANCH   1  24
BRANCH  17  26
ATOM     26  O   UNL     1      -3.938  12.770  21.042  0.00  0.00    +0.000 OA
ATOM     27  H   UNL     1      -4.206  12.769  21.977  0.00  0.00    +0.000 HD
ENDBRANCH  17  26
BRANCH  20  28
ATOM     28  C   UNL     1      -0.490  10.506  18.524  0.00  0.00    +0.000 C 
BRANCH  28  29
ATOM     29  C   UNL     1      -1.252   9.936  17.346  0.00  0.00    +0.000 C 
ATOM     30  C   UNL     1      -2.749   9.730  17.495  0.00  0.00    +0.000 C 
ATOM     31  C   UNL     1      -2.246  10.759  16.534  0.00  0.00    +0.000 C 
ENDBRANCH  28  29
ENDBRANCH  20  28
TORSDOF 4
ENDMDL
MODEL 8
REMARK VINA RESULT:      -5.8      2.908      5.434
REMARK  Name = 
REMARK  4 active torsions:
REMARK  status: ('A' for Active; 'I' for Inactive)
REMARK    1  A    between atoms: O_1  and  C_2
REMARK    2  A    between atoms: C_18  and  O_19
REMARK    3  A    between atoms: N_22  and  C_23
REMARK    4  A    between atoms: C_23  and  C_24
REMARK                            x       y       z     vdW  Elec       q    Type
REMARK                         _______ _______ _______ _____ _____    ______ ____
ROOT
ATOM      1  C   UNL     1       1.213  17.536  19.178  0.00  0.00    +0.000 A 
ATOM      2  C   UNL     1      -0.009  18.264  19.262  0.00  0.00    +0.000 A 
ATOM      3  C   UNL     1      -1.218  17.581  19.485  0.00  0.00    +0.000 A 
ATOM      4  C   UNL     1      -1.156  16.216  19.362  0.00  0.00    +0.000 A 
ATOM      5  C   UNL     1      -0.069  15.664  18.785  0.00  0.00    +0.000 A 
ATOM      6  C   UNL     1       1.132  16.166  19.047  0.00  0.00    +0.000 A 
ATOM      7  O   UNL     1       1.868  15.086  19.512  0.00  0.00    +0.000 OA
ATOM      8  C   UNL     1       0.839  13.726  19.889  0.00  0.00    +0.000 C 
ATOM      9  C   UNL     1      -0.937  12.845  19.346  0.00  0.00    +0.000 A 
ATOM     10  N   UNL     1      -1.125  12.159  18.175  0.00  0.00    +0.000 NA
ATOM     11  C   UNL     1      -2.383  11.723  17.834  0.00  0.00    +0.000 A 
ATOM     12  C   UNL     1      -3.582  11.933  18.535  0.00  0.00    +0.000 A 
ATOM     13 BR   UNL     1      -5.229  11.775  17.621  0.00  0.00    +0.000 Br
ATOM     14  C   UNL     1      -3.564  12.407  19.825  0.00  0.00    +0.000 A 
ATOM     15  C   UNL     1      -2.299  12.767  20.258  0.00  0.00    +0.000 A 
ATOM     16  C   UNL     1      -2.149  13.689  21.759  0.00  0.00    +0.000 C 
ATOM     17  C   UNL     1      -0.525  14.707  21.106  0.00  0.00    +0.000 C 
ATOM     18  C   UNL     1      -0.702  13.392  21.421  0.00  0.00    +0.000 C 
ATOM     19  C   UNL     1      -1.729  15.003  20.426  0.00  0.00    +0.000 C 
ATOM     20  N   UNL     1       0.308  11.916  21.020  0.00  0.00    +0.000 NA
ATOM     21  C   UNL     1       1.148  11.682  19.542  0.00  0.00    +0.000 C 
ATOM     22  C   UNL     1       1.064  13.103  18.380  0.00  0.00    +0.000 C 
ATOM     23  C   UNL     1      -0.125  14.317  19.183  0.00  0.00    +0.000 C 
ENDROOT
BRANCH   1  24
ATOM     24  O   UNL     1       2.398  18.185  19.310  0.00  0.00    +0.000 OA
ATOM     25  H   UNL     1       3.077  17.521  19.518  0.00  0.00    +0.000 HD
ENDBRANCH   1  24
BRANCH  17  26
ATOM     26  O   UNL     1       0.344  15.369  22.017  0.00  0.00    +0.000 OA
ATOM     27  H   UNL     1       1.010  14.768  22.393  0.00  0.00    +0.000 HD
ENDBRANCH  17  26
BRANCH  20  28
ATOM     28  C   UNL     1      -0.464  10.658  21.305  0.00  0.00    +0.000 C 
BRANCH  28  29
ATOM     29  C   UNL     1       0.260   9.615  22.130  0.00  0.00    +0.000 C 
ATOM     30  C   UNL     1      -0.170   8.166  21.987  0.00  0.00    +0.000 C 
ATOM     31  C   UNL     1       1.188   8.576  21.510  0.00  0.00    +0.000 C 
ENDBRANCH  28  29
ENDBRANCH  20  28
TORSDOF 4
ENDMDL
MODEL 9
REMARK VINA RESULT:      -5.8      8.092     11.791
REMARK  Name = 
REMARK  4 active torsions:
REMARK  status: ('A' for Active; 'I' for Inactive)
REMARK    1  A    between atoms: O_1  and  C_2
REMARK    2  A    between atoms: C_18  and  O_19
REMARK    3  A    between atoms: N_22  and  C_23
REMARK    4  A    between atoms: C_23  and  C_24
REMARK                            x       y       z     vdW  Elec       q    Type
REMARK                         _______ _______ _______ _____ _____    ______ ____
ROOT
ATOM      1  C   UNL     1      11.578  13.668  17.107  0.00  0.00    +0.000 A 
ATOM      2  C   UNL     1      12.333  12.765  17.909  0.00  0.00    +0.000 A 
ATOM      3  C   UNL     1      12.138  12.734  19.301  0.00  0.00    +0.000 A 
ATOM      4  C   UNL     1      11.392  13.764  19.816  0.00  0.00    +0.000 A 
ATOM      5  C   UNL     1      11.148  14.839  19.041  0.00  0.00    +0.000 A 
ATOM      6  C   UNL     1      10.880  14.666  17.752  0.00  0.00    +0.000 A 
ATOM      7  O   UNL     1       9.660  15.299  17.562  0.00  0.00    +0.000 OA
ATOM      8  C   UNL     1       8.890  15.675  19.083  0.00  0.00    +0.000 C 
ATOM      9  C   UNL     1       9.319  16.133  21.041  0.00  0.00    +0.000 A 
ATOM     10  N   UNL     1       9.830  17.335  21.452  0.00  0.00    +0.000 NA
ATOM     11  C   UNL     1      10.215  17.501  22.761  0.00  0.00    +0.000 A 
ATOM     12  C   UNL     1      10.198  16.542  23.788  0.00  0.00    +0.000 A 
ATOM     13 BR   UNL     1      11.293  16.794  25.308  0.00  0.00    +0.000 Br
ATOM     14  C   UNL     1       9.524  15.355  23.624  0.00  0.00    +0.000 A 
ATOM     15  C   UNL     1       9.025  15.181  22.345  0.00  0.00    +0.000 A 
ATOM     16  C   UNL     1       8.423  13.584  21.882  0.00  0.00    +0.000 C 
ATOM     17  C   UNL     1       9.006  13.797  19.954  0.00  0.00    +0.000 C 
ATOM     18  C   UNL     1       8.042  14.430  20.682  0.00  0.00    +0.000 C 
ATOM     19  C   UNL     1      10.061  13.708  20.891  0.00  0.00    +0.000 C 
ATOM     20  N   UNL     1       7.139  15.994  20.375  0.00  0.00    +0.000 NA
ATOM     21  C   UNL     1       7.826  17.390  19.652  0.00  0.00    +0.000 C 
ATOM     22  C   UNL     1       9.560  17.182  19.079  0.00  0.00    +0.000 C 
ATOM     23  C   UNL     1      10.066  15.473  19.677  0.00  0.00    +0.000 C 
ENDROOT
BRANCH   1  24
ATOM     24  O   UNL     1      11.498  13.476  15.765  0.00  0.00    +0.000 OA
ATOM     25  H   UNL     1      11.314  14.337  15.354  0.00  0.00    +0.000 HD
ENDBRANCH   1  24
BRANCH  17  26
ATOM     26  O   UNL     1       8.458  12.981  18.925  0.00  0.00    +0.000 OA
ATOM     27  H   UNL     1       7.819  13.464  18.374  0.00  0.00    +0.000 HD
ENDBRANCH  17  26
BRANCH  20  28
ATOM     28  C   UNL     1       6.417  16.437  21.616  0.00  0.00    +0.000 C 
BRANCH  28  29
ATOM     29  C   UNL     1       4.952  16.062  21.695  0.00  0.00    +0.000 C 
ATOM     30  C   UNL     1       4.587  14.590  21.652  0.00  0.00    +0.000 C 
ATOM     31  C   UNL     1       4.345  15.366  22.908  0.00  0.00    +0.000 C 
ENDBRANCH  28  29
ENDBRANCH  20  28
TORSDOF 4
ENDMDL
