MODEL 1
REMARK VINA RESULT:      -7.4      0.000      0.000
REMARK  Name = 
REMARK  10 active torsions:
REMARK  status: ('A' for Active; 'I' for Inactive)
REMARK    1  A    between atoms: C_2  and  C_3
REMARK    2  A    between atoms: C_5  and  N_6
REMARK    3  A    between atoms: C_11  and  C_13
REMARK    4  A    between atoms: C_13  and  N_14
REMARK    5  A    between atoms: C_13  and  C_15
REMARK    6  A    between atoms: C_15  and  C_16
REMARK    7  A    between atoms: C_16  and  C_17
REMARK    8  A    between atoms: N_19  and  C_20
REMARK    9  A    between atoms: C_20  and  C_21
REMARK   10  A    between atoms: C_21  and  N_22
REMARK                            x       y       z     vdW  Elec       q    Type
REMARK                         _______ _______ _______ _____ _____    ______ ____
ROOT
ATOM      1  C   UNL     1       5.728   5.184  18.672  0.00  0.00    +0.000 C 
ENDROOT
BRANCH   1   7
ATOM      2  C   UNL     1       2.726   4.994  18.072  0.00  0.00    +0.000 C 
ATOM      3  C   UNL     1       1.390   4.301  17.748  0.00  0.00    +0.000 C 
ATOM      4  C   UNL     1       1.297   3.190  18.799  0.00  0.00    +0.000 C 
ATOM      5  C   UNL     1       2.748   2.720  18.873  0.00  0.00    +0.000 C 
ATOM      6  N   UNL     1       3.540   3.927  18.676  0.00  0.00    +0.000 N 
ATOM      7  C   UNL     1       4.892   3.908  18.937  0.00  0.00    +0.000 C 
ATOM      8  O   UNL     1       5.419   2.902  19.422  0.00  0.00    +0.000 OA
BRANCH   4   9
ATOM      9  N   UNL     1       0.878   3.801  20.070  0.00  0.00    +0.000 NA
ATOM     10  N   UNL     1       1.191   3.200  21.112  0.00  0.00    +0.000 NA
ATOM     11  N   UNL     1       1.474   2.643  22.064  0.00  0.00    +0.000 NA
ENDBRANCH   4   9
BRANCH   2  13
ATOM     12  N   UNL     1       2.333   7.011  19.729  0.00  0.00    +0.000 NA
ATOM     13  C   UNL     1       2.518   6.142  18.984  0.00  0.00    +0.000 C 
ENDBRANCH   2  13
ENDBRANCH   1   7
BRANCH   1  14
ATOM     14  N   UNL     1       6.718   5.365  19.749  0.00  0.00    +0.000 NA
ATOM     15  H   UNL     1       6.254   5.797  20.554  0.00  0.00    +0.000 HD
ATOM     16  H   UNL     1       7.452   6.023  19.478  0.00  0.00    +0.000 HD
ENDBRANCH   1  14
BRANCH   1  17
ATOM     17  C   UNL     1       6.522   5.063  17.356  0.00  0.00    +0.000 C 
BRANCH  17  18
ATOM     18  C   UNL     1       5.640   5.086  16.108  0.00  0.00    +0.000 C 
BRANCH  18  19
ATOM     19  C   UNL     1       6.432   4.803  14.852  0.00  0.00    +0.000 C 
ATOM     20  O   UNL     1       7.592   5.182  14.717  0.00  0.00    +0.000 OA
ATOM     21  N   UNL     1       5.762   4.054  13.917  0.00  0.00    +0.000 N 
ATOM     22  H   UNL     1       4.845   3.679  14.124  0.00  0.00    +0.000 HD
BRANCH  21  23
ATOM     23  C   UNL     1       6.376   3.666  12.660  0.00  0.00    +0.000 C 
BRANCH  23  24
ATOM     24  C   UNL     1       5.508   2.702  11.840  0.00  0.00    +0.000 C 
BRANCH  24  25
ATOM     25  N   UNL     1       6.244   1.496  11.448  0.00  0.00    +0.000 NA
ATOM     26  H   UNL     1       6.342   1.476  10.432  0.00  0.00    +0.000 HD
ATOM     27  H   UNL     1       5.694   0.673  11.691  0.00  0.00    +0.000 HD
ENDBRANCH  24  25
ENDBRANCH  23  24
ENDBRANCH  21  23
ENDBRANCH  18  19
ENDBRANCH  17  18
ENDBRANCH   1  17
TORSDOF 10
ENDMDL
MODEL 2
REMARK VINA RESULT:      -6.8      2.367      6.648
REMARK  Name = 
REMARK  10 active torsions:
REMARK  status: ('A' for Active; 'I' for Inactive)
REMARK    1  A    between atoms: C_2  and  C_3
REMARK    2  A    between atoms: C_5  and  N_6
REMARK    3  A    between atoms: C_11  and  C_13
REMARK    4  A    between atoms: C_13  and  N_14
REMARK    5  A    between atoms: C_13  and  C_15
REMARK    6  A    between atoms: C_15  and  C_16
REMARK    7  A    between atoms: C_16  and  C_17
REMARK    8  A    between atoms: N_19  and  C_20
REMARK    9  A    between atoms: C_20  and  C_21
REMARK   10  A    between atoms: C_21  and  N_22
REMARK                            x       y       z     vdW  Elec       q    Type
REMARK                         _______ _______ _______ _____ _____    ______ ____
ROOT
ATOM      1  C   UNL     1       3.746   2.320  17.675  0.00  0.00    +0.000 C 
ENDROOT
BRANCH   1   7
ATOM      2  C   UNL     1       4.570   5.054  16.556  0.00  0.00    +0.000 C 
ATOM      3  C   UNL     1       4.989   6.534  16.605  0.00  0.00    +0.000 C 
ATOM      4  C   UNL     1       6.145   6.547  17.611  0.00  0.00    +0.000 C 
ATOM      5  C   UNL     1       5.651   5.546  18.653  0.00  0.00    +0.000 C 
ATOM      6  N   UNL     1       4.925   4.541  17.888  0.00  0.00    +0.000 N 
ATOM      7  C   UNL     1       4.564   3.355  18.487  0.00  0.00    +0.000 C 
ATOM      8  O   UNL     1       4.930   3.101  19.639  0.00  0.00    +0.000 OA
BRANCH   4   9
ATOM      9  N   UNL     1       7.347   6.044  16.928  0.00  0.00    +0.000 NA
ATOM     10  N   UNL     1       7.900   5.048  17.424  0.00  0.00    +0.000 NA
ATOM     11  N   UNL     1       8.407   4.139  17.886  0.00  0.00    +0.000 NA
ENDBRANCH   4   9
BRANCH   2  13
ATOM     12  N   UNL     1       5.853   3.822  14.606  0.00  0.00    +0.000 NA
ATOM     13  C   UNL     1       5.271   4.343  15.461  0.00  0.00    +0.000 C 
ENDBRANCH   2  13
ENDBRANCH   1   7
BRANCH   1  14
ATOM     14  N   UNL     1       3.858   0.991  18.304  0.00  0.00    +0.000 NA
ATOM     15  H   UNL     1       4.141   1.112  19.281  0.00  0.00    +0.000 HD
ATOM     16  H   UNL     1       4.600   0.434  17.876  0.00  0.00    +0.000 HD
ENDBRANCH   1  14
BRANCH   1  17
ATOM     17  C   UNL     1       2.247   2.682  17.668  0.00  0.00    +0.000 C 
BRANCH  17  18
ATOM     18  C   UNL     1       1.475   2.101  18.852  0.00  0.00    +0.000 C 
BRANCH  18  19
ATOM     19  C   UNL     1       1.453   3.047  20.030  0.00  0.00    +0.000 C 
ATOM     20  O   UNL     1       1.331   2.644  21.184  0.00  0.00    +0.000 OA
ATOM     21  N   UNL     1       1.631   4.367  19.700  0.00  0.00    +0.000 N 
ATOM     22  H   UNL     1       1.833   4.632  18.745  0.00  0.00    +0.000 HD
BRANCH  21  23
ATOM     23  C   UNL     1       1.663   5.413  20.707  0.00  0.00    +0.000 C 
BRANCH  23  24
ATOM     24  C   UNL     1       2.169   6.756  20.161  0.00  0.00    +0.000 C 
BRANCH  24  25
ATOM     25  N   UNL     1       1.767   7.881  21.011  0.00  0.00    +0.000 NA
ATOM     26  H   UNL     1       0.889   7.653  21.478  0.00  0.00    +0.000 HD
ATOM     27  H   UNL     1       1.568   8.690  20.423  0.00  0.00    +0.000 HD
ENDBRANCH  24  25
ENDBRANCH  23  24
ENDBRANCH  21  23
ENDBRANCH  18  19
ENDBRANCH  17  18
ENDBRANCH   1  17
TORSDOF 10
ENDMDL
MODEL 3
REMARK VINA RESULT:      -6.8      2.930      4.360
REMARK  Name = 
REMARK  10 active torsions:
REMARK  status: ('A' for Active; 'I' for Inactive)
REMARK    1  A    between atoms: C_2  and  C_3
REMARK    2  A    between atoms: C_5  and  N_6
REMARK    3  A    between atoms: C_11  and  C_13
REMARK    4  A    between atoms: C_13  and  N_14
REMARK    5  A    between atoms: C_13  and  C_15
REMARK    6  A    between atoms: C_15  and  C_16
REMARK    7  A    between atoms: C_16  and  C_17
REMARK    8  A    between atoms: N_19  and  C_20
REMARK    9  A    between atoms: C_20  and  C_21
REMARK   10  A    between atoms: C_21  and  N_22
REMARK                            x       y       z     vdW  Elec       q    Type
REMARK                         _______ _______ _______ _____ _____    ______ ____
ROOT
ATOM      1  C   UNL     1       5.636   4.997  19.062  0.00  0.00    +0.000 C 
ENDROOT
BRANCH   1   7
ATOM      2  C   UNL     1       2.679   4.821  18.269  0.00  0.00    +0.000 C 
ATOM      3  C   UNL     1       1.368   4.137  17.842  0.00  0.00    +0.000 C 
ATOM      4  C   UNL     1       1.211   2.997  18.853  0.00  0.00    +0.000 C 
ATOM      5  C   UNL     1       2.656   2.526  19.006  0.00  0.00    +0.000 C 
ATOM      6  N   UNL     1       3.455   3.739  18.894  0.00  0.00    +0.000 N 
ATOM      7  C   UNL     1       4.788   3.714  19.239  0.00  0.00    +0.000 C 
ATOM      8  O   UNL     1       5.286   2.695  19.728  0.00  0.00    +0.000 OA
BRANCH   4   9
ATOM      9  N   UNL     1       0.711   3.572  20.111  0.00  0.00    +0.000 NA
ATOM     10  N   UNL     1       1.122   3.059  21.166  0.00  0.00    +0.000 NA
ATOM     11  N   UNL     1       1.496   2.582  22.131  0.00  0.00    +0.000 NA
ENDBRANCH   4   9
BRANCH   2  13
ATOM     12  N   UNL     1       2.184   6.848  19.885  0.00  0.00    +0.000 NA
ATOM     13  C   UNL     1       2.411   5.944  19.197  0.00  0.00    +0.000 C 
ENDBRANCH   2  13
ENDBRANCH   1   7
BRANCH   1  14
ATOM     14  N   UNL     1       6.723   5.019  20.058  0.00  0.00    +0.000 NA
ATOM     15  H   UNL     1       7.061   4.062  20.197  0.00  0.00    +0.000 HD
ATOM     16  H   UNL     1       6.388   5.322  20.975  0.00  0.00    +0.000 HD
ENDBRANCH   1  14
BRANCH   1  17
ATOM     17  C   UNL     1       6.306   5.033  17.674  0.00  0.00    +0.000 C 
BRANCH  17  18
ATOM     18  C   UNL     1       7.641   5.777  17.662  0.00  0.00    +0.000 C 
BRANCH  18  19
ATOM     19  C   UNL     1       7.459   7.258  17.420  0.00  0.00    +0.000 C 
ATOM     20  O   UNL     1       6.614   7.689  16.640  0.00  0.00    +0.000 OA
ATOM     21  N   UNL     1       8.276   8.060  18.176  0.00  0.00    +0.000 N 
ATOM     22  H   UNL     1       8.880   7.655  18.880  0.00  0.00    +0.000 HD
BRANCH  21  23
ATOM     23  C   UNL     1       8.222   9.509  18.092  0.00  0.00    +0.000 C 
BRANCH  23  24
ATOM     24  C   UNL     1       9.245  10.201  19.004  0.00  0.00    +0.000 C 
BRANCH  24  25
ATOM     25  N   UNL     1       9.986  11.251  18.300  0.00  0.00    +0.000 NA
ATOM     26  H   UNL     1       9.453  12.121  18.334  0.00  0.00    +0.000 HD
ATOM     27  H   UNL     1      10.057  11.007  17.313  0.00  0.00    +0.000 HD
ENDBRANCH  24  25
ENDBRANCH  23  24
ENDBRANCH  21  23
ENDBRANCH  18  19
ENDBRANCH  17  18
ENDBRANCH   1  17
TORSDOF 10
ENDMDL
MODEL 4
REMARK VINA RESULT:      -6.7      1.594      1.990
REMARK  Name = 
REMARK  10 active torsions:
REMARK  status: ('A' for Active; 'I' for Inactive)
REMARK    1  A    between atoms: C_2  and  C_3
REMARK    2  A    between atoms: C_5  and  N_6
REMARK    3  A    between atoms: C_11  and  C_13
REMARK    4  A    between atoms: C_13  and  N_14
REMARK    5  A    between atoms: C_13  and  C_15
REMARK    6  A    between atoms: C_15  and  C_16
REMARK    7  A    between atoms: C_16  and  C_17
REMARK    8  A    between atoms: N_19  and  C_20
REMARK    9  A    between atoms: C_20  and  C_21
REMARK   10  A    between atoms: C_21  and  N_22
REMARK                            x       y       z     vdW  Elec       q    Type
REMARK                         _______ _______ _______ _____ _____    ______ ____
ROOT
ATOM      1  C   UNL     1       5.042   5.603  17.076  0.00  0.00    +0.000 C 
ENDROOT
BRANCH   1   7
ATOM      2  C   UNL     1       3.523   2.994  17.615  0.00  0.00    +0.000 C 
ATOM      3  C   UNL     1       3.233   1.640  18.286  0.00  0.00    +0.000 C 
ATOM      4  C   UNL     1       3.312   1.957  19.783  0.00  0.00    +0.000 C 
ATOM      5  C   UNL     1       4.484   2.935  19.825  0.00  0.00    +0.000 C 
ATOM      6  N   UNL     1       4.377   3.695  18.587  0.00  0.00    +0.000 N 
ATOM      7  C   UNL     1       5.128   4.837  18.419  0.00  0.00    +0.000 C 
ATOM      8  O   UNL     1       5.821   5.269  19.346  0.00  0.00    +0.000 OA
BRANCH   4   9
ATOM      9  N   UNL     1       2.059   2.621  20.174  0.00  0.00    +0.000 NA
ATOM     10  N   UNL     1       1.683   2.466  21.348  0.00  0.00    +0.000 NA
ATOM     11  N   UNL     1       1.338   2.316  22.423  0.00  0.00    +0.000 NA
ENDBRANCH   4   9
BRANCH   2  13
ATOM     12  N   UNL     1       1.292   4.288  17.055  0.00  0.00    +0.000 NA
ATOM     13  C   UNL     1       2.265   3.722  17.328  0.00  0.00    +0.000 C 
ENDBRANCH   2  13
ENDBRANCH   1   7
BRANCH   1  14
ATOM     14  N   UNL     1       4.412   6.919  17.291  0.00  0.00    +0.000 NA
ATOM     15  H   UNL     1       3.949   6.917  18.204  0.00  0.00    +0.000 HD
ATOM     16  H   UNL     1       3.667   7.094  16.613  0.00  0.00    +0.000 HD
ENDBRANCH   1  14
BRANCH   1  17
ATOM     17  C   UNL     1       6.448   5.875  16.503  0.00  0.00    +0.000 C 
BRANCH  17  18
ATOM     18  C   UNL     1       7.088   4.648  15.855  0.00  0.00    +0.000 C 
BRANCH  18  19
ATOM     19  C   UNL     1       6.908   4.643  14.354  0.00  0.00    +0.000 C 
ATOM     20  O   UNL     1       7.471   5.461  13.631  0.00  0.00    +0.000 OA
ATOM     21  N   UNL     1       6.113   3.629  13.881  0.00  0.00    +0.000 N 
ATOM     22  H   UNL     1       5.760   2.921  14.512  0.00  0.00    +0.000 HD
BRANCH  21  23
ATOM     23  C   UNL     1       5.850   3.456  12.464  0.00  0.00    +0.000 C 
BRANCH  23  24
ATOM     24  C   UNL     1       6.876   2.549  11.770  0.00  0.00    +0.000 C 
BRANCH  24  25
ATOM     25  N   UNL     1       6.292   1.266  11.367  0.00  0.00    +0.000 NA
ATOM     26  H   UNL     1       6.595   1.040  10.419  0.00  0.00    +0.000 HD
ATOM     27  H   UNL     1       5.277   1.360  11.320  0.00  0.00    +0.000 HD
ENDBRANCH  24  25
ENDBRANCH  23  24
ENDBRANCH  21  23
ENDBRANCH  18  19
ENDBRANCH  17  18
ENDBRANCH   1  17
TORSDOF 10
ENDMDL
MODEL 5
REMARK VINA RESULT:      -6.7      1.327      1.436
REMARK  Name = 
REMARK  10 active torsions:
REMARK  status: ('A' for Active; 'I' for Inactive)
REMARK    1  A    between atoms: C_2  and  C_3
REMARK    2  A    between atoms: C_5  and  N_6
REMARK    3  A    between atoms: C_11  and  C_13
REMARK    4  A    between atoms: C_13  and  N_14
REMARK    5  A    between atoms: C_13  and  C_15
REMARK    6  A    between atoms: C_15  and  C_16
REMARK    7  A    between atoms: C_16  and  C_17
REMARK    8  A    between atoms: N_19  and  C_20
REMARK    9  A    between atoms: C_20  and  C_21
REMARK   10  A    between atoms: C_21  and  N_22
REMARK                            x       y       z     vdW  Elec       q    Type
REMARK                         _______ _______ _______ _____ _____    ______ ____
ROOT
ATOM      1  C   UNL     1       5.621   5.504  19.274  0.00  0.00    +0.000 C 
ENDROOT
BRANCH   1   7
ATOM      2  C   UNL     1       2.700   5.237  18.376  0.00  0.00    +0.000 C 
ATOM      3  C   UNL     1       1.445   4.525  17.842  0.00  0.00    +0.000 C 
ATOM      4  C   UNL     1       1.335   3.279  18.726  0.00  0.00    +0.000 C 
ATOM      5  C   UNL     1       2.802   2.881  18.875  0.00  0.00    +0.000 C 
ATOM      6  N   UNL     1       3.527   4.144  18.911  0.00  0.00    +0.000 N 
ATOM      7  C   UNL     1       4.850   4.161  19.293  0.00  0.00    +0.000 C 
ATOM      8  O   UNL     1       5.398   3.128  19.691  0.00  0.00    +0.000 OA
BRANCH   4   9
ATOM      9  N   UNL     1       0.769   3.690  20.021  0.00  0.00    +0.000 NA
ATOM     10  N   UNL     1       1.210   3.119  21.033  0.00  0.00    +0.000 NA
ATOM     11  N   UNL     1       1.611   2.590  21.958  0.00  0.00    +0.000 NA
ENDBRANCH   4   9
BRANCH   2  13
ATOM     12  N   UNL     1       2.051   6.988  20.241  0.00  0.00    +0.000 NA
ATOM     13  C   UNL     1       2.341   6.240  19.405  0.00  0.00    +0.000 C 
ENDBRANCH   2  13
ENDBRANCH   1   7
BRANCH   1  14
ATOM     14  N   UNL     1       6.985   5.304  19.796  0.00  0.00    +0.000 NA
ATOM     15  H   UNL     1       7.642   5.305  19.010  0.00  0.00    +0.000 HD
ATOM     16  H   UNL     1       7.090   4.386  20.233  0.00  0.00    +0.000 HD
ENDBRANCH   1  14
BRANCH   1  17
ATOM     17  C   UNL     1       5.771   6.037  17.835  0.00  0.00    +0.000 C 
BRANCH  17  18
ATOM     18  C   UNL     1       6.726   5.208  16.976  0.00  0.00    +0.000 C 
BRANCH  18  19
ATOM     19  C   UNL     1       6.056   4.695  15.723  0.00  0.00    +0.000 C 
ATOM     20  O   UNL     1       4.834   4.674  15.602  0.00  0.00    +0.000 OA
ATOM     21  N   UNL     1       6.925   4.309  14.733  0.00  0.00    +0.000 N 
ATOM     22  H   UNL     1       7.922   4.446  14.847  0.00  0.00    +0.000 HD
BRANCH  21  23
ATOM     23  C   UNL     1       6.458   3.812  13.451  0.00  0.00    +0.000 C 
BRANCH  23  24
ATOM     24  C   UNL     1       7.127   4.510  12.258  0.00  0.00    +0.000 C 
BRANCH  24  25
ATOM     25  N   UNL     1       8.024   5.588  12.684  0.00  0.00    +0.000 NA
ATOM     26  H   UNL     1       8.932   5.469  12.232  0.00  0.00    +0.000 HD
ATOM     27  H   UNL     1       8.198   5.503  13.685  0.00  0.00    +0.000 HD
ENDBRANCH  24  25
ENDBRANCH  23  24
ENDBRANCH  21  23
ENDBRANCH  18  19
ENDBRANCH  17  18
ENDBRANCH   1  17
TORSDOF 10
ENDMDL
MODEL 6
REMARK VINA RESULT:      -6.7      1.196      1.404
REMARK  Name = 
REMARK  10 active torsions:
REMARK  status: ('A' for Active; 'I' for Inactive)
REMARK    1  A    between atoms: C_2  and  C_3
REMARK    2  A    between atoms: C_5  and  N_6
REMARK    3  A    between atoms: C_11  and  C_13
REMARK    4  A    between atoms: C_13  and  N_14
REMARK    5  A    between atoms: C_13  and  C_15
REMARK    6  A    between atoms: C_15  and  C_16
REMARK    7  A    between atoms: C_16  and  C_17
REMARK    8  A    between atoms: N_19  and  C_20
REMARK    9  A    between atoms: C_20  and  C_21
REMARK   10  A    between atoms: C_21  and  N_22
REMARK                            x       y       z     vdW  Elec       q    Type
REMARK                         _______ _______ _______ _____ _____    ______ ____
ROOT
ATOM      1  C   UNL     1       5.524   5.462  19.307  0.00  0.00    +0.000 C 
ENDROOT
BRANCH   1   7
ATOM      2  C   UNL     1       2.617   5.119  18.393  0.00  0.00    +0.000 C 
ATOM      3  C   UNL     1       1.387   4.377  17.841  0.00  0.00    +0.000 C 
ATOM      4  C   UNL     1       1.312   3.114  18.704  0.00  0.00    +0.000 C 
ATOM      5  C   UNL     1       2.790   2.760  18.852  0.00  0.00    +0.000 C 
ATOM      6  N   UNL     1       3.475   4.043  18.912  0.00  0.00    +0.000 N 
ATOM      7  C   UNL     1       4.796   4.096  19.300  0.00  0.00    +0.000 C 
ATOM      8  O   UNL     1       5.374   3.074  19.682  0.00  0.00    +0.000 OA
BRANCH   4   9
ATOM      9  N   UNL     1       0.729   3.485  20.003  0.00  0.00    +0.000 NA
ATOM     10  N   UNL     1       1.219   2.950  21.012  0.00  0.00    +0.000 NA
ATOM     11  N   UNL     1       1.666   2.453  21.934  0.00  0.00    +0.000 NA
ENDBRANCH   4   9
BRANCH   2  13
ATOM     12  N   UNL     1       1.948   6.835  20.283  0.00  0.00    +0.000 NA
ATOM     13  C   UNL     1       2.223   6.093  19.437  0.00  0.00    +0.000 C 
ENDBRANCH   2  13
ENDBRANCH   1   7
BRANCH   1  14
ATOM     14  N   UNL     1       6.896   5.294  19.821  0.00  0.00    +0.000 NA
ATOM     15  H   UNL     1       7.521   5.917  19.301  0.00  0.00    +0.000 HD
ATOM     16  H   UNL     1       7.250   4.351  19.646  0.00  0.00    +0.000 HD
ENDBRANCH   1  14
BRANCH   1  17
ATOM     17  C   UNL     1       5.654   6.029  17.879  0.00  0.00    +0.000 C 
BRANCH  17  18
ATOM     18  C   UNL     1       7.102   6.207  17.424  0.00  0.00    +0.000 C 
BRANCH  18  19
ATOM     19  C   UNL     1       7.480   5.219  16.344  0.00  0.00    +0.000 C 
ATOM     20  O   UNL     1       7.897   4.095  16.610  0.00  0.00    +0.000 OA
ATOM     21  N   UNL     1       7.269   5.670  15.064  0.00  0.00    +0.000 N 
ATOM     22  H   UNL     1       6.824   6.565  14.905  0.00  0.00    +0.000 HD
BRANCH  21  23
ATOM     23  C   UNL     1       7.552   4.846  13.903  0.00  0.00    +0.000 C 
BRANCH  23  24
ATOM     24  C   UNL     1       6.314   4.109  13.373  0.00  0.00    +0.000 C 
BRANCH  24  25
ATOM     25  N   UNL     1       5.907   3.012  14.256  0.00  0.00    +0.000 NA
ATOM     26  H   UNL     1       6.332   3.144  15.175  0.00  0.00    +0.000 HD
ATOM     27  H   UNL     1       6.286   2.136  13.897  0.00  0.00    +0.000 HD
ENDBRANCH  24  25
ENDBRANCH  23  24
ENDBRANCH  21  23
ENDBRANCH  18  19
ENDBRANCH  17  18
ENDBRANCH   1  17
TORSDOF 10
ENDMDL
MODEL 7
REMARK VINA RESULT:      -6.6      1.245      1.405
REMARK  Name = 
REMARK  10 active torsions:
REMARK  status: ('A' for Active; 'I' for Inactive)
REMARK    1  A    between atoms: C_2  and  C_3
REMARK    2  A    between atoms: C_5  and  N_6
REMARK    3  A    between atoms: C_11  and  C_13
REMARK    4  A    between atoms: C_13  and  N_14
REMARK    5  A    between atoms: C_13  and  C_15
REMARK    6  A    between atoms: C_15  and  C_16
REMARK    7  A    between atoms: C_16  and  C_17
REMARK    8  A    between atoms: N_19  and  C_20
REMARK    9  A    between atoms: C_20  and  C_21
REMARK   10  A    between atoms: C_21  and  N_22
REMARK                            x       y       z     vdW  Elec       q    Type
REMARK                         _______ _______ _______ _____ _____    ______ ____
ROOT
ATOM      1  C   UNL     1       5.849   6.238  17.628  0.00  0.00    +0.000 C 
ENDROOT
BRANCH   1   7
ATOM      2  C   UNL     1       3.207   4.788  18.193  0.00  0.00    +0.000 C 
ATOM      3  C   UNL     1       2.285   3.589  18.478  0.00  0.00    +0.000 C 
ATOM      4  C   UNL     1       2.981   2.867  19.636  0.00  0.00    +0.000 C 
ATOM      5  C   UNL     1       4.450   3.010  19.243  0.00  0.00    +0.000 C 
ATOM      6  N   UNL     1       4.538   4.316  18.604  0.00  0.00    +0.000 N 
ATOM      7  C   UNL     1       5.772   4.874  18.356  0.00  0.00    +0.000 C 
ATOM      8  O   UNL     1       6.800   4.315  18.753  0.00  0.00    +0.000 OA
BRANCH   4   9
ATOM      9  N   UNL     1       2.694   3.610  20.872  0.00  0.00    +0.000 NA
ATOM     10  N   UNL     1       1.940   3.062  21.694  0.00  0.00    +0.000 NA
ATOM     11  N   UNL     1       1.243   2.560  22.442  0.00  0.00    +0.000 NA
ENDBRANCH   4   9
BRANCH   2  13
ATOM     12  N   UNL     1       2.448   6.948  19.506  0.00  0.00    +0.000 NA
ATOM     13  C   UNL     1       2.765   5.985  18.946  0.00  0.00    +0.000 C 
ENDBRANCH   2  13
ENDBRANCH   1   7
BRANCH   1  14
ATOM     14  N   UNL     1       7.145   6.884  17.911  0.00  0.00    +0.000 NA
ATOM     15  H   UNL     1       7.837   6.156  18.112  0.00  0.00    +0.000 HD
ATOM     16  H   UNL     1       7.103   7.456  18.757  0.00  0.00    +0.000 HD
ENDBRANCH   1  14
BRANCH   1  17
ATOM     17  C   UNL     1       5.771   6.056  16.099  0.00  0.00    +0.000 C 
BRANCH  17  18
ATOM     18  C   UNL     1       5.979   4.611  15.647  0.00  0.00    +0.000 C 
BRANCH  18  19
ATOM     19  C   UNL     1       6.517   4.533  14.236  0.00  0.00    +0.000 C 
ATOM     20  O   UNL     1       7.331   5.345  13.807  0.00  0.00    +0.000 OA
ATOM     21  N   UNL     1       6.057   3.460  13.514  0.00  0.00    +0.000 N 
ATOM     22  H   UNL     1       5.469   2.764  13.952  0.00  0.00    +0.000 HD
BRANCH  21  23
ATOM     23  C   UNL     1       6.486   3.213  12.149  0.00  0.00    +0.000 C 
BRANCH  23  24
ATOM     24  C   UNL     1       5.432   2.473  11.313  0.00  0.00    +0.000 C 
BRANCH  24  25
ATOM     25  N   UNL     1       4.129   3.145  11.353  0.00  0.00    +0.000 NA
ATOM     26  H   UNL     1       3.826   3.348  10.400  0.00  0.00    +0.000 HD
ATOM     27  H   UNL     1       4.232   4.050  11.811  0.00  0.00    +0.000 HD
ENDBRANCH  24  25
ENDBRANCH  23  24
ENDBRANCH  21  23
ENDBRANCH  18  19
ENDBRANCH  17  18
ENDBRANCH   1  17
TORSDOF 10
ENDMDL
MODEL 8
REMARK VINA RESULT:      -6.6      3.038      6.355
REMARK  Name = 
REMARK  10 active torsions:
REMARK  status: ('A' for Active; 'I' for Inactive)
REMARK    1  A    between atoms: C_2  and  C_3
REMARK    2  A    between atoms: C_5  and  N_6
REMARK    3  A    between atoms: C_11  and  C_13
REMARK    4  A    between atoms: C_13  and  N_14
REMARK    5  A    between atoms: C_13  and  C_15
REMARK    6  A    between atoms: C_15  and  C_16
REMARK    7  A    between atoms: C_16  and  C_17
REMARK    8  A    between atoms: N_19  and  C_20
REMARK    9  A    between atoms: C_20  and  C_21
REMARK   10  A    between atoms: C_21  and  N_22
REMARK                            x       y       z     vdW  Elec       q    Type
REMARK                         _______ _______ _______ _____ _____    ______ ____
ROOT
ATOM      1  C   UNL     1       2.989   6.258  19.402  0.00  0.00    +0.000 C 
ENDROOT
BRANCH   1   7
ATOM      2  C   UNL     1       5.125   4.771  17.780  0.00  0.00    +0.000 C 
ATOM      3  C   UNL     1       5.915   4.358  16.525  0.00  0.00    +0.000 C 
ATOM      4  C   UNL     1       6.292   5.696  15.881  0.00  0.00    +0.000 C 
ATOM      5  C   UNL     1       5.026   6.515  16.120  0.00  0.00    +0.000 C 
ATOM      6  N   UNL     1       4.531   6.066  17.414  0.00  0.00    +0.000 N 
ATOM      7  C   UNL     1       3.541   6.779  18.052  0.00  0.00    +0.000 C 
ATOM      8  O   UNL     1       3.136   7.845  17.578  0.00  0.00    +0.000 OA
BRANCH   4   9
ATOM      9  N   UNL     1       7.428   6.255  16.630  0.00  0.00    +0.000 NA
ATOM     10  N   UNL     1       7.348   7.450  16.964  0.00  0.00    +0.000 NA
ATOM     11  N   UNL     1       7.273   8.546  17.262  0.00  0.00    +0.000 NA
ENDBRANCH   4   9
BRANCH   2  13
ATOM     12  N   UNL     1       6.748   4.955  19.853  0.00  0.00    +0.000 NA
ATOM     13  C   UNL     1       6.017   4.862  18.959  0.00  0.00    +0.000 C 
ENDBRANCH   2  13
ENDBRANCH   1   7
BRANCH   1  14
ATOM     14  N   UNL     1       2.324   7.356  20.127  0.00  0.00    +0.000 NA
ATOM     15  H   UNL     1       2.265   8.170  19.509  0.00  0.00    +0.000 HD
ATOM     16  H   UNL     1       2.877   7.666  20.929  0.00  0.00    +0.000 HD
ENDBRANCH   1  14
BRANCH   1  17
ATOM     17  C   UNL     1       1.923   5.165  19.180  0.00  0.00    +0.000 C 
BRANCH  17  18
ATOM     18  C   UNL     1       1.344   4.607  20.480  0.00  0.00    +0.000 C 
BRANCH  18  19
ATOM     19  C   UNL     1       2.260   3.585  21.113  0.00  0.00    +0.000 C 
ATOM     20  O   UNL     1       2.102   3.200  22.268  0.00  0.00    +0.000 OA
ATOM     21  N   UNL     1       3.233   3.100  20.275  0.00  0.00    +0.000 N 
ATOM     22  H   UNL     1       3.251   3.374  19.301  0.00  0.00    +0.000 HD
BRANCH  21  23
ATOM     23  C   UNL     1       4.186   2.093  20.706  0.00  0.00    +0.000 C 
BRANCH  23  24
ATOM     24  C   UNL     1       4.728   1.245  19.547  0.00  0.00    +0.000 C 
BRANCH  24  25
ATOM     25  N   UNL     1       3.867   1.317  18.363  0.00  0.00    +0.000 NA
ATOM     26  H   UNL     1       4.415   1.087  17.533  0.00  0.00    +0.000 HD
ATOM     27  H   UNL     1       3.556   2.279  18.233  0.00  0.00    +0.000 HD
ENDBRANCH  24  25
ENDBRANCH  23  24
ENDBRANCH  21  23
ENDBRANCH  18  19
ENDBRANCH  17  18
ENDBRANCH   1  17
TORSDOF 10
ENDMDL
MODEL 9
REMARK VINA RESULT:      -6.5      1.714      2.219
REMARK  Name = 
REMARK  10 active torsions:
REMARK  status: ('A' for Active; 'I' for Inactive)
REMARK    1  A    between atoms: C_2  and  C_3
REMARK    2  A    between atoms: C_5  and  N_6
REMARK    3  A    between atoms: C_11  and  C_13
REMARK    4  A    between atoms: C_13  and  N_14
REMARK    5  A    between atoms: C_13  and  C_15
REMARK    6  A    between atoms: C_15  and  C_16
REMARK    7  A    between atoms: C_16  and  C_17
REMARK    8  A    between atoms: N_19  and  C_20
REMARK    9  A    between atoms: C_20  and  C_21
REMARK   10  A    between atoms: C_21  and  N_22
REMARK                            x       y       z     vdW  Elec       q    Type
REMARK                         _______ _______ _______ _____ _____    ______ ____
ROOT
ATOM      1  C   UNL     1       4.629   6.076  17.372  0.00  0.00    +0.000 C 
ENDROOT
BRANCH   1   7
ATOM      2  C   UNL     1       3.548   3.211  17.533  0.00  0.00    +0.000 C 
ATOM      3  C   UNL     1       3.494   1.744  17.996  0.00  0.00    +0.000 C 
ATOM      4  C   UNL     1       3.583   1.845  19.522  0.00  0.00    +0.000 C 
ATOM      5  C   UNL     1       4.592   2.978  19.693  0.00  0.00    +0.000 C 
ATOM      6  N   UNL     1       4.322   3.886  18.586  0.00  0.00    +0.000 N 
ATOM      7  C   UNL     1       4.883   5.143  18.581  0.00  0.00    +0.000 C 
ATOM      8  O   UNL     1       5.538   5.537  19.552  0.00  0.00    +0.000 OA
BRANCH   4   9
ATOM      9  N   UNL     1       2.259   2.240  20.029  0.00  0.00    +0.000 NA
ATOM     10  N   UNL     1       2.210   2.676  21.192  0.00  0.00    +0.000 NA
ATOM     11  N   UNL     1       2.168   3.068  22.260  0.00  0.00    +0.000 NA
ENDBRANCH   4   9
BRANCH   2  13
ATOM     12  N   UNL     1       1.108   4.192  17.307  0.00  0.00    +0.000 NA
ATOM     13  C   UNL     1       2.183   3.767  17.380  0.00  0.00    +0.000 C 
ENDBRANCH   2  13
ENDBRANCH   1   7
BRANCH   1  14
ATOM     14  N   UNL     1       3.817   7.232  17.794  0.00  0.00    +0.000 NA
ATOM     15  H   UNL     1       3.928   7.360  18.804  0.00  0.00    +0.000 HD
ATOM     16  H   UNL     1       2.820   7.063  17.652  0.00  0.00    +0.000 HD
ENDBRANCH   1  14
BRANCH   1  17
ATOM     17  C   UNL     1       5.954   6.643  16.821  0.00  0.00    +0.000 C 
BRANCH  17  18
ATOM     18  C   UNL     1       7.072   5.604  16.737  0.00  0.00    +0.000 C 
BRANCH  18  19
ATOM     19  C   UNL     1       6.964   4.758  15.490  0.00  0.00    +0.000 C 
ATOM     20  O   UNL     1       6.430   3.652  15.501  0.00  0.00    +0.000 OA
ATOM     21  N   UNL     1       7.462   5.352  14.357  0.00  0.00    +0.000 N 
ATOM     22  H   UNL     1       7.795   6.307  14.386  0.00  0.00    +0.000 HD
BRANCH  21  23
ATOM     23  C   UNL     1       7.420   4.695  13.064  0.00  0.00    +0.000 C 
BRANCH  23  24
ATOM     24  C   UNL     1       6.094   3.965  12.804  0.00  0.00    +0.000 C 
BRANCH  24  25
ATOM     25  N   UNL     1       6.304   2.588  12.348  0.00  0.00    +0.000 NA
ATOM     26  H   UNL     1       7.304   2.424  12.222  0.00  0.00    +0.000 HD
ATOM     27  H   UNL     1       5.885   2.473  11.425  0.00  0.00    +0.000 HD
ENDBRANCH  24  25
ENDBRANCH  23  24
ENDBRANCH  21  23
ENDBRANCH  18  19
ENDBRANCH  17  18
ENDBRANCH   1  17
TORSDOF 10
ENDMDL
