MODEL 1
REMARK VINA RESULT:      -8.5      0.000      0.000
REMARK  Name = 
REMARK  10 active torsions:
REMARK  status: ('A' for Active; 'I' for Inactive)
REMARK    1  A    between atoms: C_1  and  C_2
REMARK    2  A    between atoms: C_2  and  C_3
REMARK    3  A    between atoms: C_2  and  C_20
REMARK    4  A    between atoms: C_2  and  S_24
REMARK    5  A    between atoms: C_3  and  C_4
REMARK    6  A    between atoms: C_4  and  C_5
REMARK    7  A    between atoms: C_8  and  C_9
REMARK    8  A    between atoms: C_14  and  C_15
REMARK    9  A    between atoms: N_22  and  O_23
REMARK   10  A    between atoms: S_24  and  C_25
REMARK                            x       y       z     vdW  Elec       q    Type
REMARK                         _______ _______ _______ _____ _____    ______ ____
ROOT
ATOM      1  C   UNL     1       2.472   7.961  18.351  0.00  0.00    +0.000 A 
ATOM      2  C   UNL     1       2.016   7.716  19.644  0.00  0.00    +0.000 A 
ATOM      3  C   UNL     1       1.185   8.639  20.270  0.00  0.00    +0.000 A 
ATOM      4  C   UNL     1       0.830   9.861  19.661  0.00  0.00    +0.000 A 
ATOM      5  C   UNL     1       1.420  10.142  18.422  0.00  0.00    +0.000 A 
ATOM      6  C   UNL     1       2.190   9.189  17.752  0.00  0.00    +0.000 A 
ENDROOT
BRANCH   4   7
ATOM      7  C   UNL     1      -0.154  10.763  20.324  0.00  0.00    +0.000 A 
ATOM      8  C   UNL     1      -0.069  10.886  21.736  0.00  0.00    +0.000 A 
ATOM      9  C   UNL     1      -1.007  11.591  22.486  0.00  0.00    +0.000 A 
ATOM     10  C   UNL     1      -2.043  12.243  21.843  0.00  0.00    +0.000 A 
ATOM     11  C   UNL     1      -2.138  12.190  20.453  0.00  0.00    +0.000 A 
ATOM     12  C   UNL     1      -1.212  11.456  19.679  0.00  0.00    +0.000 A 
BRANCH  12  13
ATOM     13  C   UNL     1      -1.484  11.394  18.200  0.00  0.00    +0.000 C 
ATOM     14  N   UNL     1      -1.230  12.519  17.461  0.00  0.00    +0.000 N 
ATOM     15  O   UNL     1      -1.922  10.403  17.636  0.00  0.00    +0.000 OA
ATOM     16  H   UNL     1      -0.887  13.392  17.833  0.00  0.00    +0.000 HD
ATOM     17  H   UNL     1      -1.379  12.445  16.462  0.00  0.00    +0.000 HD
ENDBRANCH  12  13
ENDBRANCH   4   7
BRANCH   1  18
ATOM     18  C   UNL     1       3.236   6.904  17.606  0.00  0.00    +0.000 C 
BRANCH  18  19
ATOM     19  C   UNL     1       3.868   5.880  18.564  0.00  0.00    +0.000 C 
BRANCH  19  21
ATOM     20  C   UNL     1       4.714   4.999  16.339  0.00  0.00    +0.000 C 
ATOM     21  C   UNL     1       4.849   4.910  17.870  0.00  0.00    +0.000 C 
BRANCH  21  22
ATOM     22  C   UNL     1       4.599   3.483  18.346  0.00  0.00    +0.000 C 
ATOM     23  O   UNL     1       3.774   2.740  17.805  0.00  0.00    +0.000 OA
ATOM     24  N   UNL     1       5.291   3.066  19.456  0.00  0.00    +0.000 N 
ATOM     25  H   UNL     1       6.180   3.473  19.751  0.00  0.00    +0.000 HD
BRANCH  24  26
ATOM     26  O   UNL     1       5.048   1.729  19.860  0.00  0.00    +0.000 OA
ATOM     27  H   UNL     1       5.801   1.544  20.456  0.00  0.00    +0.000 HD
ENDBRANCH  24  26
ENDBRANCH  21  22
BRANCH  21  28
ATOM     28  S   UNL     1       6.540   5.353  18.349  0.00  0.00    +0.000 S 
ATOM     29  C   UNL     1       6.950   6.842  17.467  0.00  0.00    +0.000 C 
ATOM     30  O   UNL     1       6.537   5.683  19.761  0.00  0.00    +0.000 OA
ATOM     31  O   UNL     1       7.422   4.308  17.855  0.00  0.00    +0.000 OA
ENDBRANCH  21  28
ENDBRANCH  19  21
ENDBRANCH  18  19
ENDBRANCH   1  18
TORSDOF 8
ENDMDL
MODEL 2
REMARK VINA RESULT:      -8.5      1.992      2.641
REMARK  Name = 
REMARK  10 active torsions:
REMARK  status: ('A' for Active; 'I' for Inactive)
REMARK    1  A    between atoms: C_1  and  C_2
REMARK    2  A    between atoms: C_2  and  C_3
REMARK    3  A    between atoms: C_2  and  C_20
REMARK    4  A    between atoms: C_2  and  S_24
REMARK    5  A    between atoms: C_3  and  C_4
REMARK    6  A    between atoms: C_4  and  C_5
REMARK    7  A    between atoms: C_8  and  C_9
REMARK    8  A    between atoms: C_14  and  C_15
REMARK    9  A    between atoms: N_22  and  O_23
REMARK   10  A    between atoms: S_24  and  C_25
REMARK                            x       y       z     vdW  Elec       q    Type
REMARK                         _______ _______ _______ _____ _____    ______ ____
ROOT
ATOM      1  C   UNL     1       2.609   7.360  18.927  0.00  0.00    +0.000 A 
ATOM      2  C   UNL     1       1.951   7.679  20.113  0.00  0.00    +0.000 A 
ATOM      3  C   UNL     1       0.986   8.680  20.121  0.00  0.00    +0.000 A 
ATOM      4  C   UNL     1       0.687   9.440  18.970  0.00  0.00    +0.000 A 
ATOM      5  C   UNL     1       1.466   9.194  17.832  0.00  0.00    +0.000 A 
ATOM      6  C   UNL     1       2.379   8.138  17.793  0.00  0.00    +0.000 A 
ENDROOT
BRANCH   4   7
ATOM      7  C   UNL     1      -0.434  10.422  18.999  0.00  0.00    +0.000 A 
ATOM      8  C   UNL     1      -1.531  10.175  18.132  0.00  0.00    +0.000 A 
ATOM      9  C   UNL     1      -2.577  11.081  17.969  0.00  0.00    +0.000 A 
ATOM     10  C   UNL     1      -2.588  12.251  18.708  0.00  0.00    +0.000 A 
ATOM     11  C   UNL     1      -1.556  12.510  19.608  0.00  0.00    +0.000 A 
ATOM     12  C   UNL     1      -0.473  11.617  19.765  0.00  0.00    +0.000 A 
BRANCH  12  13
ATOM     13  C   UNL     1       0.627  12.061  20.691  0.00  0.00    +0.000 C 
ATOM     14  N   UNL     1       1.669  12.764  20.146  0.00  0.00    +0.000 N 
ATOM     15  O   UNL     1       0.639  11.821  21.888  0.00  0.00    +0.000 OA
ATOM     16  H   UNL     1       1.764  12.996  19.168  0.00  0.00    +0.000 HD
ATOM     17  H   UNL     1       2.379  13.090  20.791  0.00  0.00    +0.000 HD
ENDBRANCH  12  13
ENDBRANCH   4   7
BRANCH   1  18
ATOM     18  C   UNL     1       3.534   6.178  18.870  0.00  0.00    +0.000 C 
BRANCH  18  19
ATOM     19  C   UNL     1       4.497   6.268  17.675  0.00  0.00    +0.000 C 
BRANCH  19  21
ATOM     20  C   UNL     1       4.655   3.814  17.047  0.00  0.00    +0.000 C 
ATOM     21  C   UNL     1       5.433   5.047  17.542  0.00  0.00    +0.000 C 
BRANCH  21  22
ATOM     22  C   UNL     1       6.103   4.753  18.880  0.00  0.00    +0.000 C 
ATOM     23  O   UNL     1       5.720   3.849  19.627  0.00  0.00    +0.000 OA
ATOM     24  N   UNL     1       7.128   5.584  19.258  0.00  0.00    +0.000 N 
ATOM     25  H   UNL     1       7.693   6.120  18.597  0.00  0.00    +0.000 HD
BRANCH  24  26
ATOM     26  O   UNL     1       7.741   5.272  20.498  0.00  0.00    +0.000 OA
ATOM     27  H   UNL     1       6.999   4.910  21.020  0.00  0.00    +0.000 HD
ENDBRANCH  24  26
ENDBRANCH  21  22
BRANCH  21  28
ATOM     28  S   UNL     1       6.742   5.445  16.354  0.00  0.00    +0.000 S 
ATOM     29  C   UNL     1       6.087   5.106  14.735  0.00  0.00    +0.000 C 
ATOM     30  O   UNL     1       6.993   6.872  16.420  0.00  0.00    +0.000 OA
ATOM     31  O   UNL     1       7.834   4.512  16.578  0.00  0.00    +0.000 OA
ENDBRANCH  21  28
ENDBRANCH  19  21
ENDBRANCH  18  19
ENDBRANCH   1  18
TORSDOF 8
ENDMDL
MODEL 3
REMARK VINA RESULT:      -8.4      0.966      1.273
REMARK  Name = 
REMARK  10 active torsions:
REMARK  status: ('A' for Active; 'I' for Inactive)
REMARK    1  A    between atoms: C_1  and  C_2
REMARK    2  A    between atoms: C_2  and  C_3
REMARK    3  A    between atoms: C_2  and  C_20
REMARK    4  A    between atoms: C_2  and  S_24
REMARK    5  A    between atoms: C_3  and  C_4
REMARK    6  A    between atoms: C_4  and  C_5
REMARK    7  A    between atoms: C_8  and  C_9
REMARK    8  A    between atoms: C_14  and  C_15
REMARK    9  A    between atoms: N_22  and  O_23
REMARK   10  A    between atoms: S_24  and  C_25
REMARK                            x       y       z     vdW  Elec       q    Type
REMARK                         _______ _______ _______ _____ _____    ______ ____
ROOT
ATOM      1  C   UNL     1       2.497   7.415  18.365  0.00  0.00    +0.000 A 
ATOM      2  C   UNL     1       2.244   7.196  19.717  0.00  0.00    +0.000 A 
ATOM      3  C   UNL     1       1.507   8.126  20.443  0.00  0.00    +0.000 A 
ATOM      4  C   UNL     1       1.052   9.333  19.870  0.00  0.00    +0.000 A 
ATOM      5  C   UNL     1       1.446   9.590  18.550  0.00  0.00    +0.000 A 
ATOM      6  C   UNL     1       2.116   8.628  17.791  0.00  0.00    +0.000 A 
ENDROOT
BRANCH   4   7
ATOM      7  C   UNL     1       0.171  10.241  20.654  0.00  0.00    +0.000 A 
ATOM      8  C   UNL     1       0.182  10.093  22.067  0.00  0.00    +0.000 A 
ATOM      9  C   UNL     1      -0.689  10.788  22.902  0.00  0.00    +0.000 A 
ATOM     10  C   UNL     1      -1.575  11.699  22.356  0.00  0.00    +0.000 A 
ATOM     11  C   UNL     1      -1.587  11.914  20.979  0.00  0.00    +0.000 A 
ATOM     12  C   UNL     1      -0.731  11.197  20.114  0.00  0.00    +0.000 A 
BRANCH  12  13
ATOM     13  C   UNL     1      -0.912  11.445  18.641  0.00  0.00    +0.000 C 
ATOM     14  N   UNL     1      -0.259  12.519  18.095  0.00  0.00    +0.000 N 
ATOM     15  O   UNL     1      -1.612  10.751  17.920  0.00  0.00    +0.000 OA
ATOM     16  H   UNL     1       0.326  13.163  18.605  0.00  0.00    +0.000 HD
ATOM     17  H   UNL     1      -0.360  12.646  17.095  0.00  0.00    +0.000 HD
ENDBRANCH  12  13
ENDBRANCH   4   7
BRANCH   1  18
ATOM     18  C   UNL     1       3.151   6.347  17.536  0.00  0.00    +0.000 C 
BRANCH  18  19
ATOM     19  C   UNL     1       4.680   6.508  17.507  0.00  0.00    +0.000 C 
BRANCH  19  21
ATOM     20  C   UNL     1       4.878   4.270  16.327  0.00  0.00    +0.000 C 
ATOM     21  C   UNL     1       5.440   5.165  17.446  0.00  0.00    +0.000 C 
BRANCH  21  22
ATOM     22  C   UNL     1       5.356   4.454  18.792  0.00  0.00    +0.000 C 
ATOM     23  O   UNL     1       5.455   5.055  19.866  0.00  0.00    +0.000 OA
ATOM     24  N   UNL     1       5.226   3.087  18.767  0.00  0.00    +0.000 N 
ATOM     25  H   UNL     1       4.830   2.573  17.978  0.00  0.00    +0.000 HD
BRANCH  24  26
ATOM     26  O   UNL     1       5.133   2.460  20.035  0.00  0.00    +0.000 OA
ATOM     27  H   UNL     1       6.026   2.081  20.154  0.00  0.00    +0.000 HD
ENDBRANCH  24  26
ENDBRANCH  21  22
BRANCH  21  28
ATOM     28  S   UNL     1       7.191   5.504  17.119  0.00  0.00    +0.000 S 
ATOM     29  C   UNL     1       7.568   7.057  17.898  0.00  0.00    +0.000 C 
ATOM     30  O   UNL     1       7.979   4.489  17.791  0.00  0.00    +0.000 OA
ATOM     31  O   UNL     1       7.338   5.698  15.686  0.00  0.00    +0.000 OA
ENDBRANCH  21  28
ENDBRANCH  19  21
ENDBRANCH  18  19
ENDBRANCH   1  18
TORSDOF 8
ENDMDL
MODEL 4
REMARK VINA RESULT:      -8.4      1.406      2.044
REMARK  Name = 
REMARK  10 active torsions:
REMARK  status: ('A' for Active; 'I' for Inactive)
REMARK    1  A    between atoms: C_1  and  C_2
REMARK    2  A    between atoms: C_2  and  C_3
REMARK    3  A    between atoms: C_2  and  C_20
REMARK    4  A    between atoms: C_2  and  S_24
REMARK    5  A    between atoms: C_3  and  C_4
REMARK    6  A    between atoms: C_4  and  C_5
REMARK    7  A    between atoms: C_8  and  C_9
REMARK    8  A    between atoms: C_14  and  C_15
REMARK    9  A    between atoms: N_22  and  O_23
REMARK   10  A    between atoms: S_24  and  C_25
REMARK                            x       y       z     vdW  Elec       q    Type
REMARK                         _______ _______ _______ _____ _____    ______ ____
ROOT
ATOM      1  C   UNL     1       2.871   7.683  17.986  0.00  0.00    +0.000 A 
ATOM      2  C   UNL     1       2.210   8.873  17.692  0.00  0.00    +0.000 A 
ATOM      3  C   UNL     1       1.417   9.481  18.660  0.00  0.00    +0.000 A 
ATOM      4  C   UNL     1       1.203   8.897  19.927  0.00  0.00    +0.000 A 
ATOM      5  C   UNL     1       1.764   7.631  20.140  0.00  0.00    +0.000 A 
ATOM      6  C   UNL     1       2.626   7.052  19.206  0.00  0.00    +0.000 A 
ENDROOT
BRANCH   4   7
ATOM      7  C   UNL     1       0.440   9.641  20.968  0.00  0.00    +0.000 A 
ATOM      8  C   UNL     1       0.574   9.194  22.310  0.00  0.00    +0.000 A 
ATOM      9  C   UNL     1      -0.184   9.719  23.355  0.00  0.00    +0.000 A 
ATOM     10  C   UNL     1      -1.073  10.748  23.102  0.00  0.00    +0.000 A 
ATOM     11  C   UNL     1      -1.199  11.252  21.809  0.00  0.00    +0.000 A 
ATOM     12  C   UNL     1      -0.461  10.713  20.733  0.00  0.00    +0.000 A 
BRANCH  12  13
ATOM     13  C   UNL     1      -0.764  11.275  19.369  0.00  0.00    +0.000 C 
ATOM     14  N   UNL     1      -1.747  10.663  18.636  0.00  0.00    +0.000 N 
ATOM     15  O   UNL     1      -0.178  12.232  18.888  0.00  0.00    +0.000 OA
ATOM     16  H   UNL     1      -2.275   9.857  18.934  0.00  0.00    +0.000 HD
ATOM     17  H   UNL     1      -1.965  11.081  17.740  0.00  0.00    +0.000 HD
ENDBRANCH  12  13
ENDBRANCH   4   7
BRANCH   1  18
ATOM     18  C   UNL     1       3.853   7.103  17.008  0.00  0.00    +0.000 C 
BRANCH  18  19
ATOM     19  C   UNL     1       5.145   6.644  17.707  0.00  0.00    +0.000 C 
BRANCH  19  21
ATOM     20  C   UNL     1       4.482   4.527  16.474  0.00  0.00    +0.000 C 
ATOM     21  C   UNL     1       5.519   5.176  17.408  0.00  0.00    +0.000 C 
BRANCH  21  22
ATOM     22  C   UNL     1       5.633   4.389  18.709  0.00  0.00    +0.000 C 
ATOM     23  O   UNL     1       6.194   4.843  19.710  0.00  0.00    +0.000 OA
ATOM     24  N   UNL     1       5.134   3.110  18.709  0.00  0.00    +0.000 N 
ATOM     25  H   UNL     1       4.404   2.790  18.069  0.00  0.00    +0.000 HD
BRANCH  24  26
ATOM     26  O   UNL     1       5.239   2.413  19.939  0.00  0.00    +0.000 OA
ATOM     27  H   UNL     1       6.174   2.130  19.946  0.00  0.00    +0.000 HD
ENDBRANCH  24  26
ENDBRANCH  21  22
BRANCH  21  28
ATOM     28  S   UNL     1       7.146   5.143  16.610  0.00  0.00    +0.000 S 
ATOM     29  C   UNL     1       6.904   4.478  14.978  0.00  0.00    +0.000 C 
ATOM     30  O   UNL     1       7.596   6.512  16.448  0.00  0.00    +0.000 OA
ATOM     31  O   UNL     1       7.972   4.195  17.340  0.00  0.00    +0.000 OA
ENDBRANCH  21  28
ENDBRANCH  19  21
ENDBRANCH  18  19
ENDBRANCH   1  18
TORSDOF 8
ENDMDL
MODEL 5
REMARK VINA RESULT:      -8.4      1.824      2.376
REMARK  Name = 
REMARK  10 active torsions:
REMARK  status: ('A' for Active; 'I' for Inactive)
REMARK    1  A    between atoms: C_1  and  C_2
REMARK    2  A    between atoms: C_2  and  C_3
REMARK    3  A    between atoms: C_2  and  C_20
REMARK    4  A    between atoms: C_2  and  S_24
REMARK    5  A    between atoms: C_3  and  C_4
REMARK    6  A    between atoms: C_4  and  C_5
REMARK    7  A    between atoms: C_8  and  C_9
REMARK    8  A    between atoms: C_14  and  C_15
REMARK    9  A    between atoms: N_22  and  O_23
REMARK   10  A    between atoms: S_24  and  C_25
REMARK                            x       y       z     vdW  Elec       q    Type
REMARK                         _______ _______ _______ _____ _____    ______ ____
ROOT
ATOM      1  C   UNL     1       2.166   7.919  18.887  0.00  0.00    +0.000 A 
ATOM      2  C   UNL     1       1.732   7.889  20.210  0.00  0.00    +0.000 A 
ATOM      3  C   UNL     1       0.919   8.908  20.695  0.00  0.00    +0.000 A 
ATOM      4  C   UNL     1       0.561  10.021  19.903  0.00  0.00    +0.000 A 
ATOM      5  C   UNL     1       1.130  10.093  18.625  0.00  0.00    +0.000 A 
ATOM      6  C   UNL     1       1.881   9.038  18.104  0.00  0.00    +0.000 A 
ENDROOT
BRANCH   4   7
ATOM      7  C   UNL     1      -0.404  11.026  20.429  0.00  0.00    +0.000 A 
ATOM      8  C   UNL     1      -0.257  11.416  21.786  0.00  0.00    +0.000 A 
ATOM      9  C   UNL     1      -1.170  12.246  22.433  0.00  0.00    +0.000 A 
ATOM     10  C   UNL     1      -2.243  12.758  21.728  0.00  0.00    +0.000 A 
ATOM     11  C   UNL     1      -2.400  12.443  20.379  0.00  0.00    +0.000 A 
ATOM     12  C   UNL     1      -1.500  11.580  19.715  0.00  0.00    +0.000 A 
BRANCH  12  13
ATOM     13  C   UNL     1      -1.838  11.236  18.289  0.00  0.00    +0.000 C 
ATOM     14  N   UNL     1      -1.577  12.181  17.332  0.00  0.00    +0.000 N 
ATOM     15  O   UNL     1      -2.334  10.174  17.950  0.00  0.00    +0.000 OA
ATOM     16  H   UNL     1      -1.188  13.095  17.509  0.00  0.00    +0.000 HD
ATOM     17  H   UNL     1      -1.772  11.916  16.373  0.00  0.00    +0.000 HD
ENDBRANCH  12  13
ENDBRANCH   4   7
BRANCH   1  18
ATOM     18  C   UNL     1       2.909   6.749  18.309  0.00  0.00    +0.000 C 
BRANCH  18  19
ATOM     19  C   UNL     1       3.112   5.635  19.351  0.00  0.00    +0.000 C 
BRANCH  19  21
ATOM     20  C   UNL     1       1.680   4.395  17.661  0.00  0.00    +0.000 C 
ATOM     21  C   UNL     1       2.607   4.253  18.882  0.00  0.00    +0.000 C 
BRANCH  21  22
ATOM     22  C   UNL     1       1.885   3.545  20.022  0.00  0.00    +0.000 C 
ATOM     23  O   UNL     1       0.736   3.106  19.906  0.00  0.00    +0.000 OA
ATOM     24  N   UNL     1       2.544   3.464  21.223  0.00  0.00    +0.000 N 
ATOM     25  H   UNL     1       3.561   3.504  21.311  0.00  0.00    +0.000 HD
BRANCH  24  26
ATOM     26  O   UNL     1       1.852   2.783  22.256  0.00  0.00    +0.000 OA
ATOM     27  H   UNL     1       1.010   2.537  21.825  0.00  0.00    +0.000 HD
ENDBRANCH  24  26
ENDBRANCH  21  22
BRANCH  21  28
ATOM     28  S   UNL     1       4.039   3.236  18.431  0.00  0.00    +0.000 S 
ATOM     29  C   UNL     1       3.467   1.554  18.346  0.00  0.00    +0.000 C 
ATOM     30  O   UNL     1       4.455   3.612  17.094  0.00  0.00    +0.000 OA
ATOM     31  O   UNL     1       4.990   3.309  19.528  0.00  0.00    +0.000 OA
ENDBRANCH  21  28
ENDBRANCH  19  21
ENDBRANCH  18  19
ENDBRANCH   1  18
TORSDOF 8
ENDMDL
MODEL 6
REMARK VINA RESULT:      -8.4      0.688      1.147
REMARK  Name = 
REMARK  10 active torsions:
REMARK  status: ('A' for Active; 'I' for Inactive)
REMARK    1  A    between atoms: C_1  and  C_2
REMARK    2  A    between atoms: C_2  and  C_3
REMARK    3  A    between atoms: C_2  and  C_20
REMARK    4  A    between atoms: C_2  and  S_24
REMARK    5  A    between atoms: C_3  and  C_4
REMARK    6  A    between atoms: C_4  and  C_5
REMARK    7  A    between atoms: C_8  and  C_9
REMARK    8  A    between atoms: C_14  and  C_15
REMARK    9  A    between atoms: N_22  and  O_23
REMARK   10  A    between atoms: S_24  and  C_25
REMARK                            x       y       z     vdW  Elec       q    Type
REMARK                         _______ _______ _______ _____ _____    ______ ____
ROOT
ATOM      1  C   UNL     1       2.440   7.907  18.330  0.00  0.00    +0.000 A 
ATOM      2  C   UNL     1       1.860   8.980  17.658  0.00  0.00    +0.000 A 
ATOM      3  C   UNL     1       1.002   9.839  18.337  0.00  0.00    +0.000 A 
ATOM      4  C   UNL     1       0.642   9.627  19.685  0.00  0.00    +0.000 A 
ATOM      5  C   UNL     1       1.128   8.461  20.290  0.00  0.00    +0.000 A 
ATOM      6  C   UNL     1       2.052   7.637  19.643  0.00  0.00    +0.000 A 
ENDROOT
BRANCH   4   7
ATOM      7  C   UNL     1      -0.186  10.637  20.400  0.00  0.00    +0.000 A 
ATOM      8  C   UNL     1       0.058  10.808  21.789  0.00  0.00    +0.000 A 
ATOM      9  C   UNL     1      -0.734  11.622  22.596  0.00  0.00    +0.000 A 
ATOM     10  C   UNL     1      -1.774  12.338  22.031  0.00  0.00    +0.000 A 
ATOM     11  C   UNL     1      -2.018  12.239  20.662  0.00  0.00    +0.000 A 
ATOM     12  C   UNL     1      -1.245  11.397  19.834  0.00  0.00    +0.000 A 
BRANCH  12  13
ATOM     13  C   UNL     1      -1.675  11.301  18.395  0.00  0.00    +0.000 C 
ATOM     14  N   UNL     1      -1.371  12.353  17.572  0.00  0.00    +0.000 N 
ATOM     15  O   UNL     1      -2.282  10.347  17.934  0.00  0.00    +0.000 OA
ATOM     16  H   UNL     1      -0.892  13.194  17.858  0.00  0.00    +0.000 HD
ATOM     17  H   UNL     1      -1.632  12.253  16.598  0.00  0.00    +0.000 HD
ENDBRANCH  12  13
ENDBRANCH   4   7
BRANCH   1  18
ATOM     18  C   UNL     1       3.488   7.069  17.655  0.00  0.00    +0.000 C 
BRANCH  18  19
ATOM     19  C   UNL     1       4.586   6.633  18.640  0.00  0.00    +0.000 C 
BRANCH  19  21
ATOM     20  C   UNL     1       5.003   4.941  16.794  0.00  0.00    +0.000 C 
ATOM     21  C   UNL     1       5.236   5.279  18.278  0.00  0.00    +0.000 C 
BRANCH  21  22
ATOM     22  C   UNL     1       4.679   4.176  19.170  0.00  0.00    +0.000 C 
ATOM     23  O   UNL     1       3.653   4.321  19.841  0.00  0.00    +0.000 OA
ATOM     24  N   UNL     1       5.407   3.014  19.252  0.00  0.00    +0.000 N 
ATOM     25  H   UNL     1       6.051   2.701  18.524  0.00  0.00    +0.000 HD
BRANCH  24  26
ATOM     26  O   UNL     1       4.852   2.003  20.076  0.00  0.00    +0.000 OA
ATOM     27  H   UNL     1       4.670   1.282  19.440  0.00  0.00    +0.000 HD
ENDBRANCH  24  26
ENDBRANCH  21  22
BRANCH  21  28
ATOM     28  S   UNL     1       7.017   5.388  18.594  0.00  0.00    +0.000 S 
ATOM     29  C   UNL     1       7.564   6.943  17.928  0.00  0.00    +0.000 C 
ATOM     30  O   UNL     1       7.217   5.446  20.029  0.00  0.00    +0.000 OA
ATOM     31  O   UNL     1       7.663   4.340  17.820  0.00  0.00    +0.000 OA
ENDBRANCH  21  28
ENDBRANCH  19  21
ENDBRANCH  18  19
ENDBRANCH   1  18
TORSDOF 8
ENDMDL
MODEL 7
REMARK VINA RESULT:      -8.4      1.358      1.849
REMARK  Name = 
REMARK  10 active torsions:
REMARK  status: ('A' for Active; 'I' for Inactive)
REMARK    1  A    between atoms: C_1  and  C_2
REMARK    2  A    between atoms: C_2  and  C_3
REMARK    3  A    between atoms: C_2  and  C_20
REMARK    4  A    between atoms: C_2  and  S_24
REMARK    5  A    between atoms: C_3  and  C_4
REMARK    6  A    between atoms: C_4  and  C_5
REMARK    7  A    between atoms: C_8  and  C_9
REMARK    8  A    between atoms: C_14  and  C_15
REMARK    9  A    between atoms: N_22  and  O_23
REMARK   10  A    between atoms: S_24  and  C_25
REMARK                            x       y       z     vdW  Elec       q    Type
REMARK                         _______ _______ _______ _____ _____    ______ ____
ROOT
ATOM      1  C   UNL     1       2.255   7.592  18.540  0.00  0.00    +0.000 A 
ATOM      2  C   UNL     1       1.899   7.687  19.883  0.00  0.00    +0.000 A 
ATOM      3  C   UNL     1       1.197   8.799  20.336  0.00  0.00    +0.000 A 
ATOM      4  C   UNL     1       0.882   9.882  19.488  0.00  0.00    +0.000 A 
ATOM      5  C   UNL     1       1.379   9.822  18.179  0.00  0.00    +0.000 A 
ATOM      6  C   UNL     1       2.013   8.676  17.695  0.00  0.00    +0.000 A 
ENDROOT
BRANCH   4   7
ATOM      7  C   UNL     1       0.031  10.996  19.991  0.00  0.00    +0.000 A 
ATOM      8  C   UNL     1       0.403  11.586  21.229  0.00  0.00    +0.000 A 
ATOM      9  C   UNL     1      -0.380  12.543  21.870  0.00  0.00    +0.000 A 
ATOM     10  C   UNL     1      -1.545  12.984  21.269  0.00  0.00    +0.000 A 
ATOM     11  C   UNL     1      -1.923  12.469  20.031  0.00  0.00    +0.000 A 
ATOM     12  C   UNL     1      -1.157  11.477  19.380  0.00  0.00    +0.000 A 
BRANCH  12  13
ATOM     13  C   UNL     1      -1.727  10.931  18.098  0.00  0.00    +0.000 C 
ATOM     14  N   UNL     1      -1.678  11.735  16.990  0.00  0.00    +0.000 N 
ATOM     15  O   UNL     1      -2.231   9.823  18.002  0.00  0.00    +0.000 OA
ATOM     16  H   UNL     1      -1.302  12.671  16.969  0.00  0.00    +0.000 HD
ATOM     17  H   UNL     1      -2.028  11.335  16.128  0.00  0.00    +0.000 HD
ENDBRANCH  12  13
ENDBRANCH   4   7
BRANCH   1  18
ATOM     18  C   UNL     1       2.869   6.329  18.008  0.00  0.00    +0.000 C 
BRANCH  18  19
ATOM     19  C   UNL     1       4.384   6.483  17.790  0.00  0.00    +0.000 C 
BRANCH  19  21
ATOM     20  C   UNL     1       4.119   4.004  17.317  0.00  0.00    +0.000 C 
ATOM     21  C   UNL     1       5.119   5.138  17.604  0.00  0.00    +0.000 C 
BRANCH  21  22
ATOM     22  C   UNL     1       5.949   4.818  18.842  0.00  0.00    +0.000 C 
ATOM     23  O   UNL     1       5.723   3.835  19.554  0.00  0.00    +0.000 OA
ATOM     24  N   UNL     1       6.935   5.711  19.179  0.00  0.00    +0.000 N 
ATOM     25  H   UNL     1       7.381   6.338  18.506  0.00  0.00    +0.000 HD
BRANCH  24  26
ATOM     26  O   UNL     1       7.700   5.374  20.324  0.00  0.00    +0.000 OA
ATOM     27  H   UNL     1       7.238   5.855  21.040  0.00  0.00    +0.000 HD
ENDBRANCH  24  26
ENDBRANCH  21  22
BRANCH  21  28
ATOM     28  S   UNL     1       6.264   5.292  16.207  0.00  0.00    +0.000 S 
ATOM     29  C   UNL     1       5.625   4.266  14.902  0.00  0.00    +0.000 C 
ATOM     30  O   UNL     1       6.216   6.661  15.733  0.00  0.00    +0.000 OA
ATOM     31  O   UNL     1       7.535   4.718  16.619  0.00  0.00    +0.000 OA
ENDBRANCH  21  28
ENDBRANCH  19  21
ENDBRANCH  18  19
ENDBRANCH   1  18
TORSDOF 8
ENDMDL
MODEL 8
REMARK VINA RESULT:      -8.3      1.956      2.526
REMARK  Name = 
REMARK  10 active torsions:
REMARK  status: ('A' for Active; 'I' for Inactive)
REMARK    1  A    between atoms: C_1  and  C_2
REMARK    2  A    between atoms: C_2  and  C_3
REMARK    3  A    between atoms: C_2  and  C_20
REMARK    4  A    between atoms: C_2  and  S_24
REMARK    5  A    between atoms: C_3  and  C_4
REMARK    6  A    between atoms: C_4  and  C_5
REMARK    7  A    between atoms: C_8  and  C_9
REMARK    8  A    between atoms: C_14  and  C_15
REMARK    9  A    between atoms: N_22  and  O_23
REMARK   10  A    between atoms: S_24  and  C_25
REMARK                            x       y       z     vdW  Elec       q    Type
REMARK                         _______ _______ _______ _____ _____    ______ ____
ROOT
ATOM      1  C   UNL     1       2.345   7.828  18.720  0.00  0.00    +0.000 A 
ATOM      2  C   UNL     1       2.105   8.837  17.791  0.00  0.00    +0.000 A 
ATOM      3  C   UNL     1       1.399   9.974  18.170  0.00  0.00    +0.000 A 
ATOM      4  C   UNL     1       0.853  10.119  19.463  0.00  0.00    +0.000 A 
ATOM      5  C   UNL     1       0.987   9.026  20.330  0.00  0.00    +0.000 A 
ATOM      6  C   UNL     1       1.762   7.917  19.985  0.00  0.00    +0.000 A 
ENDROOT
BRANCH   4   7
ATOM      7  C   UNL     1       0.205  11.401  19.856  0.00  0.00    +0.000 A 
ATOM      8  C   UNL     1       0.788  12.116  20.936  0.00  0.00    +0.000 A 
ATOM      9  C   UNL     1       0.205  13.257  21.484  0.00  0.00    +0.000 A 
ATOM     10  C   UNL     1      -0.963  13.755  20.936  0.00  0.00    +0.000 A 
ATOM     11  C   UNL     1      -1.543  13.115  19.842  0.00  0.00    +0.000 A 
ATOM     12  C   UNL     1      -0.982  11.941  19.293  0.00  0.00    +0.000 A 
BRANCH  12  13
ATOM     13  C   UNL     1      -1.759  11.289  18.181  0.00  0.00    +0.000 C 
ATOM     14  N   UNL     1      -1.872  11.975  17.000  0.00  0.00    +0.000 N 
ATOM     15  O   UNL     1      -2.294  10.196  18.283  0.00  0.00    +0.000 OA
ATOM     16  H   UNL     1      -1.485  12.889  16.821  0.00  0.00    +0.000 HD
ATOM     17  H   UNL     1      -2.363  11.502  16.251  0.00  0.00    +0.000 HD
ENDBRANCH  12  13
ENDBRANCH   4   7
BRANCH   1  18
ATOM     18  C   UNL     1       3.240   6.674  18.370  0.00  0.00    +0.000 C 
BRANCH  18  19
ATOM     19  C   UNL     1       3.232   5.596  19.468  0.00  0.00    +0.000 C 
BRANCH  19  21
ATOM     20  C   UNL     1       1.757   4.440  17.757  0.00  0.00    +0.000 C 
ATOM     21  C   UNL     1       2.639   4.248  19.004  0.00  0.00    +0.000 C 
BRANCH  21  22
ATOM     22  C   UNL     1       1.836   3.613  20.134  0.00  0.00    +0.000 C 
ATOM     23  O   UNL     1       0.601   3.628  20.157  0.00  0.00    +0.000 OA
ATOM     24  N   UNL     1       2.546   3.069  21.174  0.00  0.00    +0.000 N 
ATOM     25  H   UNL     1       3.509   2.739  21.087  0.00  0.00    +0.000 HD
BRANCH  24  26
ATOM     26  O   UNL     1       1.769   2.471  22.198  0.00  0.00    +0.000 OA
ATOM     27  H   UNL     1       1.563   3.228  22.781  0.00  0.00    +0.000 HD
ENDBRANCH  24  26
ENDBRANCH  21  22
BRANCH  21  28
ATOM     28  S   UNL     1       4.001   3.121  18.606  0.00  0.00    +0.000 S 
ATOM     29  C   UNL     1       4.557   3.543  16.970  0.00  0.00    +0.000 C 
ATOM     30  O   UNL     1       5.098   3.401  19.513  0.00  0.00    +0.000 OA
ATOM     31  O   UNL     1       3.450   1.777  18.537  0.00  0.00    +0.000 OA
ENDBRANCH  21  28
ENDBRANCH  19  21
ENDBRANCH  18  19
ENDBRANCH   1  18
TORSDOF 8
ENDMDL
MODEL 9
REMARK VINA RESULT:      -8.3      1.584      2.718
REMARK  Name = 
REMARK  10 active torsions:
REMARK  status: ('A' for Active; 'I' for Inactive)
REMARK    1  A    between atoms: C_1  and  C_2
REMARK    2  A    between atoms: C_2  and  C_3
REMARK    3  A    between atoms: C_2  and  C_20
REMARK    4  A    between atoms: C_2  and  S_24
REMARK    5  A    between atoms: C_3  and  C_4
REMARK    6  A    between atoms: C_4  and  C_5
REMARK    7  A    between atoms: C_8  and  C_9
REMARK    8  A    between atoms: C_14  and  C_15
REMARK    9  A    between atoms: N_22  and  O_23
REMARK   10  A    between atoms: S_24  and  C_25
REMARK                            x       y       z     vdW  Elec       q    Type
REMARK                         _______ _______ _______ _____ _____    ______ ____
ROOT
ATOM      1  C   UNL     1       2.335   7.930  18.662  0.00  0.00    +0.000 A 
ATOM      2  C   UNL     1       1.887   7.847  19.978  0.00  0.00    +0.000 A 
ATOM      3  C   UNL     1       1.055   8.838  20.490  0.00  0.00    +0.000 A 
ATOM      4  C   UNL     1       0.693   9.975  19.736  0.00  0.00    +0.000 A 
ATOM      5  C   UNL     1       1.276  10.101  18.468  0.00  0.00    +0.000 A 
ATOM      6  C   UNL     1       2.045   9.074  17.917  0.00  0.00    +0.000 A 
ENDROOT
BRANCH   4   7
ATOM      7  C   UNL     1      -0.289  10.949  20.287  0.00  0.00    +0.000 A 
ATOM      8  C   UNL     1      -0.126  11.335  21.644  0.00  0.00    +0.000 A 
ATOM      9  C   UNL     1      -1.049  12.134  22.315  0.00  0.00    +0.000 A 
ATOM     10  C   UNL     1      -2.151  12.619  21.634  0.00  0.00    +0.000 A 
ATOM     11  C   UNL     1      -2.326  12.307  20.287  0.00  0.00    +0.000 A 
ATOM     12  C   UNL     1      -1.415  11.474  19.600  0.00  0.00    +0.000 A 
BRANCH  12  13
ATOM     13  C   UNL     1      -1.771  11.129  18.178  0.00  0.00    +0.000 C 
ATOM     14  N   UNL     1      -1.624  12.110  17.233  0.00  0.00    +0.000 N 
ATOM     15  O   UNL     1      -2.188  10.035  17.834  0.00  0.00    +0.000 OA
ATOM     16  H   UNL     1      -1.306  13.050  17.416  0.00  0.00    +0.000 HD
ATOM     17  H   UNL     1      -1.828  11.847  16.276  0.00  0.00    +0.000 HD
ENDBRANCH  12  13
ENDBRANCH   4   7
BRANCH   1  18
ATOM     18  C   UNL     1       3.098   6.791  18.049  0.00  0.00    +0.000 C 
BRANCH  18  19
ATOM     19  C   UNL     1       2.299   5.478  18.107  0.00  0.00    +0.000 C 
BRANCH  19  21
ATOM     20  C   UNL     1       2.685   4.411  20.378  0.00  0.00    +0.000 C 
ATOM     21  C   UNL     1       3.021   4.350  18.877  0.00  0.00    +0.000 C 
BRANCH  21  22
ATOM     22  C   UNL     1       4.527   4.451  18.662  0.00  0.00    +0.000 C 
ATOM     23  O   UNL     1       5.266   5.067  19.435  0.00  0.00    +0.000 OA
ATOM     24  N   UNL     1       5.034   3.873  17.524  0.00  0.00    +0.000 N 
ATOM     25  H   UNL     1       4.574   3.107  17.028  0.00  0.00    +0.000 HD
BRANCH  24  26
ATOM     26  O   UNL     1       6.439   3.968  17.364  0.00  0.00    +0.000 OA
ATOM     27  H   UNL     1       6.747   4.157  18.273  0.00  0.00    +0.000 HD
ENDBRANCH  24  26
ENDBRANCH  21  22
BRANCH  21  28
ATOM     28  S   UNL     1       2.482   2.754  18.208  0.00  0.00    +0.000 S 
ATOM     29  C   UNL     1       0.889   2.411  18.919  0.00  0.00    +0.000 C 
ATOM     30  O   UNL     1       2.286   2.907  16.779  0.00  0.00    +0.000 OA
ATOM     31  O   UNL     1       3.399   1.741  18.704  0.00  0.00    +0.000 OA
ENDBRANCH  21  28
ENDBRANCH  19  21
ENDBRANCH  18  19
ENDBRANCH   1  18
TORSDOF 8
ENDMDL
