MODEL 1
REMARK VINA RESULT:      -8.4      0.000      0.000
REMARK  Name = 
REMARK  10 active torsions:
REMARK  status: ('A' for Active; 'I' for Inactive)
REMARK    1  A    between atoms: C_1  and  C_2
REMARK    2  A    between atoms: C_2  and  O_3
REMARK    3  A    between atoms: O_3  and  C_4
REMARK    4  A    between atoms: C_4  and  C_6
REMARK    5  A    between atoms: C_7  and  C_8
REMARK    6  A    between atoms: C_12  and  C_13
REMARK    7  A    between atoms: C_15  and  O_16
REMARK    8  A    between atoms: O_16  and  C_17
REMARK    9  A    between atoms: C_20  and  O_21
REMARK   10  A    between atoms: O_21  and  C_22
REMARK                            x       y       z     vdW  Elec       q    Type
REMARK                         _______ _______ _______ _____ _____    ______ ____
ROOT
ATOM      1  C   UNL     1       3.411   4.321  19.459  0.00  0.00    +0.000 A 
ATOM      2  C   UNL     1       2.479   4.598  20.508  0.00  0.00    +0.000 A 
ATOM      3  C   UNL     1       2.161   3.667  21.647  0.00  0.00    +0.000 C 
ATOM      4  N   UNL     1       1.808   5.777  20.620  0.00  0.00    +0.000 NA
ATOM      5  C   UNL     1       2.070   6.678  19.675  0.00  0.00    +0.000 A 
ATOM      6  C   UNL     1       2.939   6.479  18.596  0.00  0.00    +0.000 A 
ATOM      7  C   UNL     1       3.703   5.303  18.463  0.00  0.00    +0.000 A 
ATOM      8  C   UNL     1       2.892   7.773  17.841  0.00  0.00    +0.000 C 
ATOM      9  O   UNL     1       3.360   8.040  16.759  0.00  0.00    +0.000 OA
ATOM     10  C   UNL     1       2.118   8.737  18.646  0.00  0.00    +0.000 A 
ATOM     11  C   UNL     1       1.933  10.093  18.453  0.00  0.00    +0.000 A 
ATOM     12  C   UNL     1       1.161  10.769  19.397  0.00  0.00    +0.000 A 
ATOM     13  C   UNL     1       0.602  10.080  20.491  0.00  0.00    +0.000 A 
ATOM     14  C   UNL     1       0.822   8.707  20.669  0.00  0.00    +0.000 A 
ATOM     15  C   UNL     1       1.594   8.039  19.733  0.00  0.00    +0.000 A 
ENDROOT
BRANCH   7  16
ATOM     16  C   UNL     1       4.813   5.215  17.440  0.00  0.00    +0.000 A 
ATOM     17  C   UNL     1       4.474   4.787  16.129  0.00  0.00    +0.000 A 
ATOM     18  C   UNL     1       5.421   4.544  15.134  0.00  0.00    +0.000 A 
ATOM     19  C   UNL     1       6.731   4.916  15.353  0.00  0.00    +0.000 A 
ATOM     20  C   UNL     1       7.103   5.418  16.601  0.00  0.00    +0.000 A 
ATOM     21  C   UNL     1       6.183   5.513  17.665  0.00  0.00    +0.000 A 
BRANCH  18  22
ATOM     22  O   UNL     1       5.132   3.992  13.915  0.00  0.00    +0.000 OA
ATOM     23  C   UNL     1       6.290   3.700  13.130  0.00  0.00    +0.000 C 
ENDBRANCH  18  22
BRANCH  21  24
ATOM     24  O   UNL     1       6.543   5.911  18.928  0.00  0.00    +0.000 OA
ATOM     25  C   UNL     1       7.885   5.739  19.373  0.00  0.00    +0.000 C 
ENDBRANCH  21  24
ENDBRANCH   7  16
BRANCH   1  26
ATOM     26  C   UNL     1       4.205   3.079  19.599  0.00  0.00    +0.000 C 
ATOM     27  O   UNL     1       5.338   3.070  20.043  0.00  0.00    +0.000 OA
BRANCH  26  28
ATOM     28  O   UNL     1       3.428   1.997  19.324  0.00  0.00    +0.000 OA
BRANCH  28  30
ATOM     29  C   UNL     1       1.171   2.024  18.438  0.00  0.00    +0.000 C 
ATOM     30  C   UNL     1       2.644   2.111  18.123  0.00  0.00    +0.000 C 
ENDBRANCH  28  30
ENDBRANCH  26  28
ENDBRANCH   1  26
TORSDOF 6
ENDMDL
MODEL 2
REMARK VINA RESULT:      -8.1      1.238      1.750
REMARK  Name = 
REMARK  10 active torsions:
REMARK  status: ('A' for Active; 'I' for Inactive)
REMARK    1  A    between atoms: C_1  and  C_2
REMARK    2  A    between atoms: C_2  and  O_3
REMARK    3  A    between atoms: O_3  and  C_4
REMARK    4  A    between atoms: C_4  and  C_6
REMARK    5  A    between atoms: C_7  and  C_8
REMARK    6  A    between atoms: C_12  and  C_13
REMARK    7  A    between atoms: C_15  and  O_16
REMARK    8  A    between atoms: O_16  and  C_17
REMARK    9  A    between atoms: C_20  and  O_21
REMARK   10  A    between atoms: O_21  and  C_22
REMARK                            x       y       z     vdW  Elec       q    Type
REMARK                         _______ _______ _______ _____ _____    ______ ____
ROOT
ATOM      1  C   UNL     1       3.264   3.344  19.480  0.00  0.00    +0.000 A 
ATOM      2  C   UNL     1       2.298   3.471  20.527  0.00  0.00    +0.000 A 
ATOM      3  C   UNL     1       1.915   2.374  21.483  0.00  0.00    +0.000 C 
ATOM      4  N   UNL     1       1.649   4.634  20.808  0.00  0.00    +0.000 NA
ATOM      5  C   UNL     1       1.968   5.670  20.036  0.00  0.00    +0.000 A 
ATOM      6  C   UNL     1       2.875   5.628  18.970  0.00  0.00    +0.000 A 
ATOM      7  C   UNL     1       3.617   4.468  18.671  0.00  0.00    +0.000 A 
ATOM      8  C   UNL     1       2.886   7.029  18.439  0.00  0.00    +0.000 C 
ATOM      9  O   UNL     1       3.402   7.457  17.433  0.00  0.00    +0.000 OA
ATOM     10  C   UNL     1       2.103   7.869  19.364  0.00  0.00    +0.000 A 
ATOM     11  C   UNL     1       1.956   9.243  19.392  0.00  0.00    +0.000 A 
ATOM     12  C   UNL     1       1.162   9.776  20.407  0.00  0.00    +0.000 A 
ATOM     13  C   UNL     1       0.546   8.932  21.351  0.00  0.00    +0.000 A 
ATOM     14  C   UNL     1       0.728   7.543  21.307  0.00  0.00    +0.000 A 
ATOM     15  C   UNL     1       1.522   7.017  20.302  0.00  0.00    +0.000 A 
ENDROOT
BRANCH   7  16
ATOM     16  C   UNL     1       4.764   4.518  17.687  0.00  0.00    +0.000 A 
ATOM     17  C   UNL     1       4.462   4.360  16.308  0.00  0.00    +0.000 A 
ATOM     18  C   UNL     1       5.439   4.262  15.317  0.00  0.00    +0.000 A 
ATOM     19  C   UNL     1       6.753   4.520  15.646  0.00  0.00    +0.000 A 
ATOM     20  C   UNL     1       7.094   4.761  16.978  0.00  0.00    +0.000 A 
ATOM     21  C   UNL     1       6.135   4.701  18.009  0.00  0.00    +0.000 A 
BRANCH  18  22
ATOM     22  O   UNL     1       5.178   3.962  14.007  0.00  0.00    +0.000 OA
ATOM     23  C   UNL     1       6.354   3.776  13.218  0.00  0.00    +0.000 C 
ENDBRANCH  18  22
BRANCH  21  24
ATOM     24  O   UNL     1       6.458   4.836  19.336  0.00  0.00    +0.000 OA
ATOM     25  C   UNL     1       7.598   5.601  19.717  0.00  0.00    +0.000 C 
ENDBRANCH  21  24
ENDBRANCH   7  16
BRANCH   1  26
ATOM     26  C   UNL     1       4.024   2.074  19.439  0.00  0.00    +0.000 C 
ATOM     27  O   UNL     1       3.931   1.282  18.520  0.00  0.00    +0.000 OA
BRANCH  26  28
ATOM     28  O   UNL     1       4.919   2.034  20.462  0.00  0.00    +0.000 OA
BRANCH  28  30
ATOM     29  C   UNL     1       6.018   0.709  22.171  0.00  0.00    +0.000 C 
ATOM     30  C   UNL     1       5.385   0.715  20.801  0.00  0.00    +0.000 C 
ENDBRANCH  28  30
ENDBRANCH  26  28
ENDBRANCH   1  26
TORSDOF 6
ENDMDL
MODEL 3
REMARK VINA RESULT:      -6.6      5.578      9.262
REMARK  Name = 
REMARK  10 active torsions:
REMARK  status: ('A' for Active; 'I' for Inactive)
REMARK    1  A    between atoms: C_1  and  C_2
REMARK    2  A    between atoms: C_2  and  O_3
REMARK    3  A    between atoms: O_3  and  C_4
REMARK    4  A    between atoms: C_4  and  C_6
REMARK    5  A    between atoms: C_7  and  C_8
REMARK    6  A    between atoms: C_12  and  C_13
REMARK    7  A    between atoms: C_15  and  O_16
REMARK    8  A    between atoms: O_16  and  C_17
REMARK    9  A    between atoms: C_20  and  O_21
REMARK   10  A    between atoms: O_21  and  C_22
REMARK                            x       y       z     vdW  Elec       q    Type
REMARK                         _______ _______ _______ _____ _____    ______ ____
ROOT
ATOM      1  C   UNL     1      -2.005  12.330  21.740  0.00  0.00    +0.000 A 
ATOM      2  C   UNL     1      -3.249  12.740  22.313  0.00  0.00    +0.000 A 
ATOM      3  C   UNL     1      -3.433  13.207  23.732  0.00  0.00    +0.000 C 
ATOM      4  N   UNL     1      -4.411  12.804  21.608  0.00  0.00    +0.000 NA
ATOM      5  C   UNL     1      -4.325  12.453  20.327  0.00  0.00    +0.000 A 
ATOM      6  C   UNL     1      -3.159  12.008  19.694  0.00  0.00    +0.000 A 
ATOM      7  C   UNL     1      -1.917  11.977  20.359  0.00  0.00    +0.000 A 
ATOM      8  C   UNL     1      -3.581  11.753  18.279  0.00  0.00    +0.000 C 
ATOM      9  O   UNL     1      -2.965  11.222  17.385  0.00  0.00    +0.000 OA
ATOM     10  C   UNL     1      -4.961  12.250  18.123  0.00  0.00    +0.000 A 
ATOM     11  C   UNL     1      -5.722  12.385  16.977  0.00  0.00    +0.000 A 
ATOM     12  C   UNL     1      -7.005  12.911  17.125  0.00  0.00    +0.000 A 
ATOM     13  C   UNL     1      -7.484  13.282  18.396  0.00  0.00    +0.000 A 
ATOM     14  C   UNL     1      -6.682  13.150  19.538  0.00  0.00    +0.000 A 
ATOM     15  C   UNL     1      -5.406  12.632  19.388  0.00  0.00    +0.000 A 
ENDROOT
BRANCH   7  16
ATOM     16  C   UNL     1      -0.637  11.737  19.592  0.00  0.00    +0.000 A 
ATOM     17  C   UNL     1      -0.172  10.399  19.478  0.00  0.00    +0.000 A 
ATOM     18  C   UNL     1       1.055  10.061  18.907  0.00  0.00    +0.000 A 
ATOM     19  C   UNL     1       1.775  11.034  18.245  0.00  0.00    +0.000 A 
ATOM     20  C   UNL     1       1.321  12.353  18.257  0.00  0.00    +0.000 A 
ATOM     21  C   UNL     1       0.165  12.731  18.971  0.00  0.00    +0.000 A 
BRANCH  18  22
ATOM     22  O   UNL     1       1.588   8.800  18.922  0.00  0.00    +0.000 OA
ATOM     23  C   UNL     1       2.429   8.522  17.800  0.00  0.00    +0.000 C 
ENDBRANCH  18  22
BRANCH  21  24
ATOM     24  O   UNL     1      -0.249  14.034  19.081  0.00  0.00    +0.000 OA
ATOM     25  C   UNL     1       0.669  15.041  19.499  0.00  0.00    +0.000 C 
ENDBRANCH  21  24
ENDBRANCH   7  16
BRANCH   1  26
ATOM     26  C   UNL     1      -0.802  12.513  22.585  0.00  0.00    +0.000 C 
ATOM     27  O   UNL     1      -0.093  13.499  22.513  0.00  0.00    +0.000 OA
BRANCH  26  28
ATOM     28  O   UNL     1      -0.736  11.528  23.520  0.00  0.00    +0.000 OA
BRANCH  28  30
ATOM     29  C   UNL     1       0.464   9.487  22.990  0.00  0.00    +0.000 C 
ATOM     30  C   UNL     1      -0.870  10.194  22.995  0.00  0.00    +0.000 C 
ENDBRANCH  28  30
ENDBRANCH  26  28
ENDBRANCH   1  26
TORSDOF 6
ENDMDL
MODEL 4
REMARK VINA RESULT:      -6.6      4.857      8.392
REMARK  Name = 
REMARK  10 active torsions:
REMARK  status: ('A' for Active; 'I' for Inactive)
REMARK    1  A    between atoms: C_1  and  C_2
REMARK    2  A    between atoms: C_2  and  O_3
REMARK    3  A    between atoms: O_3  and  C_4
REMARK    4  A    between atoms: C_4  and  C_6
REMARK    5  A    between atoms: C_7  and  C_8
REMARK    6  A    between atoms: C_12  and  C_13
REMARK    7  A    between atoms: C_15  and  O_16
REMARK    8  A    between atoms: O_16  and  C_17
REMARK    9  A    between atoms: C_20  and  O_21
REMARK   10  A    between atoms: O_21  and  C_22
REMARK                            x       y       z     vdW  Elec       q    Type
REMARK                         _______ _______ _______ _____ _____    ______ ____
ROOT
ATOM      1  C   UNL     1      -2.528  11.092  18.737  0.00  0.00    +0.000 A 
ATOM      2  C   UNL     1      -3.637  11.982  18.887  0.00  0.00    +0.000 A 
ATOM      3  C   UNL     1      -4.915  11.908  18.095  0.00  0.00    +0.000 C 
ATOM      4  N   UNL     1      -3.678  12.977  19.815  0.00  0.00    +0.000 NA
ATOM      5  C   UNL     1      -2.602  13.080  20.592  0.00  0.00    +0.000 A 
ATOM      6  C   UNL     1      -1.461  12.276  20.493  0.00  0.00    +0.000 A 
ATOM      7  C   UNL     1      -1.387  11.196  19.591  0.00  0.00    +0.000 A 
ATOM      8  C   UNL     1      -0.558  12.780  21.578  0.00  0.00    +0.000 C 
ATOM      9  O   UNL     1       0.597  12.502  21.798  0.00  0.00    +0.000 OA
ATOM     10  C   UNL     1      -1.321  13.753  22.383  0.00  0.00    +0.000 A 
ATOM     11  C   UNL     1      -0.980  14.366  23.575  0.00  0.00    +0.000 A 
ATOM     12  C   UNL     1      -1.917  15.237  24.131  0.00  0.00    +0.000 A 
ATOM     13  C   UNL     1      -3.148  15.469  23.488  0.00  0.00    +0.000 A 
ATOM     14  C   UNL     1      -3.472  14.820  22.289  0.00  0.00    +0.000 A 
ATOM     15  C   UNL     1      -2.543  13.950  21.742  0.00  0.00    +0.000 A 
ENDROOT
BRANCH   7  16
ATOM     16  C   UNL     1      -0.258  10.194  19.677  0.00  0.00    +0.000 A 
ATOM     17  C   UNL     1       0.621  10.088  18.565  0.00  0.00    +0.000 A 
ATOM     18  C   UNL     1       1.620   9.120  18.469  0.00  0.00    +0.000 A 
ATOM     19  C   UNL     1       1.910   8.346  19.574  0.00  0.00    +0.000 A 
ATOM     20  C   UNL     1       1.126   8.467  20.723  0.00  0.00    +0.000 A 
ATOM     21  C   UNL     1       0.011   9.329  20.770  0.00  0.00    +0.000 A 
BRANCH  18  22
ATOM     22  O   UNL     1       2.377   8.905  17.349  0.00  0.00    +0.000 OA
ATOM     23  C   UNL     1       3.286   7.810  17.475  0.00  0.00    +0.000 C 
ENDBRANCH  18  22
BRANCH  21  24
ATOM     24  O   UNL     1      -0.833   9.396  21.850  0.00  0.00    +0.000 OA
ATOM     25  C   UNL     1      -0.299   9.452  23.169  0.00  0.00    +0.000 C 
ENDBRANCH  21  24
ENDBRANCH   7  16
BRANCH   1  26
ATOM     26  C   UNL     1      -2.728   9.942  17.825  0.00  0.00    +0.000 C 
ATOM     27  O   UNL     1      -3.533   9.058  18.050  0.00  0.00    +0.000 OA
BRANCH  26  28
ATOM     28  O   UNL     1      -2.022  10.130  16.679  0.00  0.00    +0.000 OA
BRANCH  28  30
ATOM     29  C   UNL     1      -3.155   9.962  14.541  0.00  0.00    +0.000 C 
ATOM     30  C   UNL     1      -2.717  10.874  15.661  0.00  0.00    +0.000 C 
ENDBRANCH  28  30
ENDBRANCH  26  28
ENDBRANCH   1  26
TORSDOF 6
ENDMDL
MODEL 5
REMARK VINA RESULT:      -6.5      6.545      9.823
REMARK  Name = 
REMARK  10 active torsions:
REMARK  status: ('A' for Active; 'I' for Inactive)
REMARK    1  A    between atoms: C_1  and  C_2
REMARK    2  A    between atoms: C_2  and  O_3
REMARK    3  A    between atoms: O_3  and  C_4
REMARK    4  A    between atoms: C_4  and  C_6
REMARK    5  A    between atoms: C_7  and  C_8
REMARK    6  A    between atoms: C_12  and  C_13
REMARK    7  A    between atoms: C_15  and  O_16
REMARK    8  A    between atoms: O_16  and  C_17
REMARK    9  A    between atoms: C_20  and  O_21
REMARK   10  A    between atoms: O_21  and  C_22
REMARK                            x       y       z     vdW  Elec       q    Type
REMARK                         _______ _______ _______ _____ _____    ______ ____
ROOT
ATOM      1  C   UNL     1      -3.681  11.605  18.482  0.00  0.00    +0.000 A 
ATOM      2  C   UNL     1      -5.058  11.879  18.751  0.00  0.00    +0.000 A 
ATOM      3  C   UNL     1      -6.217  11.313  17.975  0.00  0.00    +0.000 C 
ATOM      4  N   UNL     1      -5.478  12.652  19.789  0.00  0.00    +0.000 NA
ATOM      5  C   UNL     1      -4.513  13.154  20.557  0.00  0.00    +0.000 A 
ATOM      6  C   UNL     1      -3.142  12.966  20.348  0.00  0.00    +0.000 A 
ATOM      7  C   UNL     1      -2.653  12.128  19.325  0.00  0.00    +0.000 A 
ATOM      8  C   UNL     1      -2.491  13.714  21.471  0.00  0.00    +0.000 C 
ATOM      9  O   UNL     1      -1.321  13.968  21.639  0.00  0.00    +0.000 OA
ATOM     10  C   UNL     1      -3.553  14.154  22.395  0.00  0.00    +0.000 A 
ATOM     11  C   UNL     1      -3.444  14.735  23.645  0.00  0.00    +0.000 A 
ATOM     12  C   UNL     1      -4.632  15.030  24.313  0.00  0.00    +0.000 A 
ATOM     13  C   UNL     1      -5.877  14.743  23.720  0.00  0.00    +0.000 A 
ATOM     14  C   UNL     1      -5.954  14.138  22.458  0.00  0.00    +0.000 A 
ATOM     15  C   UNL     1      -4.774  13.839  21.800  0.00  0.00    +0.000 A 
ENDROOT
BRANCH   7  16
ATOM     16  C   UNL     1      -1.193  11.742  19.276  0.00  0.00    +0.000 A 
ATOM     17  C   UNL     1      -0.820  10.484  19.823  0.00  0.00    +0.000 A 
ATOM     18  C   UNL     1       0.505  10.067  19.953  0.00  0.00    +0.000 A 
ATOM     19  C   UNL     1       1.500  10.811  19.353  0.00  0.00    +0.000 A 
ATOM     20  C   UNL     1       1.178  12.018  18.732  0.00  0.00    +0.000 A 
ATOM     21  C   UNL     1      -0.137  12.526  18.739  0.00  0.00    +0.000 A 
BRANCH  18  22
ATOM     22  O   UNL     1       0.892   8.930  20.609  0.00  0.00    +0.000 OA
ATOM     23  C   UNL     1       0.763   9.018  22.029  0.00  0.00    +0.000 C 
ENDBRANCH  18  22
BRANCH  21  24
ATOM     24  O   UNL     1      -0.465  13.753  18.222  0.00  0.00    +0.000 OA
ATOM     25  C   UNL     1       0.185  14.926  18.706  0.00  0.00    +0.000 C 
ENDBRANCH  21  24
ENDBRANCH   7  16
BRANCH   1  26
ATOM     26  C   UNL     1      -3.405  10.584  17.445  0.00  0.00    +0.000 C 
ATOM     27  O   UNL     1      -3.431   9.390  17.676  0.00  0.00    +0.000 OA
BRANCH  26  28
ATOM     28  O   UNL     1      -3.298  11.176  16.226  0.00  0.00    +0.000 OA
BRANCH  28  30
ATOM     29  C   UNL     1      -3.859  10.049  14.152  0.00  0.00    +0.000 C 
ATOM     30  C   UNL     1      -2.792  10.320  15.185  0.00  0.00    +0.000 C 
ENDBRANCH  28  30
ENDBRANCH  26  28
ENDBRANCH   1  26
TORSDOF 6
ENDMDL
MODEL 6
REMARK VINA RESULT:      -6.4      8.802     12.682
REMARK  Name = 
REMARK  10 active torsions:
REMARK  status: ('A' for Active; 'I' for Inactive)
REMARK    1  A    between atoms: C_1  and  C_2
REMARK    2  A    between atoms: C_2  and  O_3
REMARK    3  A    between atoms: O_3  and  C_4
REMARK    4  A    between atoms: C_4  and  C_6
REMARK    5  A    between atoms: C_7  and  C_8
REMARK    6  A    between atoms: C_12  and  C_13
REMARK    7  A    between atoms: C_15  and  O_16
REMARK    8  A    between atoms: O_16  and  C_17
REMARK    9  A    between atoms: C_20  and  O_21
REMARK   10  A    between atoms: O_21  and  C_22
REMARK                            x       y       z     vdW  Elec       q    Type
REMARK                         _______ _______ _______ _____ _____    ______ ____
ROOT
ATOM      1  C   UNL     1      -2.986  12.594  21.579  0.00  0.00    +0.000 A 
ATOM      2  C   UNL     1      -1.805  11.908  21.155  0.00  0.00    +0.000 A 
ATOM      3  C   UNL     1      -0.635  11.577  22.042  0.00  0.00    +0.000 C 
ATOM      4  N   UNL     1      -1.632  11.427  19.894  0.00  0.00    +0.000 NA
ATOM      5  C   UNL     1      -2.645  11.637  19.056  0.00  0.00    +0.000 A 
ATOM      6  C   UNL     1      -3.821  12.325  19.376  0.00  0.00    +0.000 A 
ATOM      7  C   UNL     1      -4.078  12.793  20.680  0.00  0.00    +0.000 A 
ATOM      8  C   UNL     1      -4.630  12.280  18.115  0.00  0.00    +0.000 C 
ATOM      9  O   UNL     1      -5.656  12.860  17.848  0.00  0.00    +0.000 OA
ATOM     10  C   UNL     1      -3.937  11.388  17.166  0.00  0.00    +0.000 A 
ATOM     11  C   UNL     1      -4.364  10.905  15.943  0.00  0.00    +0.000 A 
ATOM     12  C   UNL     1      -3.499  10.049  15.262  0.00  0.00    +0.000 A 
ATOM     13  C   UNL     1      -2.250   9.705  15.814  0.00  0.00    +0.000 A 
ATOM     14  C   UNL     1      -1.853  10.197  17.065  0.00  0.00    +0.000 A 
ATOM     15  C   UNL     1      -2.716  11.042  17.743  0.00  0.00    +0.000 A 
ENDROOT
BRANCH   7  16
ATOM     16  C   UNL     1      -5.449  13.305  21.060  0.00  0.00    +0.000 A 
ATOM     17  C   UNL     1      -5.612  14.707  21.223  0.00  0.00    +0.000 A 
ATOM     18  C   UNL     1      -6.789  15.291  21.692  0.00  0.00    +0.000 A 
ATOM     19  C   UNL     1      -7.917  14.508  21.826  0.00  0.00    +0.000 A 
ATOM     20  C   UNL     1      -7.830  13.134  21.600  0.00  0.00    +0.000 A 
ATOM     21  C   UNL     1      -6.605  12.511  21.283  0.00  0.00    +0.000 A 
BRANCH  18  22
ATOM     22  O   UNL     1      -6.919  16.619  21.997  0.00  0.00    +0.000 OA
ATOM     23  C   UNL     1      -7.745  17.338  21.078  0.00  0.00    +0.000 C 
ENDBRANCH  18  22
BRANCH  21  24
ATOM     24  O   UNL     1      -6.472  11.152  21.153  0.00  0.00    +0.000 OA
ATOM     25  C   UNL     1      -7.389  10.421  20.344  0.00  0.00    +0.000 C 
ENDBRANCH  21  24
ENDBRANCH   7  16
BRANCH   1  26
ATOM     26  C   UNL     1      -3.099  12.868  23.030  0.00  0.00    +0.000 C 
ATOM     27  O   UNL     1      -3.571  12.067  23.815  0.00  0.00    +0.000 OA
BRANCH  26  28
ATOM     28  O   UNL     1      -2.462  14.030  23.335  0.00  0.00    +0.000 OA
BRANCH  28  30
ATOM     29  C   UNL     1      -4.056  15.460  24.473  0.00  0.00    +0.000 C 
ATOM     30  C   UNL     1      -2.825  14.598  24.607  0.00  0.00    +0.000 C 
ENDBRANCH  28  30
ENDBRANCH  26  28
ENDBRANCH   1  26
TORSDOF 6
ENDMDL
MODEL 7
REMARK VINA RESULT:      -6.4      7.706     10.406
REMARK  Name = 
REMARK  10 active torsions:
REMARK  status: ('A' for Active; 'I' for Inactive)
REMARK    1  A    between atoms: C_1  and  C_2
REMARK    2  A    between atoms: C_2  and  O_3
REMARK    3  A    between atoms: O_3  and  C_4
REMARK    4  A    between atoms: C_4  and  C_6
REMARK    5  A    between atoms: C_7  and  C_8
REMARK    6  A    between atoms: C_12  and  C_13
REMARK    7  A    between atoms: C_15  and  O_16
REMARK    8  A    between atoms: O_16  and  C_17
REMARK    9  A    between atoms: C_20  and  O_21
REMARK   10  A    between atoms: O_21  and  C_22
REMARK                            x       y       z     vdW  Elec       q    Type
REMARK                         _______ _______ _______ _____ _____    ______ ____
ROOT
ATOM      1  C   UNL     1      -3.584  11.833  18.745  0.00  0.00    +0.000 A 
ATOM      2  C   UNL     1      -5.007  11.971  18.728  0.00  0.00    +0.000 A 
ATOM      3  C   UNL     1      -5.933  11.234  17.797  0.00  0.00    +0.000 C 
ATOM      4  N   UNL     1      -5.693  12.756  19.602  0.00  0.00    +0.000 NA
ATOM      5  C   UNL     1      -4.949  13.408  20.493  0.00  0.00    +0.000 A 
ATOM      6  C   UNL     1      -3.552  13.358  20.561  0.00  0.00    +0.000 A 
ATOM      7  C   UNL     1      -2.795  12.517  19.720  0.00  0.00    +0.000 A 
ATOM      8  C   UNL     1      -3.207  14.242  21.721  0.00  0.00    +0.000 C 
ATOM      9  O   UNL     1      -2.122  14.632  22.084  0.00  0.00    +0.000 OA
ATOM     10  C   UNL     1      -4.465  14.620  22.390  0.00  0.00    +0.000 A 
ATOM     11  C   UNL     1      -4.658  15.285  23.586  0.00  0.00    +0.000 A 
ATOM     12  C   UNL     1      -5.976  15.490  23.993  0.00  0.00    +0.000 A 
ATOM     13  C   UNL     1      -7.049  15.032  23.203  0.00  0.00    +0.000 A 
ATOM     14  C   UNL     1      -6.820  14.345  22.003  0.00  0.00    +0.000 A 
ATOM     15  C   UNL     1      -5.511  14.137  21.605  0.00  0.00    +0.000 A 
ENDROOT
BRANCH   7  16
ATOM     16  C   UNL     1      -1.323  12.290  19.978  0.00  0.00    +0.000 A 
ATOM     17  C   UNL     1      -0.960  11.273  20.902  0.00  0.00    +0.000 A 
ATOM     18  C   UNL     1       0.352  11.051  21.319  0.00  0.00    +0.000 A 
ATOM     19  C   UNL     1       1.379  11.708  20.673  0.00  0.00    +0.000 A 
ATOM     20  C   UNL     1       1.080  12.662  19.699  0.00  0.00    +0.000 A 
ATOM     21  C   UNL     1      -0.250  13.009  19.387  0.00  0.00    +0.000 A 
BRANCH  18  22
ATOM     22  O   UNL     1       0.705  10.181  22.315  0.00  0.00    +0.000 OA
ATOM     23  C   UNL     1      -0.388   9.799  23.153  0.00  0.00    +0.000 C 
ENDBRANCH  18  22
BRANCH  21  24
ATOM     24  O   UNL     1      -0.572  14.010  18.506  0.00  0.00    +0.000 OA
ATOM     25  C   UNL     1      -0.199  15.356  18.790  0.00  0.00    +0.000 C 
ENDBRANCH  21  24
ENDBRANCH   7  16
BRANCH   1  26
ATOM     26  C   UNL     1      -3.016  10.785  17.865  0.00  0.00    +0.000 C 
ATOM     27  O   UNL     1      -2.881   9.630  18.222  0.00  0.00    +0.000 OA
BRANCH  26  28
ATOM     28  O   UNL     1      -2.846  11.275  16.609  0.00  0.00    +0.000 OA
BRANCH  28  30
ATOM     29  C   UNL     1      -3.662  10.221  14.583  0.00  0.00    +0.000 C 
ATOM     30  C   UNL     1      -2.558  10.279  15.610  0.00  0.00    +0.000 C 
ENDBRANCH  28  30
ENDBRANCH  26  28
ENDBRANCH   1  26
TORSDOF 6
ENDMDL
MODEL 8
REMARK VINA RESULT:      -6.3      1.245      2.597
REMARK  Name = 
REMARK  10 active torsions:
REMARK  status: ('A' for Active; 'I' for Inactive)
REMARK    1  A    between atoms: C_1  and  C_2
REMARK    2  A    between atoms: C_2  and  O_3
REMARK    3  A    between atoms: O_3  and  C_4
REMARK    4  A    between atoms: C_4  and  C_6
REMARK    5  A    between atoms: C_7  and  C_8
REMARK    6  A    between atoms: C_12  and  C_13
REMARK    7  A    between atoms: C_15  and  O_16
REMARK    8  A    between atoms: O_16  and  C_17
REMARK    9  A    between atoms: C_20  and  O_21
REMARK   10  A    between atoms: O_21  and  C_22
REMARK                            x       y       z     vdW  Elec       q    Type
REMARK                         _______ _______ _______ _____ _____    ______ ____
ROOT
ATOM      1  C   UNL     1       3.602   4.025  19.807  0.00  0.00    +0.000 A 
ATOM      2  C   UNL     1       2.510   3.991  20.730  0.00  0.00    +0.000 A 
ATOM      3  C   UNL     1       2.184   2.833  21.635  0.00  0.00    +0.000 C 
ATOM      4  N   UNL     1       1.668   5.040  20.931  0.00  0.00    +0.000 NA
ATOM      5  C   UNL     1       1.918   6.125  20.201  0.00  0.00    +0.000 A 
ATOM      6  C   UNL     1       2.941   6.234  19.252  0.00  0.00    +0.000 A 
ATOM      7  C   UNL     1       3.878   5.202  19.045  0.00  0.00    +0.000 A 
ATOM      8  C   UNL     1       2.807   7.630  18.725  0.00  0.00    +0.000 C 
ATOM      9  O   UNL     1       3.369   8.147  17.787  0.00  0.00    +0.000 OA
ATOM     10  C   UNL     1       1.804   8.330  19.548  0.00  0.00    +0.000 A 
ATOM     11  C   UNL     1       1.452   9.666  19.557  0.00  0.00    +0.000 A 
ATOM     12  C   UNL     1       0.473  10.059  20.470  0.00  0.00    +0.000 A 
ATOM     13  C   UNL     1      -0.119   9.118  21.334  0.00  0.00    +0.000 A 
ATOM     14  C   UNL     1       0.272   7.772  21.313  0.00  0.00    +0.000 A 
ATOM     15  C   UNL     1       1.248   7.385  20.411  0.00  0.00    +0.000 A 
ENDROOT
BRANCH   7  16
ATOM     16  C   UNL     1       5.113   5.437  18.206  0.00  0.00    +0.000 A 
ATOM     17  C   UNL     1       6.179   6.175  18.787  0.00  0.00    +0.000 A 
ATOM     18  C   UNL     1       7.315   6.566  18.078  0.00  0.00    +0.000 A 
ATOM     19  C   UNL     1       7.519   6.059  16.811  0.00  0.00    +0.000 A 
ATOM     20  C   UNL     1       6.537   5.262  16.223  0.00  0.00    +0.000 A 
ATOM     21  C   UNL     1       5.313   4.996  16.871  0.00  0.00    +0.000 A 
BRANCH  18  22
ATOM     22  O   UNL     1       8.280   7.400  18.573  0.00  0.00    +0.000 OA
ATOM     23  C   UNL     1       8.222   8.724  18.037  0.00  0.00    +0.000 C 
ENDBRANCH  18  22
BRANCH  21  24
ATOM     24  O   UNL     1       4.292   4.298  16.278  0.00  0.00    +0.000 OA
ATOM     25  C   UNL     1       4.478   3.724  14.987  0.00  0.00    +0.000 C 
ENDBRANCH  21  24
ENDBRANCH   7  16
BRANCH   1  26
ATOM     26  C   UNL     1       4.541   2.881  19.859  0.00  0.00    +0.000 C 
ATOM     27  O   UNL     1       5.097   2.534  20.884  0.00  0.00    +0.000 OA
BRANCH  26  28
ATOM     28  O   UNL     1       4.537   2.221  18.670  0.00  0.00    +0.000 OA
BRANCH  28  30
ATOM     29  C   UNL     1       2.339   1.971  17.677  0.00  0.00    +0.000 C 
ATOM     30  C   UNL     1       3.431   1.318  18.489  0.00  0.00    +0.000 C 
ENDBRANCH  28  30
ENDBRANCH  26  28
ENDBRANCH   1  26
TORSDOF 6
ENDMDL
MODEL 9
REMARK VINA RESULT:      -6.3      6.036     10.026
REMARK  Name = 
REMARK  10 active torsions:
REMARK  status: ('A' for Active; 'I' for Inactive)
REMARK    1  A    between atoms: C_1  and  C_2
REMARK    2  A    between atoms: C_2  and  O_3
REMARK    3  A    between atoms: O_3  and  C_4
REMARK    4  A    between atoms: C_4  and  C_6
REMARK    5  A    between atoms: C_7  and  C_8
REMARK    6  A    between atoms: C_12  and  C_13
REMARK    7  A    between atoms: C_15  and  O_16
REMARK    8  A    between atoms: O_16  and  C_17
REMARK    9  A    between atoms: C_20  and  O_21
REMARK   10  A    between atoms: O_21  and  C_22
REMARK                            x       y       z     vdW  Elec       q    Type
REMARK                         _______ _______ _______ _____ _____    ______ ____
ROOT
ATOM      1  C   UNL     1      -2.425  12.334  21.935  0.00  0.00    +0.000 A 
ATOM      2  C   UNL     1      -3.705  12.638  22.495  0.00  0.00    +0.000 A 
ATOM      3  C   UNL     1      -3.953  12.984  23.939  0.00  0.00    +0.000 C 
ATOM      4  N   UNL     1      -4.847  12.700  21.759  0.00  0.00    +0.000 NA
ATOM      5  C   UNL     1      -4.706  12.453  20.459  0.00  0.00    +0.000 A 
ATOM      6  C   UNL     1      -3.501  12.115  19.833  0.00  0.00    +0.000 A 
ATOM      7  C   UNL     1      -2.278  12.094  20.534  0.00  0.00    +0.000 A 
ATOM      8  C   UNL     1      -3.867  11.950  18.389  0.00  0.00    +0.000 C 
ATOM      9  O   UNL     1      -3.199  11.519  17.479  0.00  0.00    +0.000 OA
ATOM     10  C   UNL     1      -5.265  12.390  18.226  0.00  0.00    +0.000 A 
ATOM     11  C   UNL     1      -5.998  12.575  17.069  0.00  0.00    +0.000 A 
ATOM     12  C   UNL     1      -7.310  13.025  17.213  0.00  0.00    +0.000 A 
ATOM     13  C   UNL     1      -7.845  13.273  18.492  0.00  0.00    +0.000 A 
ATOM     14  C   UNL     1      -7.071  13.092  19.647  0.00  0.00    +0.000 A 
ATOM     15  C   UNL     1      -5.767  12.651  19.500  0.00  0.00    +0.000 A 
ENDROOT
BRANCH   7  16
ATOM     16  C   UNL     1      -0.966  11.976  19.794  0.00  0.00    +0.000 A 
ATOM     17  C   UNL     1      -0.410  10.678  19.631  0.00  0.00    +0.000 A 
ATOM     18  C   UNL     1       0.852  10.450  19.081  0.00  0.00    +0.000 A 
ATOM     19  C   UNL     1       1.521  11.499  18.486  0.00  0.00    +0.000 A 
ATOM     20  C   UNL     1       0.980  12.783  18.547  0.00  0.00    +0.000 A 
ATOM     21  C   UNL     1      -0.217  13.050  19.244  0.00  0.00    +0.000 A 
BRANCH  18  22
ATOM     22  O   UNL     1       1.467   9.227  19.051  0.00  0.00    +0.000 OA
ATOM     23  C   UNL     1       2.167   8.970  17.832  0.00  0.00    +0.000 C 
ENDBRANCH  18  22
BRANCH  21  24
ATOM     24  O   UNL     1      -0.720  14.316  19.404  0.00  0.00    +0.000 OA
ATOM     25  C   UNL     1       0.167  15.427  19.504  0.00  0.00    +0.000 C 
ENDBRANCH  21  24
ENDBRANCH   7  16
BRANCH   1  26
ATOM     26  C   UNL     1      -1.258  12.510  22.831  0.00  0.00    +0.000 C 
ATOM     27  O   UNL     1      -0.797  11.600  23.494  0.00  0.00    +0.000 OA
BRANCH  26  28
ATOM     28  O   UNL     1      -0.720  13.746  22.657  0.00  0.00    +0.000 OA
BRANCH  28  30
ATOM     29  C   UNL     1      -1.747  15.867  23.234  0.00  0.00    +0.000 C 
ATOM     30  C   UNL     1      -0.977  14.668  23.732  0.00  0.00    +0.000 C 
ENDBRANCH  28  30
ENDBRANCH  26  28
ENDBRANCH   1  26
TORSDOF 6
ENDMDL
