MODEL 1
REMARK VINA RESULT:      -7.1      0.000      0.000
REMARK  Name = 
REMARK  11 active torsions:
REMARK  status: ('A' for Active; 'I' for Inactive)
REMARK    1  A    between atoms: C_1  and  C_2
REMARK    2  A    between atoms: C_2  and  O_3
REMARK    3  A    between atoms: O_3  and  C_4
REMARK    4  A    between atoms: C_4  and  C_6
REMARK    5  A    between atoms: C_10  and  C_11
REMARK    6  A    between atoms: C_14  and  O_15
REMARK    7  A    between atoms: O_15  and  C_16
REMARK    8  A    between atoms: C_17  and  O_18
REMARK    9  A    between atoms: O_18  and  C_19
REMARK   10  A    between atoms: C_20  and  O_21
REMARK   11  A    between atoms: O_21  and  C_22
REMARK                            x       y       z     vdW  Elec       q    Type
REMARK                         _______ _______ _______ _____ _____    ______ ____
ROOT
ATOM      1  C   UNL     1       5.145   4.761  16.571  0.00  0.00    +0.000 A 
ATOM      2  N   UNL     1       4.041   3.990  16.829  0.00  0.00    +0.000 N 
ATOM      3  C   UNL     1       3.100   4.738  17.461  0.00  0.00    +0.000 A 
ATOM      4 CL   UNL     1       1.625   3.923  17.732  0.00  0.00    +0.000 Cl
ATOM      5  C   UNL     1       3.581   6.012  17.697  0.00  0.00    +0.000 A 
ATOM      6  C   UNL     1       4.949   5.960  17.242  0.00  0.00    +0.000 A 
ATOM      7 CL   UNL     1       6.126   7.186  17.434  0.00  0.00    +0.000 Cl
ATOM      8  H   UNL     1       3.912   3.037  16.513  0.00  0.00    +0.000 HD
ENDROOT
BRANCH   5   9
ATOM      9  C   UNL     1       2.774   7.104  18.283  0.00  0.00    +0.000 A 
ATOM     10  C   UNL     1       2.442   8.189  17.458  0.00  0.00    +0.000 A 
ATOM     11  C   UNL     1       1.788   9.312  17.957  0.00  0.00    +0.000 A 
ATOM     12  C   UNL     1       1.378   9.362  19.288  0.00  0.00    +0.000 A 
ATOM     13  C   UNL     1       1.617   8.259  20.134  0.00  0.00    +0.000 A 
ATOM     14  C   UNL     1       2.352   7.140  19.644  0.00  0.00    +0.000 A 
BRANCH  12  15
ATOM     15  O   UNL     1       0.662  10.435  19.757  0.00  0.00    +0.000 OA
ATOM     16  C   UNL     1      -0.376  10.900  18.895  0.00  0.00    +0.000 C 
ENDBRANCH  12  15
BRANCH  13  17
ATOM     17  O   UNL     1       1.094   8.171  21.403  0.00  0.00    +0.000 OA
ATOM     18  C   UNL     1      -0.316   8.236  21.558  0.00  0.00    +0.000 C 
ENDBRANCH  13  17
BRANCH  14  19
ATOM     19  O   UNL     1       2.786   6.083  20.411  0.00  0.00    +0.000 OA
ATOM     20  C   UNL     1       1.867   5.110  20.890  0.00  0.00    +0.000 C 
ENDBRANCH  14  19
ENDBRANCH   5   9
BRANCH   1  21
ATOM     21  C   UNL     1       6.220   4.341  15.709  0.00  0.00    +0.000 C 
ATOM     22  O   UNL     1       7.412   4.417  15.936  0.00  0.00    +0.000 OA
BRANCH  21  23
ATOM     23  O   UNL     1       5.683   3.982  14.501  0.00  0.00    +0.000 OA
BRANCH  23  25
ATOM     24  C   UNL     1       6.010   3.285  12.244  0.00  0.00    +0.000 C 
ATOM     25  C   UNL     1       6.564   4.130  13.379  0.00  0.00    +0.000 C 
ENDBRANCH  23  25
ENDBRANCH  21  23
ENDBRANCH   1  21
TORSDOF 7
ENDMDL
MODEL 2
REMARK VINA RESULT:      -7.0      3.408      6.818
REMARK  Name = 
REMARK  11 active torsions:
REMARK  status: ('A' for Active; 'I' for Inactive)
REMARK    1  A    between atoms: C_1  and  C_2
REMARK    2  A    between atoms: C_2  and  O_3
REMARK    3  A    between atoms: O_3  and  C_4
REMARK    4  A    between atoms: C_4  and  C_6
REMARK    5  A    between atoms: C_10  and  C_11
REMARK    6  A    between atoms: C_14  and  O_15
REMARK    7  A    between atoms: O_15  and  C_16
REMARK    8  A    between atoms: C_17  and  O_18
REMARK    9  A    between atoms: O_18  and  C_19
REMARK   10  A    between atoms: C_20  and  O_21
REMARK   11  A    between atoms: O_21  and  C_22
REMARK                            x       y       z     vdW  Elec       q    Type
REMARK                         _______ _______ _______ _____ _____    ______ ____
ROOT
ATOM      1  C   UNL     1       1.840   3.610  18.649  0.00  0.00    +0.000 A 
ATOM      2  N   UNL     1       1.707   4.972  18.723  0.00  0.00    +0.000 N 
ATOM      3  C   UNL     1       2.725   5.568  18.051  0.00  0.00    +0.000 A 
ATOM      4 CL   UNL     1       2.608   7.268  17.967  0.00  0.00    +0.000 Cl
ATOM      5  C   UNL     1       3.599   4.615  17.565  0.00  0.00    +0.000 A 
ATOM      6  C   UNL     1       3.085   3.370  18.083  0.00  0.00    +0.000 A 
ATOM      7 CL   UNL     1       3.839   1.840  17.973  0.00  0.00    +0.000 Cl
ATOM      8  H   UNL     1       0.919   5.456  19.136  0.00  0.00    +0.000 HD
ENDROOT
BRANCH   5   9
ATOM      9  C   UNL     1       4.764   4.922  16.706  0.00  0.00    +0.000 A 
ATOM     10  C   UNL     1       4.768   4.413  15.399  0.00  0.00    +0.000 A 
ATOM     11  C   UNL     1       5.872   4.554  14.564  0.00  0.00    +0.000 A 
ATOM     12  C   UNL     1       6.991   5.273  14.981  0.00  0.00    +0.000 A 
ATOM     13  C   UNL     1       6.998   5.874  16.257  0.00  0.00    +0.000 A 
ATOM     14  C   UNL     1       5.899   5.667  17.141  0.00  0.00    +0.000 A 
BRANCH  12  15
ATOM     15  O   UNL     1       8.045   5.480  14.127  0.00  0.00    +0.000 OA
ATOM     16  C   UNL     1       7.782   5.194  12.754  0.00  0.00    +0.000 C 
ENDBRANCH  12  15
BRANCH  13  17
ATOM     17  O   UNL     1       7.991   6.733  16.666  0.00  0.00    +0.000 OA
ATOM     18  C   UNL     1       7.614   7.966  17.261  0.00  0.00    +0.000 C 
ENDBRANCH  13  17
BRANCH  14  19
ATOM     19  O   UNL     1       5.861   6.061  18.459  0.00  0.00    +0.000 OA
ATOM     20  C   UNL     1       6.542   5.315  19.459  0.00  0.00    +0.000 C 
ENDBRANCH  14  19
ENDBRANCH   5   9
BRANCH   1  21
ATOM     21  C   UNL     1       0.807   2.690  19.051  0.00  0.00    +0.000 C 
ATOM     22  O   UNL     1       0.154   1.962  18.328  0.00  0.00    +0.000 OA
BRANCH  21  23
ATOM     23  O   UNL     1       0.559   2.884  20.384  0.00  0.00    +0.000 OA
BRANCH  23  25
ATOM     24  C   UNL     1       2.260   3.616  21.888  0.00  0.00    +0.000 C 
ATOM     25  C   UNL     1       1.583   2.405  21.267  0.00  0.00    +0.000 C 
ENDBRANCH  23  25
ENDBRANCH  21  23
ENDBRANCH   1  21
TORSDOF 7
ENDMDL
MODEL 3
REMARK VINA RESULT:      -6.3      3.352      6.662
REMARK  Name = 
REMARK  11 active torsions:
REMARK  status: ('A' for Active; 'I' for Inactive)
REMARK    1  A    between atoms: C_1  and  C_2
REMARK    2  A    between atoms: C_2  and  O_3
REMARK    3  A    between atoms: O_3  and  C_4
REMARK    4  A    between atoms: C_4  and  C_6
REMARK    5  A    between atoms: C_10  and  C_11
REMARK    6  A    between atoms: C_14  and  O_15
REMARK    7  A    between atoms: O_15  and  C_16
REMARK    8  A    between atoms: C_17  and  O_18
REMARK    9  A    between atoms: O_18  and  C_19
REMARK   10  A    between atoms: C_20  and  O_21
REMARK   11  A    between atoms: O_21  and  C_22
REMARK                            x       y       z     vdW  Elec       q    Type
REMARK                         _______ _______ _______ _____ _____    ______ ____
ROOT
ATOM      1  C   UNL     1       2.655   4.132  20.523  0.00  0.00    +0.000 A 
ATOM      2  N   UNL     1       2.277   5.419  20.242  0.00  0.00    +0.000 N 
ATOM      3  C   UNL     1       2.996   5.887  19.190  0.00  0.00    +0.000 A 
ATOM      4 CL   UNL     1       2.535   7.443  18.664  0.00  0.00    +0.000 Cl
ATOM      5  C   UNL     1       3.918   4.941  18.783  0.00  0.00    +0.000 A 
ATOM      6  C   UNL     1       3.776   3.876  19.745  0.00  0.00    +0.000 A 
ATOM      7 CL   UNL     1       4.774   2.494  19.879  0.00  0.00    +0.000 Cl
ATOM      8  H   UNL     1       1.514   5.910  20.691  0.00  0.00    +0.000 HD
ENDROOT
BRANCH   5   9
ATOM      9  C   UNL     1       4.794   5.096  17.601  0.00  0.00    +0.000 A 
ATOM     10  C   UNL     1       4.386   4.501  16.399  0.00  0.00    +0.000 A 
ATOM     11  C   UNL     1       5.202   4.497  15.271  0.00  0.00    +0.000 A 
ATOM     12  C   UNL     1       6.433   5.151  15.284  0.00  0.00    +0.000 A 
ATOM     13  C   UNL     1       6.849   5.834  16.446  0.00  0.00    +0.000 A 
ATOM     14  C   UNL     1       6.047   5.776  17.624  0.00  0.00    +0.000 A 
BRANCH  12  15
ATOM     15  O   UNL     1       7.199   5.215  14.147  0.00  0.00    +0.000 OA
ATOM     16  C   UNL     1       6.824   4.313  13.107  0.00  0.00    +0.000 C 
ENDBRANCH  12  15
BRANCH  13  17
ATOM     17  O   UNL     1       7.965   6.637  16.474  0.00  0.00    +0.000 OA
ATOM     18  C   UNL     1       7.879   7.889  17.138  0.00  0.00    +0.000 C 
ENDBRANCH  13  17
BRANCH  14  19
ATOM     19  O   UNL     1       6.420   6.260  18.857  0.00  0.00    +0.000 OA
ATOM     20  C   UNL     1       7.349   5.549  19.664  0.00  0.00    +0.000 C 
ENDBRANCH  14  19
ENDBRANCH   5   9
BRANCH   1  21
ATOM     21  C   UNL     1       1.929   3.271  21.421  0.00  0.00    +0.000 C 
ATOM     22  O   UNL     1       2.289   2.887  22.518  0.00  0.00    +0.000 OA
BRANCH  21  23
ATOM     23  O   UNL     1       0.815   2.814  20.767  0.00  0.00    +0.000 OA
BRANCH  23  25
ATOM     24  C   UNL     1       0.631   2.611  18.398  0.00  0.00    +0.000 C 
ATOM     25  C   UNL     1       1.077   1.921  19.677  0.00  0.00    +0.000 C 
ENDBRANCH  23  25
ENDBRANCH  21  23
ENDBRANCH   1  21
TORSDOF 7
ENDMDL
MODEL 4
REMARK VINA RESULT:      -6.2      2.077      2.926
REMARK  Name = 
REMARK  11 active torsions:
REMARK  status: ('A' for Active; 'I' for Inactive)
REMARK    1  A    between atoms: C_1  and  C_2
REMARK    2  A    between atoms: C_2  and  O_3
REMARK    3  A    between atoms: O_3  and  C_4
REMARK    4  A    between atoms: C_4  and  C_6
REMARK    5  A    between atoms: C_10  and  C_11
REMARK    6  A    between atoms: C_14  and  O_15
REMARK    7  A    between atoms: O_15  and  C_16
REMARK    8  A    between atoms: C_17  and  O_18
REMARK    9  A    between atoms: O_18  and  C_19
REMARK   10  A    between atoms: C_20  and  O_21
REMARK   11  A    between atoms: O_21  and  C_22
REMARK                            x       y       z     vdW  Elec       q    Type
REMARK                         _______ _______ _______ _____ _____    ______ ____
ROOT
ATOM      1  C   UNL     1       6.760   5.382  15.443  0.00  0.00    +0.000 A 
ATOM      2  N   UNL     1       7.433   5.182  16.620  0.00  0.00    +0.000 N 
ATOM      3  C   UNL     1       6.613   5.453  17.667  0.00  0.00    +0.000 A 
ATOM      4 CL   UNL     1       7.298   5.126  19.196  0.00  0.00    +0.000 Cl
ATOM      5  C   UNL     1       5.389   5.903  17.211  0.00  0.00    +0.000 A 
ATOM      6  C   UNL     1       5.555   5.984  15.780  0.00  0.00    +0.000 A 
ATOM      7 CL   UNL     1       4.440   6.648  14.667  0.00  0.00    +0.000 Cl
ATOM      8  H   UNL     1       8.368   4.801  16.696  0.00  0.00    +0.000 HD
ENDROOT
BRANCH   5   9
ATOM      9  C   UNL     1       4.235   6.196  18.090  0.00  0.00    +0.000 A 
ATOM     10  C   UNL     1       3.620   7.450  17.969  0.00  0.00    +0.000 A 
ATOM     11  C   UNL     1       2.606   7.853  18.833  0.00  0.00    +0.000 A 
ATOM     12  C   UNL     1       2.120   6.986  19.810  0.00  0.00    +0.000 A 
ATOM     13  C   UNL     1       2.652   5.684  19.916  0.00  0.00    +0.000 A 
ATOM     14  C   UNL     1       3.741   5.297  19.080  0.00  0.00    +0.000 A 
BRANCH  12  15
ATOM     15  O   UNL     1       1.066   7.355  20.608  0.00  0.00    +0.000 OA
ATOM     16  C   UNL     1       1.060   8.722  21.016  0.00  0.00    +0.000 C 
ENDBRANCH  12  15
BRANCH  13  17
ATOM     17  O   UNL     1       2.109   4.725  20.738  0.00  0.00    +0.000 OA
ATOM     18  C   UNL     1       0.957   4.025  20.290  0.00  0.00    +0.000 C 
ENDBRANCH  13  17
BRANCH  14  19
ATOM     19  O   UNL     1       4.447   4.121  19.197  0.00  0.00    +0.000 OA
ATOM     20  C   UNL     1       3.985   2.933  18.569  0.00  0.00    +0.000 C 
ENDBRANCH  14  19
ENDBRANCH   5   9
BRANCH   1  21
ATOM     21  C   UNL     1       7.264   4.961  14.161  0.00  0.00    +0.000 C 
ATOM     22  O   UNL     1       8.043   5.564  13.447  0.00  0.00    +0.000 OA
BRANCH  21  23
ATOM     23  O   UNL     1       6.592   3.827  13.790  0.00  0.00    +0.000 OA
BRANCH  23  25
ATOM     24  C   UNL     1       5.020   3.464  12.034  0.00  0.00    +0.000 C 
ATOM     25  C   UNL     1       6.493   3.616  12.375  0.00  0.00    +0.000 C 
ENDBRANCH  23  25
ENDBRANCH  21  23
ENDBRANCH   1  21
TORSDOF 7
ENDMDL
MODEL 5
REMARK VINA RESULT:      -6.1      1.084      1.724
REMARK  Name = 
REMARK  11 active torsions:
REMARK  status: ('A' for Active; 'I' for Inactive)
REMARK    1  A    between atoms: C_1  and  C_2
REMARK    2  A    between atoms: C_2  and  O_3
REMARK    3  A    between atoms: O_3  and  C_4
REMARK    4  A    between atoms: C_4  and  C_6
REMARK    5  A    between atoms: C_10  and  C_11
REMARK    6  A    between atoms: C_14  and  O_15
REMARK    7  A    between atoms: O_15  and  C_16
REMARK    8  A    between atoms: C_17  and  O_18
REMARK    9  A    between atoms: O_18  and  C_19
REMARK   10  A    between atoms: C_20  and  O_21
REMARK   11  A    between atoms: O_21  and  C_22
REMARK                            x       y       z     vdW  Elec       q    Type
REMARK                         _______ _______ _______ _____ _____    ______ ____
ROOT
ATOM      1  C   UNL     1       4.617   4.860  16.511  0.00  0.00    +0.000 A 
ATOM      2  N   UNL     1       3.559   4.084  16.906  0.00  0.00    +0.000 N 
ATOM      3  C   UNL     1       2.674   4.839  17.606  0.00  0.00    +0.000 A 
ATOM      4 CL   UNL     1       1.250   4.012  18.054  0.00  0.00    +0.000 Cl
ATOM      5  C   UNL     1       3.153   6.127  17.748  0.00  0.00    +0.000 A 
ATOM      6  C   UNL     1       4.469   6.080  17.158  0.00  0.00    +0.000 A 
ATOM      7 CL   UNL     1       5.636   7.329  17.186  0.00  0.00    +0.000 Cl
ATOM      8  H   UNL     1       3.416   3.118  16.637  0.00  0.00    +0.000 HD
ENDROOT
BRANCH   5   9
ATOM      9  C   UNL     1       2.390   7.228  18.376  0.00  0.00    +0.000 A 
ATOM     10  C   UNL     1       2.003   8.305  17.565  0.00  0.00    +0.000 A 
ATOM     11  C   UNL     1       1.387   9.434  18.095  0.00  0.00    +0.000 A 
ATOM     12  C   UNL     1       1.070   9.500  19.452  0.00  0.00    +0.000 A 
ATOM     13  C   UNL     1       1.366   8.405  20.291  0.00  0.00    +0.000 A 
ATOM     14  C   UNL     1       2.064   7.279  19.763  0.00  0.00    +0.000 A 
BRANCH  12  15
ATOM     15  O   UNL     1       0.390  10.579  19.957  0.00  0.00    +0.000 OA
ATOM     16  C   UNL     1      -0.922  10.774  19.432  0.00  0.00    +0.000 C 
ENDBRANCH  12  15
BRANCH  13  17
ATOM     17  O   UNL     1       0.932   8.332  21.594  0.00  0.00    +0.000 OA
ATOM     18  C   UNL     1       1.516   9.206  22.549  0.00  0.00    +0.000 C 
ENDBRANCH  13  17
BRANCH  14  19
ATOM     19  O   UNL     1       2.549   6.230  20.510  0.00  0.00    +0.000 OA
ATOM     20  C   UNL     1       1.670   5.232  21.013  0.00  0.00    +0.000 C 
ENDBRANCH  14  19
ENDBRANCH   5   9
BRANCH   1  21
ATOM     21  C   UNL     1       5.606   4.426  15.558  0.00  0.00    +0.000 C 
ATOM     22  O   UNL     1       5.522   4.470  14.345  0.00  0.00    +0.000 OA
BRANCH  21  23
ATOM     23  O   UNL     1       6.610   3.796  16.243  0.00  0.00    +0.000 OA
BRANCH  23  25
ATOM     24  C   UNL     1       7.780   4.635  18.144  0.00  0.00    +0.000 C 
ATOM     25  C   UNL     1       7.705   4.640  16.626  0.00  0.00    +0.000 C 
ENDBRANCH  23  25
ENDBRANCH  21  23
ENDBRANCH   1  21
TORSDOF 7
ENDMDL
MODEL 6
REMARK VINA RESULT:      -6.1      2.366      4.251
REMARK  Name = 
REMARK  11 active torsions:
REMARK  status: ('A' for Active; 'I' for Inactive)
REMARK    1  A    between atoms: C_1  and  C_2
REMARK    2  A    between atoms: C_2  and  O_3
REMARK    3  A    between atoms: O_3  and  C_4
REMARK    4  A    between atoms: C_4  and  C_6
REMARK    5  A    between atoms: C_10  and  C_11
REMARK    6  A    between atoms: C_14  and  O_15
REMARK    7  A    between atoms: O_15  and  C_16
REMARK    8  A    between atoms: C_17  and  O_18
REMARK    9  A    between atoms: O_18  and  C_19
REMARK   10  A    between atoms: C_20  and  O_21
REMARK   11  A    between atoms: O_21  and  C_22
REMARK                            x       y       z     vdW  Elec       q    Type
REMARK                         _______ _______ _______ _____ _____    ______ ____
ROOT
ATOM      1  C   UNL     1       6.761   5.240  15.122  0.00  0.00    +0.000 A 
ATOM      2  N   UNL     1       7.450   5.992  16.038  0.00  0.00    +0.000 N 
ATOM      3  C   UNL     1       6.814   5.946  17.237  0.00  0.00    +0.000 A 
ATOM      4 CL   UNL     1       7.638   6.750  18.497  0.00  0.00    +0.000 Cl
ATOM      5  C   UNL     1       5.649   5.211  17.133  0.00  0.00    +0.000 A 
ATOM      6  C   UNL     1       5.564   4.885  15.729  0.00  0.00    +0.000 A 
ATOM      7 CL   UNL     1       4.245   4.134  14.943  0.00  0.00    +0.000 Cl
ATOM      8  H   UNL     1       8.343   6.436  15.869  0.00  0.00    +0.000 HD
ENDROOT
BRANCH   5   9
ATOM      9  C   UNL     1       4.770   4.887  18.277  0.00  0.00    +0.000 A 
ATOM     10  C   UNL     1       5.175   3.864  19.147  0.00  0.00    +0.000 A 
ATOM     11  C   UNL     1       4.356   3.415  20.179  0.00  0.00    +0.000 A 
ATOM     12  C   UNL     1       3.126   4.024  20.425  0.00  0.00    +0.000 A 
ATOM     13  C   UNL     1       2.714   5.112  19.628  0.00  0.00    +0.000 A 
ATOM     14  C   UNL     1       3.518   5.523  18.524  0.00  0.00    +0.000 A 
BRANCH  12  15
ATOM     15  O   UNL     1       2.358   3.634  21.493  0.00  0.00    +0.000 OA
ATOM     16  C   UNL     1       1.382   2.633  21.209  0.00  0.00    +0.000 C 
ENDBRANCH  12  15
BRANCH  13  17
ATOM     17  O   UNL     1       1.600   5.863  19.919  0.00  0.00    +0.000 OA
ATOM     18  C   UNL     1       1.736   6.954  20.818  0.00  0.00    +0.000 C 
ENDBRANCH  13  17
BRANCH  14  19
ATOM     19  O   UNL     1       3.149   6.457  17.583  0.00  0.00    +0.000 OA
ATOM     20  C   UNL     1       3.356   7.844  17.819  0.00  0.00    +0.000 C 
ENDBRANCH  14  19
ENDBRANCH   5   9
BRANCH   1  21
ATOM     21  C   UNL     1       7.289   4.888  13.829  0.00  0.00    +0.000 C 
ATOM     22  O   UNL     1       8.064   5.539  13.154  0.00  0.00    +0.000 OA
BRANCH  21  23
ATOM     23  O   UNL     1       6.644   3.760  13.397  0.00  0.00    +0.000 OA
BRANCH  23  25
ATOM     24  C   UNL     1       5.815   2.334  11.675  0.00  0.00    +0.000 C 
ATOM     25  C   UNL     1       6.670   3.553  11.978  0.00  0.00    +0.000 C 
ENDBRANCH  23  25
ENDBRANCH  21  23
ENDBRANCH   1  21
TORSDOF 7
ENDMDL
MODEL 7
REMARK VINA RESULT:      -5.9      2.404      7.339
REMARK  Name = 
REMARK  11 active torsions:
REMARK  status: ('A' for Active; 'I' for Inactive)
REMARK    1  A    between atoms: C_1  and  C_2
REMARK    2  A    between atoms: C_2  and  O_3
REMARK    3  A    between atoms: O_3  and  C_4
REMARK    4  A    between atoms: C_4  and  C_6
REMARK    5  A    between atoms: C_10  and  C_11
REMARK    6  A    between atoms: C_14  and  O_15
REMARK    7  A    between atoms: O_15  and  C_16
REMARK    8  A    between atoms: C_17  and  O_18
REMARK    9  A    between atoms: O_18  and  C_19
REMARK   10  A    between atoms: C_20  and  O_21
REMARK   11  A    between atoms: O_21  and  C_22
REMARK                            x       y       z     vdW  Elec       q    Type
REMARK                         _______ _______ _______ _____ _____    ______ ____
ROOT
ATOM      1  C   UNL     1       1.500   8.244  20.349  0.00  0.00    +0.000 A 
ATOM      2  N   UNL     1       1.463   7.138  21.158  0.00  0.00    +0.000 N 
ATOM      3  C   UNL     1       2.134   6.117  20.567  0.00  0.00    +0.000 A 
ATOM      4 CL   UNL     1       2.262   4.714  21.530  0.00  0.00    +0.000 Cl
ATOM      5  C   UNL     1       2.583   6.500  19.317  0.00  0.00    +0.000 A 
ATOM      6  C   UNL     1       2.042   7.825  19.141  0.00  0.00    +0.000 A 
ATOM      7 CL   UNL     1       2.102   8.761  17.711  0.00  0.00    +0.000 Cl
ATOM      8  H   UNL     1       1.074   7.116  22.092  0.00  0.00    +0.000 HD
ENDROOT
BRANCH   5   9
ATOM      9  C   UNL     1       3.432   5.655  18.449  0.00  0.00    +0.000 A 
ATOM     10  C   UNL     1       4.522   6.261  17.807  0.00  0.00    +0.000 A 
ATOM     11  C   UNL     1       5.302   5.571  16.883  0.00  0.00    +0.000 A 
ATOM     12  C   UNL     1       5.063   4.224  16.618  0.00  0.00    +0.000 A 
ATOM     13  C   UNL     1       4.030   3.550  17.303  0.00  0.00    +0.000 A 
ATOM     14  C   UNL     1       3.184   4.275  18.193  0.00  0.00    +0.000 A 
BRANCH  12  15
ATOM     15  O   UNL     1       5.883   3.525  15.769  0.00  0.00    +0.000 OA
ATOM     16  C   UNL     1       6.076   4.115  14.484  0.00  0.00    +0.000 C 
ENDBRANCH  12  15
BRANCH  13  17
ATOM     17  O   UNL     1       3.848   2.190  17.218  0.00  0.00    +0.000 OA
ATOM     18  C   UNL     1       3.925   1.423  18.410  0.00  0.00    +0.000 C 
ENDBRANCH  13  17
BRANCH  14  19
ATOM     19  O   UNL     1       2.051   3.771  18.791  0.00  0.00    +0.000 OA
ATOM     20  C   UNL     1       0.865   3.564  18.036  0.00  0.00    +0.000 C 
ENDBRANCH  14  19
ENDBRANCH   5   9
BRANCH   1  21
ATOM     21  C   UNL     1       1.090   9.555  20.781  0.00  0.00    +0.000 C 
ATOM     22  O   UNL     1       0.921  10.536  20.081  0.00  0.00    +0.000 OA
BRANCH  21  23
ATOM     23  O   UNL     1       1.075   9.568  22.150  0.00  0.00    +0.000 OA
BRANCH  23  25
ATOM     24  C   UNL     1      -0.814  10.774  22.964  0.00  0.00    +0.000 C 
ATOM     25  C   UNL     1      -0.219   9.393  22.744  0.00  0.00    +0.000 C 
ENDBRANCH  23  25
ENDBRANCH  21  23
ENDBRANCH   1  21
TORSDOF 7
ENDMDL
MODEL 8
REMARK VINA RESULT:      -5.8      3.505      6.816
REMARK  Name = 
REMARK  11 active torsions:
REMARK  status: ('A' for Active; 'I' for Inactive)
REMARK    1  A    between atoms: C_1  and  C_2
REMARK    2  A    between atoms: C_2  and  O_3
REMARK    3  A    between atoms: O_3  and  C_4
REMARK    4  A    between atoms: C_4  and  C_6
REMARK    5  A    between atoms: C_10  and  C_11
REMARK    6  A    between atoms: C_14  and  O_15
REMARK    7  A    between atoms: O_15  and  C_16
REMARK    8  A    between atoms: C_17  and  O_18
REMARK    9  A    between atoms: O_18  and  C_19
REMARK   10  A    between atoms: C_20  and  O_21
REMARK   11  A    between atoms: O_21  and  C_22
REMARK                            x       y       z     vdW  Elec       q    Type
REMARK                         _______ _______ _______ _____ _____    ______ ____
ROOT
ATOM      1  C   UNL     1       1.905   3.431  18.745  0.00  0.00    +0.000 A 
ATOM      2  N   UNL     1       2.497   2.222  18.487  0.00  0.00    +0.000 N 
ATOM      3  C   UNL     1       3.587   2.406  17.700  0.00  0.00    +0.000 A 
ATOM      4 CL   UNL     1       4.483   0.984  17.403  0.00  0.00    +0.000 Cl
ATOM      5  C   UNL     1       3.713   3.740  17.361  0.00  0.00    +0.000 A 
ATOM      6  C   UNL     1       2.539   4.358  17.929  0.00  0.00    +0.000 A 
ATOM      7 CL   UNL     1       2.034   5.975  17.696  0.00  0.00    +0.000 Cl
ATOM      8  H   UNL     1       2.216   1.340  18.897  0.00  0.00    +0.000 HD
ENDROOT
BRANCH   5   9
ATOM      9  C   UNL     1       4.847   4.294  16.591  0.00  0.00    +0.000 A 
ATOM     10  C   UNL     1       5.012   3.867  15.265  0.00  0.00    +0.000 A 
ATOM     11  C   UNL     1       6.116   4.247  14.507  0.00  0.00    +0.000 A 
ATOM     12  C   UNL     1       7.064   5.127  15.026  0.00  0.00    +0.000 A 
ATOM     13  C   UNL     1       6.897   5.648  16.326  0.00  0.00    +0.000 A 
ATOM     14  C   UNL     1       5.806   5.202  17.129  0.00  0.00    +0.000 A 
BRANCH  12  15
ATOM     15  O   UNL     1       8.108   5.563  14.248  0.00  0.00    +0.000 OA
ATOM     16  C   UNL     1       7.944   5.373  12.844  0.00  0.00    +0.000 C 
ENDBRANCH  12  15
BRANCH  13  17
ATOM     17  O   UNL     1       7.697   6.644  16.834  0.00  0.00    +0.000 OA
ATOM     18  C   UNL     1       7.086   7.864  17.230  0.00  0.00    +0.000 C 
ENDBRANCH  13  17
BRANCH  14  19
ATOM     19  O   UNL     1       5.628   5.509  18.459  0.00  0.00    +0.000 OA
ATOM     20  C   UNL     1       6.496   4.974  19.449  0.00  0.00    +0.000 C 
ENDBRANCH  14  19
ENDBRANCH   5   9
BRANCH   1  21
ATOM     21  C   UNL     1       0.873   3.613  19.734  0.00  0.00    +0.000 C 
ATOM     22  O   UNL     1      -0.234   3.109  19.737  0.00  0.00    +0.000 OA
BRANCH  21  23
ATOM     23  O   UNL     1       1.283   4.588  20.604  0.00  0.00    +0.000 OA
BRANCH  23  25
ATOM     24  C   UNL     1       2.064   2.849  22.037  0.00  0.00    +0.000 C 
ATOM     25  C   UNL     1       2.376   4.219  21.456  0.00  0.00    +0.000 C 
ENDBRANCH  23  25
ENDBRANCH  21  23
ENDBRANCH   1  21
TORSDOF 7
ENDMDL
MODEL 9
REMARK VINA RESULT:      -5.8      2.353      7.073
REMARK  Name = 
REMARK  11 active torsions:
REMARK  status: ('A' for Active; 'I' for Inactive)
REMARK    1  A    between atoms: C_1  and  C_2
REMARK    2  A    between atoms: C_2  and  O_3
REMARK    3  A    between atoms: O_3  and  C_4
REMARK    4  A    between atoms: C_4  and  C_6
REMARK    5  A    between atoms: C_10  and  C_11
REMARK    6  A    between atoms: C_14  and  O_15
REMARK    7  A    between atoms: O_15  and  C_16
REMARK    8  A    between atoms: C_17  and  O_18
REMARK    9  A    between atoms: O_18  and  C_19
REMARK   10  A    between atoms: C_20  and  O_21
REMARK   11  A    between atoms: O_21  and  C_22
REMARK                            x       y       z     vdW  Elec       q    Type
REMARK                         _______ _______ _______ _____ _____    ______ ____
ROOT
ATOM      1  C   UNL     1       1.424   8.138  20.450  0.00  0.00    +0.000 A 
ATOM      2  N   UNL     1       1.415   7.019  21.240  0.00  0.00    +0.000 N 
ATOM      3  C   UNL     1       2.108   6.023  20.630  0.00  0.00    +0.000 A 
ATOM      4 CL   UNL     1       2.271   4.608  21.569  0.00  0.00    +0.000 Cl
ATOM      5  C   UNL     1       2.543   6.437  19.386  0.00  0.00    +0.000 A 
ATOM      6  C   UNL     1       1.970   7.752  19.233  0.00  0.00    +0.000 A 
ATOM      7 CL   UNL     1       2.004   8.713  17.819  0.00  0.00    +0.000 Cl
ATOM      8  H   UNL     1       1.030   6.972  22.175  0.00  0.00    +0.000 HD
ENDROOT
BRANCH   5   9
ATOM      9  C   UNL     1       3.408   5.627  18.501  0.00  0.00    +0.000 A 
ATOM     10  C   UNL     1       4.487   6.266  17.873  0.00  0.00    +0.000 A 
ATOM     11  C   UNL     1       5.280   5.610  16.936  0.00  0.00    +0.000 A 
ATOM     12  C   UNL     1       5.066   4.264  16.642  0.00  0.00    +0.000 A 
ATOM     13  C   UNL     1       4.044   3.558  17.310  0.00  0.00    +0.000 A 
ATOM     14  C   UNL     1       3.184   4.248  18.215  0.00  0.00    +0.000 A 
BRANCH  12  15
ATOM     15  O   UNL     1       5.900   3.599  15.779  0.00  0.00    +0.000 OA
ATOM     16  C   UNL     1       6.326   4.349  14.642  0.00  0.00    +0.000 C 
ENDBRANCH  12  15
BRANCH  13  17
ATOM     17  O   UNL     1       3.887   2.197  17.195  0.00  0.00    +0.000 OA
ATOM     18  C   UNL     1       3.934   1.410  18.376  0.00  0.00    +0.000 C 
ENDBRANCH  13  17
BRANCH  14  19
ATOM     19  O   UNL     1       2.060   3.711  18.799  0.00  0.00    +0.000 OA
ATOM     20  C   UNL     1       0.868   3.531  18.046  0.00  0.00    +0.000 C 
ENDBRANCH  14  19
ENDBRANCH   5   9
BRANCH   1  21
ATOM     21  C   UNL     1       0.986   9.433  20.905  0.00  0.00    +0.000 C 
ATOM     22  O   UNL     1       1.506  10.122  21.761  0.00  0.00    +0.000 OA
BRANCH  21  23
ATOM     23  O   UNL     1      -0.226   9.701  20.324  0.00  0.00    +0.000 OA
BRANCH  23  25
ATOM     24  C   UNL     1      -0.512  11.306  18.584  0.00  0.00    +0.000 C 
ATOM     25  C   UNL     1      -0.489  11.091  20.088  0.00  0.00    +0.000 C 
ENDBRANCH  23  25
ENDBRANCH  21  23
ENDBRANCH   1  21
TORSDOF 7
ENDMDL
