MODEL 1
REMARK VINA RESULT:      -7.7      0.000      0.000
REMARK  Name = 
REMARK  5 active torsions:
REMARK  status: ('A' for Active; 'I' for Inactive)
REMARK    1  A    between atoms: C_1  and  C_2
REMARK    2  A    between atoms: C_5  and  C_6
REMARK    3  A    between atoms: C_6  and  N_7
REMARK    4  A    between atoms: C_10  and  N_11
REMARK    5  A    between atoms: N_14  and  C_15
REMARK                            x       y       z     vdW  Elec       q    Type
REMARK                         _______ _______ _______ _____ _____    ______ ____
ROOT
ATOM      1  N   UNL     1       1.767   7.532  20.880  0.00  0.00    +0.000 N 
ATOM      2  C   UNL     1       2.018   6.234  20.393  0.00  0.00    +0.000 A 
ATOM      3  C   UNL     1       3.089   6.062  19.539  0.00  0.00    +0.000 A 
ATOM      4  C   UNL     1       3.337   4.795  19.048  0.00  0.00    +0.000 A 
ATOM      5  N   UNL     1       2.574   3.765  19.449  0.00  0.00    +0.000 NA
ATOM      6  C   UNL     1       1.615   4.003  20.342  0.00  0.00    +0.000 A 
ATOM      7  N   UNL     1       0.919   2.913  20.830  0.00  0.00    +0.000 N 
ATOM      8  N   UNL     1       1.274   5.203  20.804  0.00  0.00    +0.000 NA
ATOM      9  H   UNL     1       2.459   7.734  21.601  0.00  0.00    +0.000 HD
ATOM     10  H   UNL     1       0.958   2.156  20.164  0.00  0.00    +0.000 HD
ATOM     11  H   UNL     1       0.015   3.203  21.174  0.00  0.00    +0.000 HD
ENDROOT
BRANCH   4  12
ATOM     12  N   UNL     1       4.379   4.521  18.190  0.00  0.00    +0.000 N 
ATOM     13  C   UNL     1       5.732   4.974  18.541  0.00  0.00    +0.000 C 
ATOM     14  C   UNL     1       6.493   5.425  17.273  0.00  0.00    +0.000 C 
ATOM     15  N   UNL     1       6.496   4.397  16.205  0.00  0.00    +0.000 NA
ATOM     16  C   UNL     1       7.173   4.902  15.012  0.00  0.00    +0.000 C 
ATOM     17  C   UNL     1       5.099   4.027  15.890  0.00  0.00    +0.000 C 
ATOM     18  C   UNL     1       4.318   3.520  17.126  0.00  0.00    +0.000 C 
ENDBRANCH   4  12
BRANCH   1  19
ATOM     19  C   UNL     1       0.413   7.724  21.384  0.00  0.00    +0.000 C 
BRANCH  19  24
ATOM     20  C   UNL     1      -0.686  13.376  22.332  0.00  0.00    +0.000 C 
ATOM     21  C   UNL     1      -0.381  11.929  22.085  0.00  0.00    +0.000 A 
ATOM     22  C   UNL     1       0.360  11.527  20.971  0.00  0.00    +0.000 A 
ATOM     23  C   UNL     1       0.624  10.173  20.745  0.00  0.00    +0.000 A 
ATOM     24  C   UNL     1       0.164   9.198  21.641  0.00  0.00    +0.000 A 
ATOM     25  C   UNL     1      -0.583   9.604  22.752  0.00  0.00    +0.000 A 
ATOM     26  C   UNL     1      -0.851  10.955  22.976  0.00  0.00    +0.000 A 
ENDBRANCH  19  24
ENDBRANCH   1  19
TORSDOF 3
ENDMDL
MODEL 2
REMARK VINA RESULT:      -7.7      0.161      1.017
REMARK  Name = 
REMARK  5 active torsions:
REMARK  status: ('A' for Active; 'I' for Inactive)
REMARK    1  A    between atoms: C_1  and  C_2
REMARK    2  A    between atoms: C_5  and  C_6
REMARK    3  A    between atoms: C_6  and  N_7
REMARK    4  A    between atoms: C_10  and  N_11
REMARK    5  A    between atoms: N_14  and  C_15
REMARK                            x       y       z     vdW  Elec       q    Type
REMARK                         _______ _______ _______ _____ _____    ______ ____
ROOT
ATOM      1  N   UNL     1       1.773   7.534  20.854  0.00  0.00    +0.000 N 
ATOM      2  C   UNL     1       2.029   6.220  20.414  0.00  0.00    +0.000 A 
ATOM      3  C   UNL     1       3.073   6.028  19.531  0.00  0.00    +0.000 A 
ATOM      4  C   UNL     1       3.325   4.745  19.085  0.00  0.00    +0.000 A 
ATOM      5  N   UNL     1       2.594   3.722  19.556  0.00  0.00    +0.000 NA
ATOM      6  C   UNL     1       1.662   3.983  20.471  0.00  0.00    +0.000 A 
ATOM      7  N   UNL     1       1.002   2.904  21.029  0.00  0.00    +0.000 N 
ATOM      8  N   UNL     1       1.317   5.196  20.894  0.00  0.00    +0.000 NA
ATOM      9  H   UNL     1       2.486   7.778  21.541  0.00  0.00    +0.000 HD
ATOM     10  H   UNL     1       1.031   2.120  20.395  0.00  0.00    +0.000 HD
ATOM     11  H   UNL     1       0.106   3.195  21.393  0.00  0.00    +0.000 HD
ENDROOT
BRANCH   4  12
ATOM     12  N   UNL     1       4.341   4.451  18.204  0.00  0.00    +0.000 N 
ATOM     13  C   UNL     1       5.734   4.659  18.622  0.00  0.00    +0.000 C 
ATOM     14  C   UNL     1       6.581   5.171  17.435  0.00  0.00    +0.000 C 
ATOM     15  N   UNL     1       6.471   4.310  16.233  0.00  0.00    +0.000 NA
ATOM     16  C   UNL     1       7.240   4.876  15.127  0.00  0.00    +0.000 C 
ATOM     17  C   UNL     1       5.045   4.185  15.861  0.00  0.00    +0.000 C 
ATOM     18  C   UNL     1       4.171   3.625  17.009  0.00  0.00    +0.000 C 
ENDBRANCH   4  12
BRANCH   1  19
ATOM     19  C   UNL     1       0.434   7.726  21.397  0.00  0.00    +0.000 C 
BRANCH  19  24
ATOM     20  C   UNL     1      -0.468  13.441  22.162  0.00  0.00    +0.000 C 
ATOM     21  C   UNL     1      -0.259  11.968  21.968  0.00  0.00    +0.000 A 
ATOM     22  C   UNL     1      -0.791  11.040  22.866  0.00  0.00    +0.000 A 
ATOM     23  C   UNL     1      -0.576   9.670  22.681  0.00  0.00    +0.000 A 
ATOM     24  C   UNL     1       0.163   9.207  21.584  0.00  0.00    +0.000 A 
ATOM     25  C   UNL     1       0.700  10.141  20.691  0.00  0.00    +0.000 A 
ATOM     26  C   UNL     1       0.489  11.508  20.877  0.00  0.00    +0.000 A 
ENDBRANCH  19  24
ENDBRANCH   1  19
TORSDOF 3
ENDMDL
MODEL 3
REMARK VINA RESULT:      -7.6      4.993      7.332
REMARK  Name = 
REMARK  5 active torsions:
REMARK  status: ('A' for Active; 'I' for Inactive)
REMARK    1  A    between atoms: C_1  and  C_2
REMARK    2  A    between atoms: C_5  and  C_6
REMARK    3  A    between atoms: C_6  and  N_7
REMARK    4  A    between atoms: C_10  and  N_11
REMARK    5  A    between atoms: N_14  and  C_15
REMARK                            x       y       z     vdW  Elec       q    Type
REMARK                         _______ _______ _______ _____ _____    ______ ____
ROOT
ATOM      1  N   UNL     1       7.102   8.245  17.911  0.00  0.00    +0.000 N 
ATOM      2  C   UNL     1       6.796   6.975  17.384  0.00  0.00    +0.000 A 
ATOM      3  C   UNL     1       5.815   6.235  18.014  0.00  0.00    +0.000 A 
ATOM      4  C   UNL     1       5.516   4.984  17.513  0.00  0.00    +0.000 A 
ATOM      5  N   UNL     1       6.139   4.544  16.407  0.00  0.00    +0.000 NA
ATOM      6  C   UNL     1       7.011   5.356  15.811  0.00  0.00    +0.000 A 
ATOM      7  N   UNL     1       7.553   4.934  14.612  0.00  0.00    +0.000 N 
ATOM      8  N   UNL     1       7.399   6.541  16.274  0.00  0.00    +0.000 NA
ATOM      9  H   UNL     1       6.354   8.884  17.641  0.00  0.00    +0.000 HD
ATOM     10  H   UNL     1       7.523   3.927  14.559  0.00  0.00    +0.000 HD
ATOM     11  H   UNL     1       8.434   5.397  14.446  0.00  0.00    +0.000 HD
ENDROOT
BRANCH   4  12
ATOM     12  N   UNL     1       4.556   4.169  18.070  0.00  0.00    +0.000 N 
ATOM     13  C   UNL     1       3.708   3.356  17.188  0.00  0.00    +0.000 C 
ATOM     14  C   UNL     1       2.269   3.279  17.746  0.00  0.00    +0.000 C 
ATOM     15  N   UNL     1       2.220   2.826  19.157  0.00  0.00    +0.000 NA
ATOM     16  C   UNL     1       0.845   2.834  19.650  0.00  0.00    +0.000 C 
ATOM     17  C   UNL     1       3.069   3.719  19.978  0.00  0.00    +0.000 C 
ATOM     18  C   UNL     1       4.533   3.782  19.480  0.00  0.00    +0.000 C 
ENDBRANCH   4  12
BRANCH   1  19
ATOM     19  C   UNL     1       8.403   8.759  17.502  0.00  0.00    +0.000 C 
BRANCH  19  24
ATOM     20  C   UNL     1       9.848  13.528  20.539  0.00  0.00    +0.000 C 
ATOM     21  C   UNL     1       9.463  12.296  19.776  0.00  0.00    +0.000 A 
ATOM     22  C   UNL     1       9.525  11.032  20.368  0.00  0.00    +0.000 A 
ATOM     23  C   UNL     1       9.177   9.890  19.640  0.00  0.00    +0.000 A 
ATOM     24  C   UNL     1       8.745   9.996  18.311  0.00  0.00    +0.000 A 
ATOM     25  C   UNL     1       8.691  11.262  17.720  0.00  0.00    +0.000 A 
ATOM     26  C   UNL     1       9.042  12.403  18.445  0.00  0.00    +0.000 A 
ENDBRANCH  19  24
ENDBRANCH   1  19
TORSDOF 3
ENDMDL
MODEL 4
REMARK VINA RESULT:      -7.6      4.983      7.254
REMARK  Name = 
REMARK  5 active torsions:
REMARK  status: ('A' for Active; 'I' for Inactive)
REMARK    1  A    between atoms: C_1  and  C_2
REMARK    2  A    between atoms: C_5  and  C_6
REMARK    3  A    between atoms: C_6  and  N_7
REMARK    4  A    between atoms: C_10  and  N_11
REMARK    5  A    between atoms: N_14  and  C_15
REMARK                            x       y       z     vdW  Elec       q    Type
REMARK                         _______ _______ _______ _____ _____    ______ ____
ROOT
ATOM      1  N   UNL     1       7.132   8.239  17.944  0.00  0.00    +0.000 N 
ATOM      2  C   UNL     1       6.800   6.983  17.399  0.00  0.00    +0.000 A 
ATOM      3  C   UNL     1       5.800   6.257  18.016  0.00  0.00    +0.000 A 
ATOM      4  C   UNL     1       5.476   5.019  17.497  0.00  0.00    +0.000 A 
ATOM      5  N   UNL     1       6.093   4.579  16.388  0.00  0.00    +0.000 NA
ATOM      6  C   UNL     1       6.985   5.379  15.806  0.00  0.00    +0.000 A 
ATOM      7  N   UNL     1       7.523   4.960  14.604  0.00  0.00    +0.000 N 
ATOM      8  N   UNL     1       7.398   6.549  16.286  0.00  0.00    +0.000 NA
ATOM      9  H   UNL     1       6.399   8.897  17.678  0.00  0.00    +0.000 HD
ATOM     10  H   UNL     1       7.471   3.955  14.538  0.00  0.00    +0.000 HD
ATOM     11  H   UNL     1       8.415   5.406  14.448  0.00  0.00    +0.000 HD
ENDROOT
BRANCH   4  12
ATOM     12  N   UNL     1       4.495   4.219  18.040  0.00  0.00    +0.000 N 
ATOM     13  C   UNL     1       3.461   3.658  17.160  0.00  0.00    +0.000 C 
ATOM     14  C   UNL     1       2.096   3.628  17.885  0.00  0.00    +0.000 C 
ATOM     15  N   UNL     1       2.155   2.945  19.199  0.00  0.00    +0.000 NA
ATOM     16  C   UNL     1       0.855   3.003  19.864  0.00  0.00    +0.000 C 
ATOM     17  C   UNL     1       3.192   3.595  20.032  0.00  0.00    +0.000 C 
ATOM     18  C   UNL     1       4.587   3.598  19.360  0.00  0.00    +0.000 C 
ENDBRANCH   4  12
BRANCH   1  19
ATOM     19  C   UNL     1       8.446   8.728  17.547  0.00  0.00    +0.000 C 
BRANCH  19  24
ATOM     20  C   UNL     1       9.630  13.533  20.640  0.00  0.00    +0.000 C 
ATOM     21  C   UNL     1       9.339  12.306  19.828  0.00  0.00    +0.000 A 
ATOM     22  C   UNL     1       8.928  12.403  18.496  0.00  0.00    +0.000 A 
ATOM     23  C   UNL     1       8.646  11.251  17.755  0.00  0.00    +0.000 A 
ATOM     24  C   UNL     1       8.787   9.981  18.331  0.00  0.00    +0.000 A 
ATOM     25  C   UNL     1       9.192   9.889  19.666  0.00  0.00    +0.000 A 
ATOM     26  C   UNL     1       9.470  11.039  20.408  0.00  0.00    +0.000 A 
ENDBRANCH  19  24
ENDBRANCH   1  19
TORSDOF 3
ENDMDL
MODEL 5
REMARK VINA RESULT:      -7.6      4.313      7.292
REMARK  Name = 
REMARK  5 active torsions:
REMARK  status: ('A' for Active; 'I' for Inactive)
REMARK    1  A    between atoms: C_1  and  C_2
REMARK    2  A    between atoms: C_5  and  C_6
REMARK    3  A    between atoms: C_6  and  N_7
REMARK    4  A    between atoms: C_10  and  N_11
REMARK    5  A    between atoms: N_14  and  C_15
REMARK                            x       y       z     vdW  Elec       q    Type
REMARK                         _______ _______ _______ _____ _____    ______ ____
ROOT
ATOM      1  N   UNL     1       6.970   8.459  17.761  0.00  0.00    +0.000 N 
ATOM      2  C   UNL     1       6.574   7.201  17.265  0.00  0.00    +0.000 A 
ATOM      3  C   UNL     1       5.360   6.696  17.686  0.00  0.00    +0.000 A 
ATOM      4  C   UNL     1       4.969   5.457  17.215  0.00  0.00    +0.000 A 
ATOM      5  N   UNL     1       5.741   4.808  16.329  0.00  0.00    +0.000 NA
ATOM      6  C   UNL     1       6.856   5.405  15.910  0.00  0.00    +0.000 A 
ATOM      7  N   UNL     1       7.576   4.774  14.912  0.00  0.00    +0.000 N 
ATOM      8  N   UNL     1       7.330   6.559  16.370  0.00  0.00    +0.000 NA
ATOM      9  H   UNL     1       6.428   9.172  17.271  0.00  0.00    +0.000 HD
ATOM     10  H   UNL     1       7.382   3.784  14.925  0.00  0.00    +0.000 HD
ATOM     11  H   UNL     1       8.539   5.075  14.936  0.00  0.00    +0.000 HD
ENDROOT
BRANCH   4  12
ATOM     12  N   UNL     1       3.778   4.868  17.575  0.00  0.00    +0.000 N 
ATOM     13  C   UNL     1       2.716   5.698  18.159  0.00  0.00    +0.000 C 
ATOM     14  C   UNL     1       1.962   4.913  19.257  0.00  0.00    +0.000 C 
ATOM     15  N   UNL     1       1.462   3.599  18.787  0.00  0.00    +0.000 NA
ATOM     16  C   UNL     1       0.816   2.877  19.881  0.00  0.00    +0.000 C 
ATOM     17  C   UNL     1       2.598   2.817  18.251  0.00  0.00    +0.000 C 
ATOM     18  C   UNL     1       3.347   3.549  17.112  0.00  0.00    +0.000 C 
ENDBRANCH   4  12
BRANCH   1  19
ATOM     19  C   UNL     1       8.400   8.717  17.649  0.00  0.00    +0.000 C 
BRANCH  19  24
ATOM     20  C   UNL     1       9.856  13.705  20.305  0.00  0.00    +0.000 C 
ATOM     21  C   UNL     1       9.470  12.417  19.641  0.00  0.00    +0.000 A 
ATOM     22  C   UNL     1       9.621  11.193  20.297  0.00  0.00    +0.000 A 
ATOM     23  C   UNL     1       9.270   9.998  19.661  0.00  0.00    +0.000 A 
ATOM     24  C   UNL     1       8.746  10.011  18.361  0.00  0.00    +0.000 A 
ATOM     25  C   UNL     1       8.603  11.237  17.705  0.00  0.00    +0.000 A 
ATOM     26  C   UNL     1       8.956  12.430  18.338  0.00  0.00    +0.000 A 
ENDBRANCH  19  24
ENDBRANCH   1  19
TORSDOF 3
ENDMDL
MODEL 6
REMARK VINA RESULT:      -7.6      4.319      7.231
REMARK  Name = 
REMARK  5 active torsions:
REMARK  status: ('A' for Active; 'I' for Inactive)
REMARK    1  A    between atoms: C_1  and  C_2
REMARK    2  A    between atoms: C_5  and  C_6
REMARK    3  A    between atoms: C_6  and  N_7
REMARK    4  A    between atoms: C_10  and  N_11
REMARK    5  A    between atoms: N_14  and  C_15
REMARK                            x       y       z     vdW  Elec       q    Type
REMARK                         _______ _______ _______ _____ _____    ______ ____
ROOT
ATOM      1  N   UNL     1       7.016   8.470  17.781  0.00  0.00    +0.000 N 
ATOM      2  C   UNL     1       6.608   7.217  17.284  0.00  0.00    +0.000 A 
ATOM      3  C   UNL     1       5.389   6.723  17.706  0.00  0.00    +0.000 A 
ATOM      4  C   UNL     1       4.986   5.489  17.234  0.00  0.00    +0.000 A 
ATOM      5  N   UNL     1       5.751   4.833  16.346  0.00  0.00    +0.000 NA
ATOM      6  C   UNL     1       6.870   5.420  15.926  0.00  0.00    +0.000 A 
ATOM      7  N   UNL     1       7.583   4.784  14.927  0.00  0.00    +0.000 N 
ATOM      8  N   UNL     1       7.357   6.569  16.387  0.00  0.00    +0.000 NA
ATOM      9  H   UNL     1       6.481   9.189  17.293  0.00  0.00    +0.000 HD
ATOM     10  H   UNL     1       7.379   3.796  14.938  0.00  0.00    +0.000 HD
ATOM     11  H   UNL     1       8.549   5.075  14.949  0.00  0.00    +0.000 HD
ENDROOT
BRANCH   4  12
ATOM     12  N   UNL     1       3.789   4.910  17.595  0.00  0.00    +0.000 N 
ATOM     13  C   UNL     1       2.743   5.747  18.199  0.00  0.00    +0.000 C 
ATOM     14  C   UNL     1       1.988   4.957  19.292  0.00  0.00    +0.000 C 
ATOM     15  N   UNL     1       1.466   3.656  18.808  0.00  0.00    +0.000 NA
ATOM     16  C   UNL     1       0.818   2.928  19.897  0.00  0.00    +0.000 C 
ATOM     17  C   UNL     1       2.587   2.866  18.252  0.00  0.00    +0.000 C 
ATOM     18  C   UNL     1       3.338   3.604  17.117  0.00  0.00    +0.000 C 
ENDBRANCH   4  12
BRANCH   1  19
ATOM     19  C   UNL     1       8.449   8.715  17.667  0.00  0.00    +0.000 C 
BRANCH  19  24
ATOM     20  C   UNL     1       9.691  13.728  20.383  0.00  0.00    +0.000 C 
ATOM     21  C   UNL     1       9.384  12.447  19.667  0.00  0.00    +0.000 A 
ATOM     22  C   UNL     1       8.907  12.451  18.354  0.00  0.00    +0.000 A 
ATOM     23  C   UNL     1       8.611  11.249  17.703  0.00  0.00    +0.000 A 
ATOM     24  C   UNL     1       8.804  10.021  18.352  0.00  0.00    +0.000 A 
ATOM     25  C   UNL     1       9.275  10.022  19.668  0.00  0.00    +0.000 A 
ATOM     26  C   UNL     1       9.567  11.222  20.320  0.00  0.00    +0.000 A 
ENDBRANCH  19  24
ENDBRANCH   1  19
TORSDOF 3
ENDMDL
MODEL 7
REMARK VINA RESULT:      -7.4      4.548      7.240
REMARK  Name = 
REMARK  5 active torsions:
REMARK  status: ('A' for Active; 'I' for Inactive)
REMARK    1  A    between atoms: C_1  and  C_2
REMARK    2  A    between atoms: C_5  and  C_6
REMARK    3  A    between atoms: C_6  and  N_7
REMARK    4  A    between atoms: C_10  and  N_11
REMARK    5  A    between atoms: N_14  and  C_15
REMARK                            x       y       z     vdW  Elec       q    Type
REMARK                         _______ _______ _______ _____ _____    ______ ____
ROOT
ATOM      1  N   UNL     1       7.050   8.644  17.771  0.00  0.00    +0.000 N 
ATOM      2  C   UNL     1       6.684   7.331  17.418  0.00  0.00    +0.000 A 
ATOM      3  C   UNL     1       5.549   6.800  17.999  0.00  0.00    +0.000 A 
ATOM      4  C   UNL     1       5.188   5.508  17.668  0.00  0.00    +0.000 A 
ATOM      5  N   UNL     1       5.907   4.828  16.760  0.00  0.00    +0.000 NA
ATOM      6  C   UNL     1       6.937   5.445  16.183  0.00  0.00    +0.000 A 
ATOM      7  N   UNL     1       7.592   4.772  15.169  0.00  0.00    +0.000 N 
ATOM      8  N   UNL     1       7.385   6.657  16.501  0.00  0.00    +0.000 NA
ATOM      9  H   UNL     1       6.422   9.285  17.286  0.00  0.00    +0.000 HD
ATOM     10  H   UNL     1       7.459   3.778  15.277  0.00  0.00    +0.000 HD
ATOM     11  H   UNL     1       8.533   5.123  15.069  0.00  0.00    +0.000 HD
ENDROOT
BRANCH   4  12
ATOM     12  N   UNL     1       4.076   4.889  18.194  0.00  0.00    +0.000 N 
ATOM     13  C   UNL     1       4.255   3.785  19.146  0.00  0.00    +0.000 C 
ATOM     14  C   UNL     1       3.173   2.704  18.924  0.00  0.00    +0.000 C 
ATOM     15  N   UNL     1       1.795   3.253  18.943  0.00  0.00    +0.000 NA
ATOM     16  C   UNL     1       0.821   2.199  18.666  0.00  0.00    +0.000 C 
ATOM     17  C   UNL     1       1.694   4.329  17.932  0.00  0.00    +0.000 C 
ATOM     18  C   UNL     1       2.730   5.459  18.152  0.00  0.00    +0.000 C 
ENDBRANCH   4  12
BRANCH   1  19
ATOM     19  C   UNL     1       8.444   8.966  17.492  0.00  0.00    +0.000 C 
BRANCH  19  24
ATOM     20  C   UNL     1       9.954  13.576  20.735  0.00  0.00    +0.000 C 
ATOM     21  C   UNL     1       9.580  12.399  19.885  0.00  0.00    +0.000 A 
ATOM     22  C   UNL     1       9.164  12.568  18.562  0.00  0.00    +0.000 A 
ATOM     23  C   UNL     1       8.803  11.462  17.785  0.00  0.00    +0.000 A 
ATOM     24  C   UNL     1       8.870  10.166  18.315  0.00  0.00    +0.000 A 
ATOM     25  C   UNL     1       9.280  10.003  19.642  0.00  0.00    +0.000 A 
ATOM     26  C   UNL     1       9.636  11.106  20.420  0.00  0.00    +0.000 A 
ENDBRANCH  19  24
ENDBRANCH   1  19
TORSDOF 3
ENDMDL
MODEL 8
REMARK VINA RESULT:      -7.4      0.928      1.035
REMARK  Name = 
REMARK  5 active torsions:
REMARK  status: ('A' for Active; 'I' for Inactive)
REMARK    1  A    between atoms: C_1  and  C_2
REMARK    2  A    between atoms: C_5  and  C_6
REMARK    3  A    between atoms: C_6  and  N_7
REMARK    4  A    between atoms: C_10  and  N_11
REMARK    5  A    between atoms: N_14  and  C_15
REMARK                            x       y       z     vdW  Elec       q    Type
REMARK                         _______ _______ _______ _____ _____    ______ ____
ROOT
ATOM      1  N   UNL     1       1.795   7.710  20.860  0.00  0.00    +0.000 N 
ATOM      2  C   UNL     1       2.166   6.518  20.209  0.00  0.00    +0.000 A 
ATOM      3  C   UNL     1       3.212   6.573  19.309  0.00  0.00    +0.000 A 
ATOM      4  C   UNL     1       3.575   5.411  18.657  0.00  0.00    +0.000 A 
ATOM      5  N   UNL     1       2.948   4.260  18.949  0.00  0.00    +0.000 NA
ATOM      6  C   UNL     1       2.008   4.278  19.892  0.00  0.00    +0.000 A 
ATOM      7  N   UNL     1       1.457   3.065  20.261  0.00  0.00    +0.000 N 
ATOM      8  N   UNL     1       1.558   5.366  20.509  0.00  0.00    +0.000 NA
ATOM      9  H   UNL     1       2.491   7.903  21.580  0.00  0.00    +0.000 HD
ATOM     10  H   UNL     1       1.551   2.403  19.505  0.00  0.00    +0.000 HD
ATOM     11  H   UNL     1       0.543   3.206  20.665  0.00  0.00    +0.000 HD
ENDROOT
BRANCH   4  12
ATOM     12  N   UNL     1       4.604   5.363  17.742  0.00  0.00    +0.000 N 
ATOM     13  C   UNL     1       4.848   6.526  16.878  0.00  0.00    +0.000 C 
ATOM     14  C   UNL     1       5.278   6.066  15.467  0.00  0.00    +0.000 C 
ATOM     15  N   UNL     1       6.424   5.125  15.490  0.00  0.00    +0.000 NA
ATOM     16  C   UNL     1       6.745   4.677  14.137  0.00  0.00    +0.000 C 
ATOM     17  C   UNL     1       6.079   3.971  16.349  0.00  0.00    +0.000 C 
ATOM     18  C   UNL     1       5.692   4.388  17.789  0.00  0.00    +0.000 C 
ENDBRANCH   4  12
BRANCH   1  19
ATOM     19  C   UNL     1       0.451   7.685  21.423  0.00  0.00    +0.000 C 
BRANCH  19  24
ATOM     20  C   UNL     1      -1.601  13.086  22.239  0.00  0.00    +0.000 C 
ATOM     21  C   UNL     1      -1.055  11.707  22.019  0.00  0.00    +0.000 A 
ATOM     22  C   UNL     1      -0.620  11.297  20.756  0.00  0.00    +0.000 A 
ATOM     23  C   UNL     1      -0.127  10.002  20.562  0.00  0.00    +0.000 A 
ATOM     24  C   UNL     1      -0.046   9.102  21.633  0.00  0.00    +0.000 A 
ATOM     25  C   UNL     1      -0.490   9.515  22.894  0.00  0.00    +0.000 A 
ATOM     26  C   UNL     1      -0.986  10.805  23.088  0.00  0.00    +0.000 A 
ENDBRANCH  19  24
ENDBRANCH   1  19
TORSDOF 3
ENDMDL
MODEL 9
REMARK VINA RESULT:      -7.2      1.025      1.341
REMARK  Name = 
REMARK  5 active torsions:
REMARK  status: ('A' for Active; 'I' for Inactive)
REMARK    1  A    between atoms: C_1  and  C_2
REMARK    2  A    between atoms: C_5  and  C_6
REMARK    3  A    between atoms: C_6  and  N_7
REMARK    4  A    between atoms: C_10  and  N_11
REMARK    5  A    between atoms: N_14  and  C_15
REMARK                            x       y       z     vdW  Elec       q    Type
REMARK                         _______ _______ _______ _____ _____    ______ ____
ROOT
ATOM      1  N   UNL     1       1.649   8.067  20.833  0.00  0.00    +0.000 N 
ATOM      2  C   UNL     1       2.023   6.811  20.316  0.00  0.00    +0.000 A 
ATOM      3  C   UNL     1       2.798   6.789  19.173  0.00  0.00    +0.000 A 
ATOM      4  C   UNL     1       3.159   5.562  18.652  0.00  0.00    +0.000 A 
ATOM      5  N   UNL     1       2.801   4.436  19.291  0.00  0.00    +0.000 NA
ATOM      6  C   UNL     1       2.128   4.549  20.435  0.00  0.00    +0.000 A 
ATOM      7  N   UNL     1       1.870   3.386  21.136  0.00  0.00    +0.000 N 
ATOM      8  N   UNL     1       1.685   5.689  20.958  0.00  0.00    +0.000 NA
ATOM      9  H   UNL     1       2.464   8.469  21.297  0.00  0.00    +0.000 HD
ATOM     10  H   UNL     1       1.874   2.599  20.506  0.00  0.00    +0.000 HD
ATOM     11  H   UNL     1       1.072   3.514  21.741  0.00  0.00    +0.000 HD
ENDROOT
BRANCH   4  12
ATOM     12  N   UNL     1       3.928   5.434  17.517  0.00  0.00    +0.000 N 
ATOM     13  C   UNL     1       3.917   4.159  16.786  0.00  0.00    +0.000 C 
ATOM     14  C   UNL     1       5.325   3.849  16.227  0.00  0.00    +0.000 C 
ATOM     15  N   UNL     1       5.885   4.961  15.422  0.00  0.00    +0.000 NA
ATOM     16  C   UNL     1       7.238   4.637  14.975  0.00  0.00    +0.000 C 
ATOM     17  C   UNL     1       5.893   6.191  16.244  0.00  0.00    +0.000 C 
ATOM     18  C   UNL     1       4.489   6.565  16.780  0.00  0.00    +0.000 C 
ENDBRANCH   4  12
BRANCH   1  19
ATOM     19  C   UNL     1       0.503   8.022  21.732  0.00  0.00    +0.000 C 
BRANCH  19  24
ATOM     20  C   UNL     1      -2.132  13.220  22.033  0.00  0.00    +0.000 C 
ATOM     21  C   UNL     1      -1.437  11.894  21.944  0.00  0.00    +0.000 A 
ATOM     22  C   UNL     1      -0.940  11.420  20.727  0.00  0.00    +0.000 A 
ATOM     23  C   UNL     1      -0.307  10.174  20.656  0.00  0.00    +0.000 A 
ATOM     24  C   UNL     1      -0.147   9.390  21.807  0.00  0.00    +0.000 A 
ATOM     25  C   UNL     1      -0.652   9.865  23.021  0.00  0.00    +0.000 A 
ATOM     26  C   UNL     1      -1.287  11.106  23.092  0.00  0.00    +0.000 A 
ENDBRANCH  19  24
ENDBRANCH   1  19
TORSDOF 3
ENDMDL
