MODEL 1
REMARK VINA RESULT:      -8.3      0.000      0.000
REMARK  Name = 
REMARK  10 active torsions:
REMARK  status: ('A' for Active; 'I' for Inactive)
REMARK    1  A    between atoms: C_1  and  C_2
REMARK    2  A    between atoms: C_2  and  C_3
REMARK    3  A    between atoms: C_3  and  C_4
REMARK    4  A    between atoms: C_3  and  C_5
REMARK    5  A    between atoms: C_3  and  N_6
REMARK    6  A    between atoms: C_7  and  C_9
REMARK    7  A    between atoms: N_12  and  C_13
REMARK    8  A    between atoms: C_13  and  C_14
REMARK    9  A    between atoms: C_18  and  N_19
REMARK   10  A    between atoms: C_20  and  C_22
REMARK                            x       y       z     vdW  Elec       q    Type
REMARK                         _______ _______ _______ _____ _____    ______ ____
ROOT
ATOM      1  C   UNL     1       2.052   5.873  20.552  0.00  0.00    +0.000 A 
ATOM      2  C   UNL     1       2.873   6.017  19.424  0.00  0.00    +0.000 A 
ATOM      3  C   UNL     1       2.839   7.191  18.678  0.00  0.00    +0.000 A 
ATOM      4  C   UNL     1       1.972   8.226  19.038  0.00  0.00    +0.000 A 
ATOM      5  C   UNL     1       1.156   8.109  20.163  0.00  0.00    +0.000 A 
ATOM      6  C   UNL     1       1.229   6.946  20.938  0.00  0.00    +0.000 A 
ENDROOT
BRANCH   5   7
ATOM      7  N   UNL     1       0.223   9.090  20.549  0.00  0.00    +0.000 N 
ATOM      8  C   UNL     1       0.400  10.109  21.461  0.00  0.00    +0.000 C 
ATOM      9  O   UNL     1       1.419  10.332  22.110  0.00  0.00    +0.000 OA
ATOM     10  H   UNL     1      -0.680   9.091  20.056  0.00  0.00    +0.000 HD
BRANCH   8  11
ATOM     11  C   UNL     1      -0.742  11.032  21.676  0.00  0.00    +0.000 A 
ATOM     12  C   UNL     1      -1.315  11.129  22.958  0.00  0.00    +0.000 A 
ATOM     13  C   UNL     1      -2.407  11.964  23.175  0.00  0.00    +0.000 A 
ATOM     14  C   UNL     1      -2.921  12.699  22.117  0.00  0.00    +0.000 A 
ATOM     15 CL   UNL     1      -4.282  13.717  22.359  0.00  0.00    +0.000 Cl
ATOM     16  C   UNL     1      -2.340  12.608  20.860  0.00  0.00    +0.000 A 
ATOM     17  N   UNL     1      -1.249  11.782  20.619  0.00  0.00    +0.000 N 
ATOM     18  O   UNL     1      -0.765  11.755  19.437  0.00  0.00    +0.000 OA
ENDBRANCH   8  11
ENDBRANCH   5   7
BRANCH   1  19
ATOM     19  C   UNL     1       1.990   4.547  21.287  0.00  0.00    +0.000 C 
BRANCH  19  23
ATOM     20  C   UNL     1       3.381   2.166  17.956  0.00  0.00    +0.000 C 
ATOM     21  C   UNL     1       1.883   2.391  18.161  0.00  0.00    +0.000 C 
ATOM     22  C   UNL     1       1.622   3.577  19.086  0.00  0.00    +0.000 C 
ATOM     23  N   UNL     1       2.242   3.380  20.406  0.00  0.00    +0.000 NA
ATOM     24  C   UNL     1       3.694   3.159  20.291  0.00  0.00    +0.000 C 
ATOM     25  C   UNL     1       4.047   2.015  19.331  0.00  0.00    +0.000 C 
BRANCH  20  27
ATOM     26  N   UNL     1       5.377   3.469  17.375  0.00  0.00    +0.000 N 
ATOM     27  C   UNL     1       4.033   3.268  17.118  0.00  0.00    +0.000 C 
ATOM     28  O   UNL     1       3.395   3.942  16.312  0.00  0.00    +0.000 OA
ATOM     29  H   UNL     1       5.841   2.822  18.001  0.00  0.00    +0.000 HD
BRANCH  26  30
ATOM     30  C   UNL     1       6.215   4.481  16.705  0.00  0.00    +0.000 C 
ATOM     31  C   UNL     1       6.379   4.158  15.208  0.00  0.00    +0.000 C 
ATOM     32  C   UNL     1       7.603   4.539  17.375  0.00  0.00    +0.000 C 
BRANCH  30  34
ATOM     33  C   UNL     1       5.197   6.599  15.565  0.00  0.00    +0.000 C 
ATOM     34  C   UNL     1       5.570   5.890  16.864  0.00  0.00    +0.000 C 
ENDBRANCH  30  34
ENDBRANCH  26  30
ENDBRANCH  20  27
ENDBRANCH  19  23
ENDBRANCH   1  19
TORSDOF 7
ENDMDL
MODEL 2
REMARK VINA RESULT:      -8.3      2.367      3.885
REMARK  Name = 
REMARK  10 active torsions:
REMARK  status: ('A' for Active; 'I' for Inactive)
REMARK    1  A    between atoms: C_1  and  C_2
REMARK    2  A    between atoms: C_2  and  C_3
REMARK    3  A    between atoms: C_3  and  C_4
REMARK    4  A    between atoms: C_3  and  C_5
REMARK    5  A    between atoms: C_3  and  N_6
REMARK    6  A    between atoms: C_7  and  C_9
REMARK    7  A    between atoms: N_12  and  C_13
REMARK    8  A    between atoms: C_13  and  C_14
REMARK    9  A    between atoms: C_18  and  N_19
REMARK   10  A    between atoms: C_20  and  C_22
REMARK                            x       y       z     vdW  Elec       q    Type
REMARK                         _______ _______ _______ _____ _____    ______ ____
ROOT
ATOM      1  C   UNL     1       2.746   7.208  18.436  0.00  0.00    +0.000 A 
ATOM      2  C   UNL     1       2.569   6.101  19.279  0.00  0.00    +0.000 A 
ATOM      3  C   UNL     1       1.858   6.232  20.467  0.00  0.00    +0.000 A 
ATOM      4  C   UNL     1       1.331   7.472  20.836  0.00  0.00    +0.000 A 
ATOM      5  C   UNL     1       1.483   8.583  20.006  0.00  0.00    +0.000 A 
ATOM      6  C   UNL     1       2.158   8.435  18.789  0.00  0.00    +0.000 A 
ENDROOT
BRANCH   5   7
ATOM      7  N   UNL     1       1.024   9.871  20.343  0.00  0.00    +0.000 N 
ATOM      8  C   UNL     1      -0.207  10.426  20.065  0.00  0.00    +0.000 C 
ATOM      9  O   UNL     1      -1.126   9.884  19.457  0.00  0.00    +0.000 OA
ATOM     10  H   UNL     1       1.652  10.452  20.914  0.00  0.00    +0.000 HD
BRANCH   8  11
ATOM     11  C   UNL     1      -0.453  11.806  20.552  0.00  0.00    +0.000 A 
ATOM     12  C   UNL     1      -0.699  12.831  19.619  0.00  0.00    +0.000 A 
ATOM     13  C   UNL     1      -0.901  14.138  20.052  0.00  0.00    +0.000 A 
ATOM     14  C   UNL     1      -0.859  14.418  21.409  0.00  0.00    +0.000 A 
ATOM     15 CL   UNL     1      -1.083  16.028  21.961  0.00  0.00    +0.000 Cl
ATOM     16  C   UNL     1      -0.631  13.399  22.323  0.00  0.00    +0.000 A 
ATOM     17  N   UNL     1      -0.427  12.086  21.916  0.00  0.00    +0.000 N 
ATOM     18  O   UNL     1      -0.228  11.201  22.815  0.00  0.00    +0.000 OA
ENDBRANCH   8  11
ENDBRANCH   5   7
BRANCH   1  19
ATOM     19  C   UNL     1       3.632   7.100  17.209  0.00  0.00    +0.000 C 
BRANCH  19  23
ATOM     20  C   UNL     1       6.769   4.306  16.181  0.00  0.00    +0.000 C 
ATOM     21  C   UNL     1       5.423   3.789  16.689  0.00  0.00    +0.000 C 
ATOM     22  C   UNL     1       4.340   4.860  16.575  0.00  0.00    +0.000 C 
ATOM     23  N   UNL     1       4.688   6.066  17.342  0.00  0.00    +0.000 NA
ATOM     24  C   UNL     1       5.979   6.627  16.906  0.00  0.00    +0.000 C 
ATOM     25  C   UNL     1       7.116   5.597  16.936  0.00  0.00    +0.000 C 
BRANCH  20  27
ATOM     26  N   UNL     1       6.209   3.476  13.941  0.00  0.00    +0.000 N 
ATOM     27  C   UNL     1       6.789   4.503  14.664  0.00  0.00    +0.000 C 
ATOM     28  O   UNL     1       7.315   5.481  14.137  0.00  0.00    +0.000 OA
ATOM     29  H   UNL     1       5.734   2.744  14.456  0.00  0.00    +0.000 HD
BRANCH  26  30
ATOM     30  C   UNL     1       6.122   3.434  12.469  0.00  0.00    +0.000 C 
ATOM     31  C   UNL     1       7.158   4.377  11.828  0.00  0.00    +0.000 C 
ATOM     32  C   UNL     1       4.704   3.843  12.017  0.00  0.00    +0.000 C 
BRANCH  30  34
ATOM     33  C   UNL     1       7.427   1.819  10.885  0.00  0.00    +0.000 C 
ATOM     34  C   UNL     1       6.362   1.980  11.966  0.00  0.00    +0.000 C 
ENDBRANCH  30  34
ENDBRANCH  26  30
ENDBRANCH  20  27
ENDBRANCH  19  23
ENDBRANCH   1  19
TORSDOF 7
ENDMDL
MODEL 3
REMARK VINA RESULT:      -8.3      0.564      1.066
REMARK  Name = 
REMARK  10 active torsions:
REMARK  status: ('A' for Active; 'I' for Inactive)
REMARK    1  A    between atoms: C_1  and  C_2
REMARK    2  A    between atoms: C_2  and  C_3
REMARK    3  A    between atoms: C_3  and  C_4
REMARK    4  A    between atoms: C_3  and  C_5
REMARK    5  A    between atoms: C_3  and  N_6
REMARK    6  A    between atoms: C_7  and  C_9
REMARK    7  A    between atoms: N_12  and  C_13
REMARK    8  A    between atoms: C_13  and  C_14
REMARK    9  A    between atoms: C_18  and  N_19
REMARK   10  A    between atoms: C_20  and  C_22
REMARK                            x       y       z     vdW  Elec       q    Type
REMARK                         _______ _______ _______ _____ _____    ______ ____
ROOT
ATOM      1  C   UNL     1       2.072   5.920  20.504  0.00  0.00    +0.000 A 
ATOM      2  C   UNL     1       2.804   5.965  19.309  0.00  0.00    +0.000 A 
ATOM      3  C   UNL     1       2.799   7.116  18.527  0.00  0.00    +0.000 A 
ATOM      4  C   UNL     1       2.049   8.227  18.919  0.00  0.00    +0.000 A 
ATOM      5  C   UNL     1       1.323   8.209  20.111  0.00  0.00    +0.000 A 
ATOM      6  C   UNL     1       1.371   7.066  20.918  0.00  0.00    +0.000 A 
ENDROOT
BRANCH   5   7
ATOM      7  N   UNL     1       0.506   9.273  20.537  0.00  0.00    +0.000 N 
ATOM      8  C   UNL     1       0.603   9.993  21.708  0.00  0.00    +0.000 C 
ATOM      9  O   UNL     1       1.430   9.820  22.600  0.00  0.00    +0.000 OA
ATOM     10  H   UNL     1      -0.214   9.596  19.878  0.00  0.00    +0.000 HD
BRANCH   8  11
ATOM     11  C   UNL     1      -0.376  11.089  21.912  0.00  0.00    +0.000 A 
ATOM     12  C   UNL     1      -1.239  11.043  23.023  0.00  0.00    +0.000 A 
ATOM     13  C   UNL     1      -2.186  12.043  23.217  0.00  0.00    +0.000 A 
ATOM     14  C   UNL     1      -2.269  13.085  22.306  0.00  0.00    +0.000 A 
ATOM     15 CL   UNL     1      -3.446  14.318  22.515  0.00  0.00    +0.000 Cl
ATOM     16  C   UNL     1      -1.404  13.132  21.221  0.00  0.00    +0.000 A 
ATOM     17  N   UNL     1      -0.450  12.145  21.007  0.00  0.00    +0.000 N 
ATOM     18  O   UNL     1       0.314  12.257  19.990  0.00  0.00    +0.000 OA
ENDBRANCH   8  11
ENDBRANCH   5   7
BRANCH   1  19
ATOM     19  C   UNL     1       1.969   4.626  21.288  0.00  0.00    +0.000 C 
BRANCH  19  23
ATOM     20  C   UNL     1       3.329   2.122  18.035  0.00  0.00    +0.000 C 
ATOM     21  C   UNL     1       1.832   2.283  18.300  0.00  0.00    +0.000 C 
ATOM     22  C   UNL     1       1.552   3.508  19.167  0.00  0.00    +0.000 C 
ATOM     23  N   UNL     1       2.241   3.422  20.465  0.00  0.00    +0.000 NA
ATOM     24  C   UNL     1       3.696   3.267  20.291  0.00  0.00    +0.000 C 
ATOM     25  C   UNL     1       4.065   2.088  19.382  0.00  0.00    +0.000 C 
BRANCH  20  27
ATOM     26  N   UNL     1       5.253   3.376  17.170  0.00  0.00    +0.000 N 
ATOM     27  C   UNL     1       3.881   3.203  17.104  0.00  0.00    +0.000 C 
ATOM     28  O   UNL     1       3.153   3.885  16.386  0.00  0.00    +0.000 OA
ATOM     29  H   UNL     1       5.785   2.723  17.733  0.00  0.00    +0.000 HD
BRANCH  26  30
ATOM     30  C   UNL     1       6.011   4.364  16.381  0.00  0.00    +0.000 C 
ATOM     31  C   UNL     1       7.438   4.536  16.936  0.00  0.00    +0.000 C 
ATOM     32  C   UNL     1       5.282   5.724  16.406  0.00  0.00    +0.000 C 
BRANCH  30  34
ATOM     33  C   UNL     1       6.983   4.746  13.987  0.00  0.00    +0.000 C 
ATOM     34  C   UNL     1       6.083   3.910  14.893  0.00  0.00    +0.000 C 
ENDBRANCH  30  34
ENDBRANCH  26  30
ENDBRANCH  20  27
ENDBRANCH  19  23
ENDBRANCH   1  19
TORSDOF 7
ENDMDL
MODEL 4
REMARK VINA RESULT:      -8.2      1.200      1.586
REMARK  Name = 
REMARK  10 active torsions:
REMARK  status: ('A' for Active; 'I' for Inactive)
REMARK    1  A    between atoms: C_1  and  C_2
REMARK    2  A    between atoms: C_2  and  C_3
REMARK    3  A    between atoms: C_3  and  C_4
REMARK    4  A    between atoms: C_3  and  C_5
REMARK    5  A    between atoms: C_3  and  N_6
REMARK    6  A    between atoms: C_7  and  C_9
REMARK    7  A    between atoms: N_12  and  C_13
REMARK    8  A    between atoms: C_13  and  C_14
REMARK    9  A    between atoms: C_18  and  N_19
REMARK   10  A    between atoms: C_20  and  C_22
REMARK                            x       y       z     vdW  Elec       q    Type
REMARK                         _______ _______ _______ _____ _____    ______ ____
ROOT
ATOM      1  C   UNL     1       1.784   5.940  20.259  0.00  0.00    +0.000 A 
ATOM      2  C   UNL     1       2.362   5.907  18.982  0.00  0.00    +0.000 A 
ATOM      3  C   UNL     1       2.513   7.080  18.250  0.00  0.00    +0.000 A 
ATOM      4  C   UNL     1       2.073   8.297  18.778  0.00  0.00    +0.000 A 
ATOM      5  C   UNL     1       1.507   8.355  20.051  0.00  0.00    +0.000 A 
ATOM      6  C   UNL     1       1.402   7.179  20.802  0.00  0.00    +0.000 A 
ENDROOT
BRANCH   5   7
ATOM      7  N   UNL     1       0.995   9.537  20.619  0.00  0.00    +0.000 N 
ATOM      8  C   UNL     1      -0.144  10.223  20.254  0.00  0.00    +0.000 C 
ATOM      9  O   UNL     1      -0.915   9.918  19.348  0.00  0.00    +0.000 OA
ATOM     10  H   UNL     1       1.489   9.908  21.441  0.00  0.00    +0.000 HD
BRANCH   8  11
ATOM     11  C   UNL     1      -0.479  11.442  21.032  0.00  0.00    +0.000 A 
ATOM     12  C   UNL     1      -0.367  12.703  20.417  0.00  0.00    +0.000 A 
ATOM     13  C   UNL     1      -0.645  13.860  21.137  0.00  0.00    +0.000 A 
ATOM     14  C   UNL     1      -1.036  13.757  22.463  0.00  0.00    +0.000 A 
ATOM     15 CL   UNL     1      -1.363  15.175  23.375  0.00  0.00    +0.000 Cl
ATOM     16  C   UNL     1      -1.160  12.509  23.058  0.00  0.00    +0.000 A 
ATOM     17  N   UNL     1      -0.887  11.339  22.359  0.00  0.00    +0.000 N 
ATOM     18  O   UNL     1      -1.028  10.227  22.971  0.00  0.00    +0.000 OA
ENDBRANCH   8  11
ENDBRANCH   5   7
BRANCH   1  19
ATOM     19  C   UNL     1       1.497   4.648  21.001  0.00  0.00    +0.000 C 
BRANCH  19  23
ATOM     20  C   UNL     1       3.501   2.146  18.099  0.00  0.00    +0.000 C 
ATOM     21  C   UNL     1       1.975   2.229  18.111  0.00  0.00    +0.000 C 
ATOM     22  C   UNL     1       1.493   3.457  18.879  0.00  0.00    +0.000 C 
ATOM     23  N   UNL     1       1.963   3.442  20.274  0.00  0.00    +0.000 NA
ATOM     24  C   UNL     1       3.432   3.366  20.345  0.00  0.00    +0.000 C 
ATOM     25  C   UNL     1       4.006   2.187  19.548  0.00  0.00    +0.000 C 
BRANCH  20  27
ATOM     26  N   UNL     1       5.448   3.543  17.572  0.00  0.00    +0.000 N 
ATOM     27  C   UNL     1       4.142   3.233  17.235  0.00  0.00    +0.000 C 
ATOM     28  O   UNL     1       3.526   3.808  16.339  0.00  0.00    +0.000 OA
ATOM     29  H   UNL     1       5.904   2.972  18.273  0.00  0.00    +0.000 HD
BRANCH  26  30
ATOM     30  C   UNL     1       6.268   4.565  16.895  0.00  0.00    +0.000 C 
ATOM     31  C   UNL     1       6.476   4.210  15.410  0.00  0.00    +0.000 C 
ATOM     32  C   UNL     1       7.638   4.685  17.593  0.00  0.00    +0.000 C 
BRANCH  30  34
ATOM     33  C   UNL     1       5.234   6.632  15.678  0.00  0.00    +0.000 C 
ATOM     34  C   UNL     1       5.575   5.956  17.003  0.00  0.00    +0.000 C 
ENDBRANCH  30  34
ENDBRANCH  26  30
ENDBRANCH  20  27
ENDBRANCH  19  23
ENDBRANCH   1  19
TORSDOF 7
ENDMDL
MODEL 5
REMARK VINA RESULT:      -8.2      1.374      1.731
REMARK  Name = 
REMARK  10 active torsions:
REMARK  status: ('A' for Active; 'I' for Inactive)
REMARK    1  A    between atoms: C_1  and  C_2
REMARK    2  A    between atoms: C_2  and  C_3
REMARK    3  A    between atoms: C_3  and  C_4
REMARK    4  A    between atoms: C_3  and  C_5
REMARK    5  A    between atoms: C_3  and  N_6
REMARK    6  A    between atoms: C_7  and  C_9
REMARK    7  A    between atoms: N_12  and  C_13
REMARK    8  A    between atoms: C_13  and  C_14
REMARK    9  A    between atoms: C_18  and  N_19
REMARK   10  A    between atoms: C_20  and  C_22
REMARK                            x       y       z     vdW  Elec       q    Type
REMARK                         _______ _______ _______ _____ _____    ______ ____
ROOT
ATOM      1  C   UNL     1       1.777   6.022  20.053  0.00  0.00    +0.000 A 
ATOM      2  C   UNL     1       2.305   6.061  18.754  0.00  0.00    +0.000 A 
ATOM      3  C   UNL     1       2.470   7.278  18.101  0.00  0.00    +0.000 A 
ATOM      4  C   UNL     1       2.094   8.468  18.730  0.00  0.00    +0.000 A 
ATOM      5  C   UNL     1       1.579   8.454  20.026  0.00  0.00    +0.000 A 
ATOM      6  C   UNL     1       1.460   7.230  20.696  0.00  0.00    +0.000 A 
ENDROOT
BRANCH   5   7
ATOM      7  N   UNL     1       1.131   9.608  20.695  0.00  0.00    +0.000 N 
ATOM      8  C   UNL     1      -0.029  10.318  20.468  0.00  0.00    +0.000 C 
ATOM      9  O   UNL     1      -0.880  10.063  19.621  0.00  0.00    +0.000 OA
ATOM     10  H   UNL     1       1.700   9.934  21.487  0.00  0.00    +0.000 HD
BRANCH   8  11
ATOM     11  C   UNL     1      -0.282  11.497  21.333  0.00  0.00    +0.000 A 
ATOM     12  C   UNL     1      -1.258  11.412  22.343  0.00  0.00    +0.000 A 
ATOM     13  C   UNL     1      -1.534  12.516  23.145  0.00  0.00    +0.000 A 
ATOM     14  C   UNL     1      -0.837  13.696  22.938  0.00  0.00    +0.000 A 
ATOM     15 CL   UNL     1      -1.179  15.076  23.902  0.00  0.00    +0.000 Cl
ATOM     16  C   UNL     1       0.135  13.767  21.949  0.00  0.00    +0.000 A 
ATOM     17  N   UNL     1       0.428  12.679  21.137  0.00  0.00    +0.000 N 
ATOM     18  O   UNL     1       1.339  12.817  20.252  0.00  0.00    +0.000 OA
ENDBRANCH   8  11
ENDBRANCH   5   7
BRANCH   1  19
ATOM     19  C   UNL     1       1.472   4.691  20.713  0.00  0.00    +0.000 C 
BRANCH  19  23
ATOM     20  C   UNL     1       3.975   2.426  18.009  0.00  0.00    +0.000 C 
ATOM     21  C   UNL     1       2.455   2.281  17.945  0.00  0.00    +0.000 C 
ATOM     22  C   UNL     1       1.757   3.446  18.641  0.00  0.00    +0.000 C 
ATOM     23  N   UNL     1       2.149   3.545  20.056  0.00  0.00    +0.000 NA
ATOM     24  C   UNL     1       3.608   3.691  20.201  0.00  0.00    +0.000 C 
ATOM     25  C   UNL     1       4.391   2.587  19.478  0.00  0.00    +0.000 C 
BRANCH  20  27
ATOM     26  N   UNL     1       5.679   4.137  17.572  0.00  0.00    +0.000 N 
ATOM     27  C   UNL     1       4.494   3.570  17.136  0.00  0.00    +0.000 C 
ATOM     28  O   UNL     1       3.882   3.971  16.148  0.00  0.00    +0.000 OA
ATOM     29  H   UNL     1       6.155   3.699  18.351  0.00  0.00    +0.000 HD
BRANCH  26  30
ATOM     30  C   UNL     1       6.364   5.260  16.905  0.00  0.00    +0.000 C 
ATOM     31  C   UNL     1       5.357   6.345  16.478  0.00  0.00    +0.000 C 
ATOM     32  C   UNL     1       7.125   4.746  15.665  0.00  0.00    +0.000 C 
BRANCH  30  34
ATOM     33  C   UNL     1       7.247   5.548  19.346  0.00  0.00    +0.000 C 
ATOM     34  C   UNL     1       7.421   5.881  17.866  0.00  0.00    +0.000 C 
ENDBRANCH  30  34
ENDBRANCH  26  30
ENDBRANCH  20  27
ENDBRANCH  19  23
ENDBRANCH   1  19
TORSDOF 7
ENDMDL
MODEL 6
REMARK VINA RESULT:      -8.1      1.157      1.551
REMARK  Name = 
REMARK  10 active torsions:
REMARK  status: ('A' for Active; 'I' for Inactive)
REMARK    1  A    between atoms: C_1  and  C_2
REMARK    2  A    between atoms: C_2  and  C_3
REMARK    3  A    between atoms: C_3  and  C_4
REMARK    4  A    between atoms: C_3  and  C_5
REMARK    5  A    between atoms: C_3  and  N_6
REMARK    6  A    between atoms: C_7  and  C_9
REMARK    7  A    between atoms: N_12  and  C_13
REMARK    8  A    between atoms: C_13  and  C_14
REMARK    9  A    between atoms: C_18  and  N_19
REMARK   10  A    between atoms: C_20  and  C_22
REMARK                            x       y       z     vdW  Elec       q    Type
REMARK                         _______ _______ _______ _____ _____    ______ ____
ROOT
ATOM      1  C   UNL     1       2.139   6.752  20.103  0.00  0.00    +0.000 A 
ATOM      2  C   UNL     1       2.788   6.974  18.880  0.00  0.00    +0.000 A 
ATOM      3  C   UNL     1       2.562   8.149  18.170  0.00  0.00    +0.000 A 
ATOM      4  C   UNL     1       1.674   9.107  18.664  0.00  0.00    +0.000 A 
ATOM      5  C   UNL     1       1.028   8.914  19.885  0.00  0.00    +0.000 A 
ATOM      6  C   UNL     1       1.296   7.751  20.619  0.00  0.00    +0.000 A 
ENDROOT
BRANCH   5   7
ATOM      7  N   UNL     1       0.083   9.813  20.414  0.00  0.00    +0.000 N 
ATOM      8  C   UNL     1       0.317  11.051  20.972  0.00  0.00    +0.000 C 
ATOM      9  O   UNL     1       1.414  11.587  21.114  0.00  0.00    +0.000 OA
ATOM     10  H   UNL     1      -0.907   9.549  20.324  0.00  0.00    +0.000 HD
BRANCH   8  11
ATOM     11  C   UNL     1      -0.864  11.819  21.439  0.00  0.00    +0.000 A 
ATOM     12  C   UNL     1      -1.393  12.832  20.619  0.00  0.00    +0.000 A 
ATOM     13  C   UNL     1      -2.480  13.586  21.051  0.00  0.00    +0.000 A 
ATOM     14  C   UNL     1      -3.036  13.325  22.294  0.00  0.00    +0.000 A 
ATOM     15 CL   UNL     1      -4.363  14.259  22.855  0.00  0.00    +0.000 Cl
ATOM     16  C   UNL     1      -2.517  12.313  23.091  0.00  0.00    +0.000 A 
ATOM     17  N   UNL     1      -1.433  11.548  22.681  0.00  0.00    +0.000 N 
ATOM     18  O   UNL     1      -1.013  10.631  23.465  0.00  0.00    +0.000 OA
ENDBRANCH   8  11
ENDBRANCH   5   7
BRANCH   1  19
ATOM     19  C   UNL     1       2.280   5.418  20.811  0.00  0.00    +0.000 C 
BRANCH  19  23
ATOM     20  C   UNL     1       3.441   2.895  17.496  0.00  0.00    +0.000 C 
ATOM     21  C   UNL     1       2.042   3.510  17.534  0.00  0.00    +0.000 C 
ATOM     22  C   UNL     1       1.978   4.681  18.512  0.00  0.00    +0.000 C 
ATOM     23  N   UNL     1       2.334   4.266  19.878  0.00  0.00    +0.000 NA
ATOM     24  C   UNL     1       3.678   3.663  19.923  0.00  0.00    +0.000 C 
ATOM     25  C   UNL     1       3.847   2.509  18.926  0.00  0.00    +0.000 C 
BRANCH  20  27
ATOM     26  N   UNL     1       5.609   4.041  17.586  0.00  0.00    +0.000 N 
ATOM     27  C   UNL     1       4.470   3.813  16.834  0.00  0.00    +0.000 C 
ATOM     28  O   UNL     1       4.275   4.334  15.738  0.00  0.00    +0.000 OA
ATOM     29  H   UNL     1       5.722   3.516  18.445  0.00  0.00    +0.000 HD
BRANCH  26  30
ATOM     30  C   UNL     1       6.732   4.900  17.166  0.00  0.00    +0.000 C 
ATOM     31  C   UNL     1       7.106   4.638  15.695  0.00  0.00    +0.000 C 
ATOM     32  C   UNL     1       7.957   4.637  18.065  0.00  0.00    +0.000 C 
BRANCH  30  34
ATOM     33  C   UNL     1       7.511   7.363  17.554  0.00  0.00    +0.000 C 
ATOM     34  C   UNL     1       6.346   6.399  17.344  0.00  0.00    +0.000 C 
ENDBRANCH  30  34
ENDBRANCH  26  30
ENDBRANCH  20  27
ENDBRANCH  19  23
ENDBRANCH   1  19
TORSDOF 7
ENDMDL
MODEL 7
REMARK VINA RESULT:      -7.9      2.379      3.808
REMARK  Name = 
REMARK  10 active torsions:
REMARK  status: ('A' for Active; 'I' for Inactive)
REMARK    1  A    between atoms: C_1  and  C_2
REMARK    2  A    between atoms: C_2  and  C_3
REMARK    3  A    between atoms: C_3  and  C_4
REMARK    4  A    between atoms: C_3  and  C_5
REMARK    5  A    between atoms: C_3  and  N_6
REMARK    6  A    between atoms: C_7  and  C_9
REMARK    7  A    between atoms: N_12  and  C_13
REMARK    8  A    between atoms: C_13  and  C_14
REMARK    9  A    between atoms: C_18  and  N_19
REMARK   10  A    between atoms: C_20  and  C_22
REMARK                            x       y       z     vdW  Elec       q    Type
REMARK                         _______ _______ _______ _____ _____    ______ ____
ROOT
ATOM      1  C   UNL     1       2.965   7.426  18.251  0.00  0.00    +0.000 A 
ATOM      2  C   UNL     1       2.873   6.424  19.228  0.00  0.00    +0.000 A 
ATOM      3  C   UNL     1       2.091   6.621  20.362  0.00  0.00    +0.000 A 
ATOM      4  C   UNL     1       1.408   7.826  20.541  0.00  0.00    +0.000 A 
ATOM      5  C   UNL     1       1.475   8.831  19.576  0.00  0.00    +0.000 A 
ATOM      6  C   UNL     1       2.224   8.608  18.415  0.00  0.00    +0.000 A 
ENDROOT
BRANCH   5   7
ATOM      7  N   UNL     1       0.855  10.087  19.720  0.00  0.00    +0.000 N 
ATOM      8  C   UNL     1       0.718  10.832  20.871  0.00  0.00    +0.000 C 
ATOM      9  O   UNL     1       1.114  10.517  21.990  0.00  0.00    +0.000 OA
ATOM     10  H   UNL     1       0.513  10.535  18.860  0.00  0.00    +0.000 HD
BRANCH   8  11
ATOM     11  C   UNL     1       0.037  12.145  20.751  0.00  0.00    +0.000 A 
ATOM     12  C   UNL     1       0.658  13.293  21.278  0.00  0.00    +0.000 A 
ATOM     13  C   UNL     1       0.023  14.529  21.206  0.00  0.00    +0.000 A 
ATOM     14  C   UNL     1      -1.224  14.617  20.606  0.00  0.00    +0.000 A 
ATOM     15 CL   UNL     1      -2.034  16.129  20.527  0.00  0.00    +0.000 Cl
ATOM     16  C   UNL     1      -1.823  13.483  20.075  0.00  0.00    +0.000 A 
ATOM     17  N   UNL     1      -1.208  12.238  20.136  0.00  0.00    +0.000 N 
ATOM     18  O   UNL     1      -1.818  11.241  19.621  0.00  0.00    +0.000 OA
ENDBRANCH   8  11
ENDBRANCH   5   7
BRANCH   1  19
ATOM     19  C   UNL     1       3.920   7.267  17.083  0.00  0.00    +0.000 C 
BRANCH  19  23
ATOM     20  C   UNL     1       6.775   4.165  16.120  0.00  0.00    +0.000 C 
ATOM     21  C   UNL     1       5.344   3.792  16.508  0.00  0.00    +0.000 C 
ATOM     22  C   UNL     1       4.405   4.989  16.379  0.00  0.00    +0.000 C 
ATOM     23  N   UNL     1       4.836   6.109  17.231  0.00  0.00    +0.000 NA
ATOM     24  C   UNL     1       6.211   6.529  16.913  0.00  0.00    +0.000 C 
ATOM     25  C   UNL     1       7.215   5.369  16.964  0.00  0.00    +0.000 C 
BRANCH  20  27
ATOM     26  N   UNL     1       6.339   3.476  13.805  0.00  0.00    +0.000 N 
ATOM     27  C   UNL     1       6.929   4.426  14.620  0.00  0.00    +0.000 C 
ATOM     28  O   UNL     1       7.560   5.386  14.183  0.00  0.00    +0.000 OA
ATOM     29  H   UNL     1       5.776   2.758  14.246  0.00  0.00    +0.000 HD
BRANCH  26  30
ATOM     30  C   UNL     1       6.366   3.505  12.331  0.00  0.00    +0.000 C 
ATOM     31  C   UNL     1       7.200   4.694  11.818  0.00  0.00    +0.000 C 
ATOM     32  C   UNL     1       4.927   3.610  11.784  0.00  0.00    +0.000 C 
BRANCH  30  34
ATOM     33  C   UNL     1       5.966   1.189  11.192  0.00  0.00    +0.000 C 
ATOM     34  C   UNL     1       6.967   2.175  11.787  0.00  0.00    +0.000 C 
ENDBRANCH  30  34
ENDBRANCH  26  30
ENDBRANCH  20  27
ENDBRANCH  19  23
ENDBRANCH   1  19
TORSDOF 7
ENDMDL
MODEL 8
REMARK VINA RESULT:      -7.9      0.874      1.619
REMARK  Name = 
REMARK  10 active torsions:
REMARK  status: ('A' for Active; 'I' for Inactive)
REMARK    1  A    between atoms: C_1  and  C_2
REMARK    2  A    between atoms: C_2  and  C_3
REMARK    3  A    between atoms: C_3  and  C_4
REMARK    4  A    between atoms: C_3  and  C_5
REMARK    5  A    between atoms: C_3  and  N_6
REMARK    6  A    between atoms: C_7  and  C_9
REMARK    7  A    between atoms: N_12  and  C_13
REMARK    8  A    between atoms: C_13  and  C_14
REMARK    9  A    between atoms: C_18  and  N_19
REMARK   10  A    between atoms: C_20  and  C_22
REMARK                            x       y       z     vdW  Elec       q    Type
REMARK                         _______ _______ _______ _____ _____    ______ ____
ROOT
ATOM      1  C   UNL     1       1.967   5.752  20.546  0.00  0.00    +0.000 A 
ATOM      2  C   UNL     1       2.759   5.917  19.400  0.00  0.00    +0.000 A 
ATOM      3  C   UNL     1       2.791   7.141  18.740  0.00  0.00    +0.000 A 
ATOM      4  C   UNL     1       2.019   8.209  19.206  0.00  0.00    +0.000 A 
ATOM      5  C   UNL     1       1.234   8.071  20.351  0.00  0.00    +0.000 A 
ATOM      6  C   UNL     1       1.243   6.852  21.038  0.00  0.00    +0.000 A 
ENDROOT
BRANCH   5   7
ATOM      7  N   UNL     1       0.394   9.088  20.841  0.00  0.00    +0.000 N 
ATOM      8  C   UNL     1       0.393  10.422  20.494  0.00  0.00    +0.000 C 
ATOM      9  O   UNL     1       1.147  10.962  19.687  0.00  0.00    +0.000 OA
ATOM     10  H   UNL     1      -0.349   8.802  21.492  0.00  0.00    +0.000 HD
BRANCH   8  11
ATOM     11  C   UNL     1      -0.617  11.292  21.145  0.00  0.00    +0.000 A 
ATOM     12  C   UNL     1      -1.377  12.174  20.355  0.00  0.00    +0.000 A 
ATOM     13  C   UNL     1      -2.308  13.022  20.948  0.00  0.00    +0.000 A 
ATOM     14  C   UNL     1      -2.479  12.985  22.324  0.00  0.00    +0.000 A 
ATOM     15 CL   UNL     1      -3.605  14.039  23.078  0.00  0.00    +0.000 Cl
ATOM     16  C   UNL     1      -1.736  12.101  23.094  0.00  0.00    +0.000 A 
ATOM     17  N   UNL     1      -0.801  11.246  22.524  0.00  0.00    +0.000 N 
ATOM     18  O   UNL     1      -0.159  10.456  23.296  0.00  0.00    +0.000 OA
ENDBRANCH   8  11
ENDBRANCH   5   7
BRANCH   1  19
ATOM     19  C   UNL     1       1.827   4.384  21.187  0.00  0.00    +0.000 C 
BRANCH  19  23
ATOM     20  C   UNL     1       3.676   2.264  17.903  0.00  0.00    +0.000 C 
ATOM     21  C   UNL     1       2.153   2.320  18.014  0.00  0.00    +0.000 C 
ATOM     22  C   UNL     1       1.706   3.444  18.946  0.00  0.00    +0.000 C 
ATOM     23  N   UNL     1       2.260   3.277  20.299  0.00  0.00    +0.000 NA
ATOM     24  C   UNL     1       3.732   3.218  20.274  0.00  0.00    +0.000 C 
ATOM     25  C   UNL     1       4.268   2.147  19.314  0.00  0.00    +0.000 C 
BRANCH  20  27
ATOM     26  N   UNL     1       5.576   3.742  17.423  0.00  0.00    +0.000 N 
ATOM     27  C   UNL     1       4.254   3.454  17.133  0.00  0.00    +0.000 C 
ATOM     28  O   UNL     1       3.578   4.119  16.351  0.00  0.00    +0.000 OA
ATOM     29  H   UNL     1       6.079   3.100  18.024  0.00  0.00    +0.000 HD
BRANCH  26  30
ATOM     30  C   UNL     1       6.343   4.847  16.820  0.00  0.00    +0.000 C 
ATOM     31  C   UNL     1       5.434   6.057  16.533  0.00  0.00    +0.000 C 
ATOM     32  C   UNL     1       7.001   4.373  15.508  0.00  0.00    +0.000 C 
BRANCH  30  34
ATOM     33  C   UNL     1       7.078   5.580  19.217  0.00  0.00    +0.000 C 
ATOM     34  C   UNL     1       7.493   5.278  17.779  0.00  0.00    +0.000 C 
ENDBRANCH  30  34
ENDBRANCH  26  30
ENDBRANCH  20  27
ENDBRANCH  19  23
ENDBRANCH   1  19
TORSDOF 7
ENDMDL
MODEL 9
REMARK VINA RESULT:      -7.9      1.369      1.920
REMARK  Name = 
REMARK  10 active torsions:
REMARK  status: ('A' for Active; 'I' for Inactive)
REMARK    1  A    between atoms: C_1  and  C_2
REMARK    2  A    between atoms: C_2  and  C_3
REMARK    3  A    between atoms: C_3  and  C_4
REMARK    4  A    between atoms: C_3  and  C_5
REMARK    5  A    between atoms: C_3  and  N_6
REMARK    6  A    between atoms: C_7  and  C_9
REMARK    7  A    between atoms: N_12  and  C_13
REMARK    8  A    between atoms: C_13  and  C_14
REMARK    9  A    between atoms: C_18  and  N_19
REMARK   10  A    between atoms: C_20  and  C_22
REMARK                            x       y       z     vdW  Elec       q    Type
REMARK                         _______ _______ _______ _____ _____    ______ ____
ROOT
ATOM      1  C   UNL     1       1.873   6.440  20.061  0.00  0.00    +0.000 A 
ATOM      2  C   UNL     1       2.499   6.389  18.807  0.00  0.00    +0.000 A 
ATOM      3  C   UNL     1       2.629   7.544  18.042  0.00  0.00    +0.000 A 
ATOM      4  C   UNL     1       2.120   8.757  18.512  0.00  0.00    +0.000 A 
ATOM      5  C   UNL     1       1.506   8.833  19.762  0.00  0.00    +0.000 A 
ATOM      6  C   UNL     1       1.421   7.678  20.548  0.00  0.00    +0.000 A 
ENDROOT
BRANCH   5   7
ATOM      7  N   UNL     1       0.925  10.010  20.270  0.00  0.00    +0.000 N 
ATOM      8  C   UNL     1      -0.366  10.458  20.092  0.00  0.00    +0.000 C 
ATOM      9  O   UNL     1      -1.244   9.900  19.439  0.00  0.00    +0.000 OA
ATOM     10  H   UNL     1       1.508  10.580  20.898  0.00  0.00    +0.000 HD
BRANCH   8  11
ATOM     11  C   UNL     1      -0.739  11.731  20.758  0.00  0.00    +0.000 A 
ATOM     12  C   UNL     1      -1.180  12.814  19.973  0.00  0.00    +0.000 A 
ATOM     13  C   UNL     1      -1.505  14.027  20.573  0.00  0.00    +0.000 A 
ATOM     14  C   UNL     1      -1.391  14.155  21.949  0.00  0.00    +0.000 A 
ATOM     15 CL   UNL     1      -1.765  15.651  22.705  0.00  0.00    +0.000 Cl
ATOM     16  C   UNL     1      -0.971  13.078  22.716  0.00  0.00    +0.000 A 
ATOM     17  N   UNL     1      -0.641  11.858  22.140  0.00  0.00    +0.000 N 
ATOM     18  O   UNL     1      -0.267  10.910  22.911  0.00  0.00    +0.000 OA
ENDBRANCH   8  11
ENDBRANCH   5   7
BRANCH   1  19
ATOM     19  C   UNL     1       1.612   5.162  20.836  0.00  0.00    +0.000 C 
BRANCH  19  23
ATOM     20  C   UNL     1       3.672   2.591  18.033  0.00  0.00    +0.000 C 
ATOM     21  C   UNL     1       2.158   2.777  17.929  0.00  0.00    +0.000 C 
ATOM     22  C   UNL     1       1.698   4.018  18.690  0.00  0.00    +0.000 C 
ATOM     23  N   UNL     1       2.054   3.942  20.116  0.00  0.00    +0.000 NA
ATOM     24  C   UNL     1       3.506   3.766  20.298  0.00  0.00    +0.000 C 
ATOM     25  C   UNL     1       4.062   2.568  19.518  0.00  0.00    +0.000 C 
BRANCH  20  27
ATOM     26  N   UNL     1       5.552   4.163  17.911  0.00  0.00    +0.000 N 
ATOM     27  C   UNL     1       4.449   3.651  17.250  0.00  0.00    +0.000 C 
ATOM     28  O   UNL     1       4.093   4.038  16.139  0.00  0.00    +0.000 OA
ATOM     29  H   UNL     1       5.816   3.737  18.791  0.00  0.00    +0.000 HD
BRANCH  26  30
ATOM     30  C   UNL     1       6.446   5.202  17.367  0.00  0.00    +0.000 C 
ATOM     31  C   UNL     1       5.637   6.329  16.696  0.00  0.00    +0.000 C 
ATOM     32  C   UNL     1       7.409   4.577  16.337  0.00  0.00    +0.000 C 
BRANCH  30  34
ATOM     33  C   UNL     1       7.895   7.189  18.247  0.00  0.00    +0.000 C 
ATOM     34  C   UNL     1       7.320   5.800  18.509  0.00  0.00    +0.000 C 
ENDBRANCH  30  34
ENDBRANCH  26  30
ENDBRANCH  20  27
ENDBRANCH  19  23
ENDBRANCH   1  19
TORSDOF 7
ENDMDL
