MODEL 1
REMARK VINA RESULT:      -8.6      0.000      0.000
REMARK  Name = 
REMARK  6 active torsions:
REMARK  status: ('A' for Active; 'I' for Inactive)
REMARK    1  A    between atoms: C_2  and  C_10
REMARK    2  A    between atoms: N_3  and  C_4
REMARK    3  A    between atoms: C_12  and  S_13
REMARK    4  A    between atoms: S_13  and  N_16
REMARK    5  A    between atoms: N_16  and  C_17
REMARK    6  A    between atoms: C_17  and  C_18
REMARK                            x       y       z     vdW  Elec       q    Type
REMARK                         _______ _______ _______ _____ _____    ______ ____
ROOT
ATOM      1  C   UNL     1       3.083   6.003  19.485  0.00  0.00    +0.000 A 
ATOM      2  C   UNL     1       4.367   6.122  18.919  0.00  0.00    +0.000 A 
ATOM      3  C   UNL     1       5.189   5.001  18.785  0.00  0.00    +0.000 A 
ATOM      4  C   UNL     1       4.743   3.753  19.218  0.00  0.00    +0.000 A 
ATOM      5  C   UNL     1       3.476   3.629  19.791  0.00  0.00    +0.000 A 
ATOM      6  C   UNL     1       2.636   4.743  19.909  0.00  0.00    +0.000 A 
ATOM      7 CL   UNL     1       1.047   4.441  20.518  0.00  0.00    +0.000 Cl
ENDROOT
BRANCH   1   9
ATOM      8  O   UNL     1       2.130   7.864  18.475  0.00  0.00    +0.000 OA
ATOM      9  C   UNL     1       2.266   7.248  19.527  0.00  0.00    +0.000 C 
ATOM     10  N   UNL     1       1.800   7.635  20.767  0.00  0.00    +0.000 N 
ATOM     11  H   UNL     1       2.084   7.086  21.569  0.00  0.00    +0.000 HD
BRANCH  10  12
ATOM     12  C   UNL     1       0.965   8.736  21.043  0.00  0.00    +0.000 A 
ATOM     13  C   UNL     1       0.435   9.565  20.051  0.00  0.00    +0.000 A 
ATOM     14  C   UNL     1      -0.379  10.648  20.392  0.00  0.00    +0.000 A 
ATOM     15  C   UNL     1      -0.665  10.913  21.728  0.00  0.00    +0.000 A 
ATOM     16  C   UNL     1      -0.155  10.083  22.724  0.00  0.00    +0.000 A 
ATOM     17  C   UNL     1       0.647   8.991  22.382  0.00  0.00    +0.000 A 
ENDBRANCH  10  12
ENDBRANCH   1   9
BRANCH   3  18
ATOM     18  S   UNL     1       6.756   5.155  17.945  0.00  0.00    +0.000 S 
ATOM     19  O   UNL     1       6.765   6.451  17.306  0.00  0.00    +0.000 OA
ATOM     20  O   UNL     1       7.778   4.738  18.871  0.00  0.00    +0.000 OA
BRANCH  18  21
ATOM     21  N   UNL     1       6.678   3.958  16.758  0.00  0.00    +0.000 NA
ATOM     22  H   UNL     1       6.755   3.015  17.137  0.00  0.00    +0.000 HD
BRANCH  21  23
ATOM     23  C   UNL     1       5.644   4.126  15.733  0.00  0.00    +0.000 C 
BRANCH  23  24
ATOM     24  C   UNL     1       6.231   4.238  14.350  0.00  0.00    +0.000 A 
ATOM     25  C   UNL     1       7.296   5.108  14.095  0.00  0.00    +0.000 A 
ATOM     26  C   UNL     1       7.832   5.141  12.817  0.00  0.00    +0.000 A 
ATOM     27  N   UNL     1       7.381   4.386  11.796  0.00  0.00    +0.000 NA
ATOM     28  C   UNL     1       6.351   3.555  12.061  0.00  0.00    +0.000 A 
ATOM     29  C   UNL     1       5.748   3.448  13.304  0.00  0.00    +0.000 A 
ENDBRANCH  23  24
ENDBRANCH  21  23
ENDBRANCH  18  21
ENDBRANCH   3  18
TORSDOF 6
ENDMDL
MODEL 2
REMARK VINA RESULT:      -8.1      3.094      4.777
REMARK  Name = 
REMARK  6 active torsions:
REMARK  status: ('A' for Active; 'I' for Inactive)
REMARK    1  A    between atoms: C_2  and  C_10
REMARK    2  A    between atoms: N_3  and  C_4
REMARK    3  A    between atoms: C_12  and  S_13
REMARK    4  A    between atoms: S_13  and  N_16
REMARK    5  A    between atoms: N_16  and  C_17
REMARK    6  A    between atoms: C_17  and  C_18
REMARK                            x       y       z     vdW  Elec       q    Type
REMARK                         _______ _______ _______ _____ _____    ______ ____
ROOT
ATOM      1  C   UNL     1       2.925   7.108  19.000  0.00  0.00    +0.000 A 
ATOM      2  C   UNL     1       3.924   6.159  19.291  0.00  0.00    +0.000 A 
ATOM      3  C   UNL     1       4.883   5.823  18.332  0.00  0.00    +0.000 A 
ATOM      4  C   UNL     1       4.854   6.425  17.074  0.00  0.00    +0.000 A 
ATOM      5  C   UNL     1       3.858   7.359  16.776  0.00  0.00    +0.000 A 
ATOM      6  C   UNL     1       2.906   7.718  17.737  0.00  0.00    +0.000 A 
ATOM      7 CL   UNL     1       1.807   8.973  17.290  0.00  0.00    +0.000 Cl
ENDROOT
BRANCH   1   9
ATOM      8  O   UNL     1       1.577   6.503  20.792  0.00  0.00    +0.000 OA
ATOM      9  C   UNL     1       1.988   7.437  20.110  0.00  0.00    +0.000 C 
ATOM     10  N   UNL     1       1.608   8.759  20.221  0.00  0.00    +0.000 N 
ATOM     11  H   UNL     1       1.942   9.406  19.517  0.00  0.00    +0.000 HD
BRANCH  10  12
ATOM     12  C   UNL     1       0.783   9.313  21.220  0.00  0.00    +0.000 A 
ATOM     13  C   UNL     1       0.862   8.954  22.568  0.00  0.00    +0.000 A 
ATOM     14  C   UNL     1       0.007   9.535  23.507  0.00  0.00    +0.000 A 
ATOM     15  C   UNL     1      -0.937  10.476  23.106  0.00  0.00    +0.000 A 
ATOM     16  C   UNL     1      -1.013  10.853  21.767  0.00  0.00    +0.000 A 
ATOM     17  C   UNL     1      -0.148  10.284  20.830  0.00  0.00    +0.000 A 
ENDBRANCH  10  12
ENDBRANCH   1   9
BRANCH   3  18
ATOM     18  S   UNL     1       6.214   4.718  18.770  0.00  0.00    +0.000 S 
ATOM     19  O   UNL     1       6.894   4.371  17.543  0.00  0.00    +0.000 OA
ATOM     20  O   UNL     1       6.897   5.301  19.898  0.00  0.00    +0.000 OA
BRANCH  18  21
ATOM     21  N   UNL     1       5.409   3.357  19.358  0.00  0.00    +0.000 NA
ATOM     22  H   UNL     1       5.182   3.425  20.349  0.00  0.00    +0.000 HD
BRANCH  21  23
ATOM     23  C   UNL     1       4.334   2.824  18.516  0.00  0.00    +0.000 C 
BRANCH  23  24
ATOM     24  C   UNL     1       3.004   2.839  19.221  0.00  0.00    +0.000 A 
ATOM     25  C   UNL     1       2.935   2.828  20.618  0.00  0.00    +0.000 A 
ATOM     26  C   UNL     1       1.689   2.889  21.221  0.00  0.00    +0.000 A 
ATOM     27  N   UNL     1       0.528   2.953  20.537  0.00  0.00    +0.000 NA
ATOM     28  C   UNL     1       0.615   2.961  19.190  0.00  0.00    +0.000 A 
ATOM     29  C   UNL     1       1.812   2.903  18.494  0.00  0.00    +0.000 A 
ENDBRANCH  23  24
ENDBRANCH  21  23
ENDBRANCH  18  21
ENDBRANCH   3  18
TORSDOF 6
ENDMDL
MODEL 3
REMARK VINA RESULT:      -8.1      3.597      9.039
REMARK  Name = 
REMARK  6 active torsions:
REMARK  status: ('A' for Active; 'I' for Inactive)
REMARK    1  A    between atoms: C_2  and  C_10
REMARK    2  A    between atoms: N_3  and  C_4
REMARK    3  A    between atoms: C_12  and  S_13
REMARK    4  A    between atoms: S_13  and  N_16
REMARK    5  A    between atoms: N_16  and  C_17
REMARK    6  A    between atoms: C_17  and  C_18
REMARK                            x       y       z     vdW  Elec       q    Type
REMARK                         _______ _______ _______ _____ _____    ______ ____
ROOT
ATOM      1  C   UNL     1       2.313   7.031  19.039  0.00  0.00    +0.000 A 
ATOM      2  C   UNL     1       2.114   8.354  18.600  0.00  0.00    +0.000 A 
ATOM      3  C   UNL     1       1.451   9.277  19.412  0.00  0.00    +0.000 A 
ATOM      4  C   UNL     1       0.976   8.891  20.665  0.00  0.00    +0.000 A 
ATOM      5  C   UNL     1       1.160   7.577  21.102  0.00  0.00    +0.000 A 
ATOM      6  C   UNL     1       1.843   6.650  20.305  0.00  0.00    +0.000 A 
ATOM      7 CL   UNL     1       2.117   5.095  21.006  0.00  0.00    +0.000 Cl
ENDROOT
BRANCH   1   9
ATOM      8  O   UNL     1       2.521   5.132  17.718  0.00  0.00    +0.000 OA
ATOM      9  C   UNL     1       3.084   6.144  18.123  0.00  0.00    +0.000 C 
ATOM     10  N   UNL     1       4.392   6.506  17.875  0.00  0.00    +0.000 N 
ATOM     11  H   UNL     1       4.760   7.311  18.368  0.00  0.00    +0.000 HD
BRANCH  10  12
ATOM     12  C   UNL     1       5.291   5.858  17.004  0.00  0.00    +0.000 A 
ATOM     13  C   UNL     1       5.176   5.901  15.612  0.00  0.00    +0.000 A 
ATOM     14  C   UNL     1       6.095   5.229  14.804  0.00  0.00    +0.000 A 
ATOM     15  C   UNL     1       7.134   4.505  15.381  0.00  0.00    +0.000 A 
ATOM     16  C   UNL     1       7.268   4.470  16.767  0.00  0.00    +0.000 A 
ATOM     17  C   UNL     1       6.358   5.154  17.575  0.00  0.00    +0.000 A 
ENDBRANCH  10  12
ENDBRANCH   1   9
BRANCH   3  18
ATOM     18  S   UNL     1       1.328  10.979  18.889  0.00  0.00    +0.000 S 
ATOM     19  O   UNL     1       1.266  11.784  20.087  0.00  0.00    +0.000 OA
ATOM     20  O   UNL     1       2.323  11.182  17.866  0.00  0.00    +0.000 OA
BRANCH  18  21
ATOM     21  N   UNL     1      -0.167  11.037  18.110  0.00  0.00    +0.000 NA
ATOM     22  H   UNL     1      -0.321  10.249  17.482  0.00  0.00    +0.000 HD
BRANCH  21  23
ATOM     23  C   UNL     1      -1.320  11.393  18.942  0.00  0.00    +0.000 C 
BRANCH  23  24
ATOM     24  C   UNL     1      -2.605  11.395  18.158  0.00  0.00    +0.000 A 
ATOM     25  C   UNL     1      -3.806  11.796  18.753  0.00  0.00    +0.000 A 
ATOM     26  C   UNL     1      -4.953  11.824  17.977  0.00  0.00    +0.000 A 
ATOM     27  N   UNL     1      -4.985  11.481  16.673  0.00  0.00    +0.000 NA
ATOM     28  C   UNL     1      -3.817  11.095  16.117  0.00  0.00    +0.000 A 
ATOM     29  C   UNL     1      -2.617  11.034  16.808  0.00  0.00    +0.000 A 
ENDBRANCH  23  24
ENDBRANCH  21  23
ENDBRANCH  18  21
ENDBRANCH   3  18
TORSDOF 6
ENDMDL
MODEL 4
REMARK VINA RESULT:      -8.1      1.244      1.809
REMARK  Name = 
REMARK  6 active torsions:
REMARK  status: ('A' for Active; 'I' for Inactive)
REMARK    1  A    between atoms: C_2  and  C_10
REMARK    2  A    between atoms: N_3  and  C_4
REMARK    3  A    between atoms: C_12  and  S_13
REMARK    4  A    between atoms: S_13  and  N_16
REMARK    5  A    between atoms: N_16  and  C_17
REMARK    6  A    between atoms: C_17  and  C_18
REMARK                            x       y       z     vdW  Elec       q    Type
REMARK                         _______ _______ _______ _____ _____    ______ ____
ROOT
ATOM      1  C   UNL     1       3.116   5.103  19.263  0.00  0.00    +0.000 A 
ATOM      2  C   UNL     1       4.448   5.549  19.154  0.00  0.00    +0.000 A 
ATOM      3  C   UNL     1       5.377   4.826  18.401  0.00  0.00    +0.000 A 
ATOM      4  C   UNL     1       4.991   3.652  17.755  0.00  0.00    +0.000 A 
ATOM      5  C   UNL     1       3.674   3.198  17.869  0.00  0.00    +0.000 A 
ATOM      6  C   UNL     1       2.730   3.928  18.602  0.00  0.00    +0.000 A 
ATOM      7 CL   UNL     1       1.109   3.332  18.565  0.00  0.00    +0.000 Cl
ENDROOT
BRANCH   1   9
ATOM      8  O   UNL     1       1.387   5.425  20.779  0.00  0.00    +0.000 OA
ATOM      9  C   UNL     1       2.193   5.978  20.038  0.00  0.00    +0.000 C 
ATOM     10  N   UNL     1       2.279   7.333  19.791  0.00  0.00    +0.000 N 
ATOM     11  H   UNL     1       2.918   7.641  19.068  0.00  0.00    +0.000 HD
BRANCH  10  12
ATOM     12  C   UNL     1       1.553   8.352  20.440  0.00  0.00    +0.000 A 
ATOM     13  C   UNL     1       1.457   8.460  21.830  0.00  0.00    +0.000 A 
ATOM     14  C   UNL     1       0.713   9.489  22.411  0.00  0.00    +0.000 A 
ATOM     15  C   UNL     1       0.055  10.415  21.607  0.00  0.00    +0.000 A 
ATOM     16  C   UNL     1       0.158  10.327  20.221  0.00  0.00    +0.000 A 
ATOM     17  C   UNL     1       0.914   9.306  19.640  0.00  0.00    +0.000 A 
ENDBRANCH  10  12
ENDBRANCH   1   9
BRANCH   3  18
ATOM     18  S   UNL     1       7.021   5.481  18.171  0.00  0.00    +0.000 S 
ATOM     19  O   UNL     1       6.894   6.918  18.092  0.00  0.00    +0.000 OA
ATOM     20  O   UNL     1       7.877   4.828  19.129  0.00  0.00    +0.000 OA
BRANCH  18  21
ATOM     21  N   UNL     1       7.467   4.884  16.657  0.00  0.00    +0.000 NA
ATOM     22  H   UNL     1       7.260   3.893  16.542  0.00  0.00    +0.000 HD
BRANCH  21  23
ATOM     23  C   UNL     1       7.124   5.720  15.502  0.00  0.00    +0.000 C 
BRANCH  23  24
ATOM     24  C   UNL     1       6.792   4.897  14.286  0.00  0.00    +0.000 A 
ATOM     25  C   UNL     1       5.630   4.120  14.244  0.00  0.00    +0.000 A 
ATOM     26  C   UNL     1       5.345   3.416  13.085  0.00  0.00    +0.000 A 
ATOM     27  N   UNL     1       6.129   3.431  11.988  0.00  0.00    +0.000 NA
ATOM     28  C   UNL     1       7.247   4.185  12.048  0.00  0.00    +0.000 A 
ATOM     29  C   UNL     1       7.619   4.924  13.160  0.00  0.00    +0.000 A 
ENDBRANCH  23  24
ENDBRANCH  21  23
ENDBRANCH  18  21
ENDBRANCH   3  18
TORSDOF 6
ENDMDL
MODEL 5
REMARK VINA RESULT:      -8.1      3.629      8.992
REMARK  Name = 
REMARK  6 active torsions:
REMARK  status: ('A' for Active; 'I' for Inactive)
REMARK    1  A    between atoms: C_2  and  C_10
REMARK    2  A    between atoms: N_3  and  C_4
REMARK    3  A    between atoms: C_12  and  S_13
REMARK    4  A    between atoms: S_13  and  N_16
REMARK    5  A    between atoms: N_16  and  C_17
REMARK    6  A    between atoms: C_17  and  C_18
REMARK                            x       y       z     vdW  Elec       q    Type
REMARK                         _______ _______ _______ _____ _____    ______ ____
ROOT
ATOM      1  C   UNL     1       2.310   7.027  19.070  0.00  0.00    +0.000 A 
ATOM      2  C   UNL     1       2.086   8.340  18.611  0.00  0.00    +0.000 A 
ATOM      3  C   UNL     1       1.419   9.267  19.416  0.00  0.00    +0.000 A 
ATOM      4  C   UNL     1       0.964   8.895  20.681  0.00  0.00    +0.000 A 
ATOM      5  C   UNL     1       1.173   7.591  21.137  0.00  0.00    +0.000 A 
ATOM      6  C   UNL     1       1.860   6.662  20.347  0.00  0.00    +0.000 A 
ATOM      7 CL   UNL     1       2.165   5.123  21.071  0.00  0.00    +0.000 Cl
ENDROOT
BRANCH   1   9
ATOM      8  O   UNL     1       2.499   5.158  17.705  0.00  0.00    +0.000 OA
ATOM      9  C   UNL     1       3.082   6.137  18.160  0.00  0.00    +0.000 C 
ATOM     10  N   UNL     1       4.412   6.454  17.973  0.00  0.00    +0.000 N 
ATOM     11  H   UNL     1       4.790   7.231  18.501  0.00  0.00    +0.000 HD
BRANCH  10  12
ATOM     12  C   UNL     1       5.320   5.796  17.119  0.00  0.00    +0.000 A 
ATOM     13  C   UNL     1       6.405   5.048  17.581  0.00  0.00    +0.000 A 
ATOM     14  C   UNL     1       7.274   4.428  16.681  0.00  0.00    +0.000 A 
ATOM     15  C   UNL     1       7.067   4.556  15.310  0.00  0.00    +0.000 A 
ATOM     16  C   UNL     1       5.979   5.286  14.838  0.00  0.00    +0.000 A 
ATOM     17  C   UNL     1       5.101   5.894  15.739  0.00  0.00    +0.000 A 
ENDBRANCH  10  12
ENDBRANCH   1   9
BRANCH   3  18
ATOM     18  S   UNL     1       1.265  10.958  18.865  0.00  0.00    +0.000 S 
ATOM     19  O   UNL     1       1.000  11.760  20.038  0.00  0.00    +0.000 OA
ATOM     20  O   UNL     1       2.372  11.219  17.980  0.00  0.00    +0.000 OA
BRANCH  18  21
ATOM     21  N   UNL     1      -0.117  10.925  17.897  0.00  0.00    +0.000 NA
ATOM     22  H   UNL     1       0.074  10.635  16.939  0.00  0.00    +0.000 HD
BRANCH  21  23
ATOM     23  C   UNL     1      -1.314  10.326  18.494  0.00  0.00    +0.000 C 
BRANCH  23  24
ATOM     24  C   UNL     1      -2.578  10.811  17.835  0.00  0.00    +0.000 A 
ATOM     25  C   UNL     1      -2.812  10.575  16.476  0.00  0.00    +0.000 A 
ATOM     26  C   UNL     1      -4.010  11.000  15.926  0.00  0.00    +0.000 A 
ATOM     27  N   UNL     1      -4.970  11.639  16.625  0.00  0.00    +0.000 NA
ATOM     28  C   UNL     1      -4.725  11.860  17.934  0.00  0.00    +0.000 A 
ATOM     29  C   UNL     1      -3.560  11.473  18.576  0.00  0.00    +0.000 A 
ENDBRANCH  23  24
ENDBRANCH  21  23
ENDBRANCH  18  21
ENDBRANCH   3  18
TORSDOF 6
ENDMDL
MODEL 6
REMARK VINA RESULT:      -8.0      3.789      4.929
REMARK  Name = 
REMARK  6 active torsions:
REMARK  status: ('A' for Active; 'I' for Inactive)
REMARK    1  A    between atoms: C_2  and  C_10
REMARK    2  A    between atoms: N_3  and  C_4
REMARK    3  A    between atoms: C_12  and  S_13
REMARK    4  A    between atoms: S_13  and  N_16
REMARK    5  A    between atoms: N_16  and  C_17
REMARK    6  A    between atoms: C_17  and  C_18
REMARK                            x       y       z     vdW  Elec       q    Type
REMARK                         _______ _______ _______ _____ _____    ______ ____
ROOT
ATOM      1  C   UNL     1       3.360   6.209  18.016  0.00  0.00    +0.000 A 
ATOM      2  C   UNL     1       4.726   6.476  17.797  0.00  0.00    +0.000 A 
ATOM      3  C   UNL     1       5.553   5.508  17.221  0.00  0.00    +0.000 A 
ATOM      4  C   UNL     1       5.030   4.266  16.864  0.00  0.00    +0.000 A 
ATOM      5  C   UNL     1       3.679   3.991  17.089  0.00  0.00    +0.000 A 
ATOM      6  C   UNL     1       2.837   4.962  17.645  0.00  0.00    +0.000 A 
ATOM      7 CL   UNL     1       1.164   4.547  17.758  0.00  0.00    +0.000 Cl
ENDROOT
BRANCH   1   9
ATOM      8  O   UNL     1       2.190   7.224  19.747  0.00  0.00    +0.000 OA
ATOM      9  C   UNL     1       2.555   7.328  18.580  0.00  0.00    +0.000 C 
ATOM     10  N   UNL     1       2.226   8.347  17.709  0.00  0.00    +0.000 N 
ATOM     11  H   UNL     1       2.503   8.247  16.740  0.00  0.00    +0.000 HD
BRANCH  10  12
ATOM     12  C   UNL     1       1.526   9.529  18.026  0.00  0.00    +0.000 A 
ATOM     13  C   UNL     1       2.158  10.739  18.323  0.00  0.00    +0.000 A 
ATOM     14  C   UNL     1       1.405  11.872  18.640  0.00  0.00    +0.000 A 
ATOM     15  C   UNL     1       0.015  11.803  18.665  0.00  0.00    +0.000 A 
ATOM     16  C   UNL     1      -0.625  10.606  18.354  0.00  0.00    +0.000 A 
ATOM     17  C   UNL     1       0.127   9.476  18.023  0.00  0.00    +0.000 A 
ENDBRANCH  10  12
ENDBRANCH   1   9
BRANCH   3  18
ATOM     18  S   UNL     1       7.246   5.918  16.833  0.00  0.00    +0.000 S 
ATOM     19  O   UNL     1       8.080   5.161  17.739  0.00  0.00    +0.000 OA
ATOM     20  O   UNL     1       7.385   5.840  15.401  0.00  0.00    +0.000 OA
BRANCH  18  21
ATOM     21  N   UNL     1       7.348   7.555  17.229  0.00  0.00    +0.000 NA
ATOM     22  H   UNL     1       6.443   8.024  17.225  0.00  0.00    +0.000 HD
BRANCH  21  23
ATOM     23  C   UNL     1       8.211   7.896  18.364  0.00  0.00    +0.000 C 
BRANCH  23  24
ATOM     24  C   UNL     1       8.536   9.365  18.406  0.00  0.00    +0.000 A 
ATOM     25  C   UNL     1       7.960  10.251  17.490  0.00  0.00    +0.000 A 
ATOM     26  C   UNL     1       8.254  11.601  17.599  0.00  0.00    +0.000 A 
ATOM     27  N   UNL     1       9.074  12.116  18.537  0.00  0.00    +0.000 NA
ATOM     28  C   UNL     1       9.622  11.245  19.411  0.00  0.00    +0.000 A 
ATOM     29  C   UNL     1       9.390   9.879  19.385  0.00  0.00    +0.000 A 
ENDBRANCH  23  24
ENDBRANCH  21  23
ENDBRANCH  18  21
ENDBRANCH   3  18
TORSDOF 6
ENDMDL
MODEL 7
REMARK VINA RESULT:      -8.0      1.078      1.446
REMARK  Name = 
REMARK  6 active torsions:
REMARK  status: ('A' for Active; 'I' for Inactive)
REMARK    1  A    between atoms: C_2  and  C_10
REMARK    2  A    between atoms: N_3  and  C_4
REMARK    3  A    between atoms: C_12  and  S_13
REMARK    4  A    between atoms: S_13  and  N_16
REMARK    5  A    between atoms: N_16  and  C_17
REMARK    6  A    between atoms: C_17  and  C_18
REMARK                            x       y       z     vdW  Elec       q    Type
REMARK                         _______ _______ _______ _____ _____    ______ ____
ROOT
ATOM      1  C   UNL     1       2.910   4.971  20.132  0.00  0.00    +0.000 A 
ATOM      2  C   UNL     1       4.023   5.467  19.426  0.00  0.00    +0.000 A 
ATOM      3  C   UNL     1       5.044   4.605  19.017  0.00  0.00    +0.000 A 
ATOM      4  C   UNL     1       4.969   3.245  19.313  0.00  0.00    +0.000 A 
ATOM      5  C   UNL     1       3.874   2.748  20.023  0.00  0.00    +0.000 A 
ATOM      6  C   UNL     1       2.835   3.600  20.417  0.00  0.00    +0.000 A 
ATOM      7 CL   UNL     1       1.478   2.848  21.178  0.00  0.00    +0.000 Cl
ENDROOT
BRANCH   1   9
ATOM      8  O   UNL     1       0.727   5.527  20.697  0.00  0.00    +0.000 OA
ATOM      9  C   UNL     1       1.851   5.963  20.468  0.00  0.00    +0.000 C 
ATOM     10  N   UNL     1       2.216   7.293  20.415  0.00  0.00    +0.000 N 
ATOM     11  H   UNL     1       3.154   7.512  20.102  0.00  0.00    +0.000 HD
BRANCH  10  12
ATOM     12  C   UNL     1       1.407   8.399  20.744  0.00  0.00    +0.000 A 
ATOM     13  C   UNL     1       0.999   8.690  22.048  0.00  0.00    +0.000 A 
ATOM     14  C   UNL     1       0.188   9.797  22.306  0.00  0.00    +0.000 A 
ATOM     15  C   UNL     1      -0.225  10.620  21.262  0.00  0.00    +0.000 A 
ATOM     16  C   UNL     1       0.190  10.348  19.961  0.00  0.00    +0.000 A 
ATOM     17  C   UNL     1       1.013   9.249  19.704  0.00  0.00    +0.000 A 
ENDBRANCH  10  12
ENDBRANCH   1   9
BRANCH   3  18
ATOM     18  S   UNL     1       6.376   5.236  18.011  0.00  0.00    +0.000 S 
ATOM     19  O   UNL     1       6.711   6.544  18.527  0.00  0.00    +0.000 OA
ATOM     20  O   UNL     1       7.348   4.180  17.881  0.00  0.00    +0.000 OA
BRANCH  18  21
ATOM     21  N   UNL     1       5.664   5.410  16.491  0.00  0.00    +0.000 NA
ATOM     22  H   UNL     1       6.050   6.187  15.957  0.00  0.00    +0.000 HD
BRANCH  21  23
ATOM     23  C   UNL     1       5.459   4.177  15.725  0.00  0.00    +0.000 C 
BRANCH  23  24
ATOM     24  C   UNL     1       6.097   4.246  14.362  0.00  0.00    +0.000 A 
ATOM     25  C   UNL     1       7.210   5.062  14.135  0.00  0.00    +0.000 A 
ATOM     26  C   UNL     1       7.789   5.056  12.876  0.00  0.00    +0.000 A 
ATOM     27  N   UNL     1       7.338   4.310  11.847  0.00  0.00    +0.000 NA
ATOM     28  C   UNL     1       6.261   3.531  12.086  0.00  0.00    +0.000 A 
ATOM     29  C   UNL     1       5.613   3.467  13.308  0.00  0.00    +0.000 A 
ENDBRANCH  23  24
ENDBRANCH  21  23
ENDBRANCH  18  21
ENDBRANCH   3  18
TORSDOF 6
ENDMDL
MODEL 8
REMARK VINA RESULT:      -8.0      3.052      4.271
REMARK  Name = 
REMARK  6 active torsions:
REMARK  status: ('A' for Active; 'I' for Inactive)
REMARK    1  A    between atoms: C_2  and  C_10
REMARK    2  A    between atoms: N_3  and  C_4
REMARK    3  A    between atoms: C_12  and  S_13
REMARK    4  A    between atoms: S_13  and  N_16
REMARK    5  A    between atoms: N_16  and  C_17
REMARK    6  A    between atoms: C_17  and  C_18
REMARK                            x       y       z     vdW  Elec       q    Type
REMARK                         _______ _______ _______ _____ _____    ______ ____
ROOT
ATOM      1  C   UNL     1       1.530   8.873  20.046  0.00  0.00    +0.000 A 
ATOM      2  C   UNL     1       1.711   7.516  20.379  0.00  0.00    +0.000 A 
ATOM      3  C   UNL     1       2.204   6.614  19.432  0.00  0.00    +0.000 A 
ATOM      4  C   UNL     1       2.517   7.053  18.146  0.00  0.00    +0.000 A 
ATOM      5  C   UNL     1       2.329   8.395  17.807  0.00  0.00    +0.000 A 
ATOM      6  C   UNL     1       1.856   9.311  18.755  0.00  0.00    +0.000 A 
ATOM      7 CL   UNL     1       1.786  10.962  18.252  0.00  0.00    +0.000 Cl
ENDROOT
BRANCH   1   9
ATOM      8  O   UNL     1       1.501   9.548  22.268  0.00  0.00    +0.000 OA
ATOM      9  C   UNL     1       1.057   9.760  21.145  0.00  0.00    +0.000 C 
ATOM     10  N   UNL     1       0.098  10.694  20.809  0.00  0.00    +0.000 N 
ATOM     11  H   UNL     1      -0.260  10.683  19.861  0.00  0.00    +0.000 HD
BRANCH  10  12
ATOM     12  C   UNL     1      -0.455  11.673  21.660  0.00  0.00    +0.000 A 
ATOM     13  C   UNL     1      -0.019  12.999  21.690  0.00  0.00    +0.000 A 
ATOM     14  C   UNL     1      -0.603  13.918  22.564  0.00  0.00    +0.000 A 
ATOM     15  C   UNL     1      -1.625  13.516  23.419  0.00  0.00    +0.000 A 
ATOM     16  C   UNL     1      -2.079  12.200  23.386  0.00  0.00    +0.000 A 
ATOM     17  C   UNL     1      -1.505  11.284  22.500  0.00  0.00    +0.000 A 
ENDBRANCH  10  12
ENDBRANCH   1   9
BRANCH   3  18
ATOM     18  S   UNL     1       2.548   4.932  19.917  0.00  0.00    +0.000 S 
ATOM     19  O   UNL     1       2.275   4.838  21.334  0.00  0.00    +0.000 OA
ATOM     20  O   UNL     1       1.919   4.072  18.946  0.00  0.00    +0.000 OA
BRANCH  18  21
ATOM     21  N   UNL     1       4.210   4.789  19.667  0.00  0.00    +0.000 NA
ATOM     22  H   UNL     1       4.732   4.635  20.529  0.00  0.00    +0.000 HD
BRANCH  21  23
ATOM     23  C   UNL     1       4.627   3.951  18.539  0.00  0.00    +0.000 C 
BRANCH  23  24
ATOM     24  C   UNL     1       5.622   4.651  17.651  0.00  0.00    +0.000 A 
ATOM     25  C   UNL     1       5.871   4.190  16.354  0.00  0.00    +0.000 A 
ATOM     26  C   UNL     1       6.761   4.896  15.560  0.00  0.00    +0.000 A 
ATOM     27  N   UNL     1       7.410   6.006  15.966  0.00  0.00    +0.000 NA
ATOM     28  C   UNL     1       7.158   6.434  17.221  0.00  0.00    +0.000 A 
ATOM     29  C   UNL     1       6.286   5.799  18.091  0.00  0.00    +0.000 A 
ENDBRANCH  23  24
ENDBRANCH  21  23
ENDBRANCH  18  21
ENDBRANCH   3  18
TORSDOF 6
ENDMDL
MODEL 9
REMARK VINA RESULT:      -8.0      3.516      4.549
REMARK  Name = 
REMARK  6 active torsions:
REMARK  status: ('A' for Active; 'I' for Inactive)
REMARK    1  A    between atoms: C_2  and  C_10
REMARK    2  A    between atoms: N_3  and  C_4
REMARK    3  A    between atoms: C_12  and  S_13
REMARK    4  A    between atoms: S_13  and  N_16
REMARK    5  A    between atoms: N_16  and  C_17
REMARK    6  A    between atoms: C_17  and  C_18
REMARK                            x       y       z     vdW  Elec       q    Type
REMARK                         _______ _______ _______ _____ _____    ______ ____
ROOT
ATOM      1  C   UNL     1       3.453   6.198  18.134  0.00  0.00    +0.000 A 
ATOM      2  C   UNL     1       4.850   6.364  18.064  0.00  0.00    +0.000 A 
ATOM      3  C   UNL     1       5.669   5.308  17.657  0.00  0.00    +0.000 A 
ATOM      4  C   UNL     1       5.106   4.077  17.320  0.00  0.00    +0.000 A 
ATOM      5  C   UNL     1       3.723   3.903  17.398  0.00  0.00    +0.000 A 
ATOM      6  C   UNL     1       2.892   4.962  17.783  0.00  0.00    +0.000 A 
ATOM      7 CL   UNL     1       1.192   4.660  17.720  0.00  0.00    +0.000 Cl
ENDROOT
BRANCH   1   9
ATOM      8  O   UNL     1       2.539   8.284  17.678  0.00  0.00    +0.000 OA
ATOM      9  C   UNL     1       2.668   7.403  18.522  0.00  0.00    +0.000 C 
ATOM     10  N   UNL     1       2.222   7.450  19.827  0.00  0.00    +0.000 N 
ATOM     11  H   UNL     1       2.498   6.699  20.447  0.00  0.00    +0.000 HD
BRANCH  10  12
ATOM     12  C   UNL     1       1.417   8.454  20.403  0.00  0.00    +0.000 A 
ATOM     13  C   UNL     1       0.740   9.419  19.653  0.00  0.00    +0.000 A 
ATOM     14  C   UNL     1      -0.034  10.394  20.286  0.00  0.00    +0.000 A 
ATOM     15  C   UNL     1      -0.133  10.415  21.674  0.00  0.00    +0.000 A 
ATOM     16  C   UNL     1       0.525   9.448  22.431  0.00  0.00    +0.000 A 
ATOM     17  C   UNL     1       1.287   8.463  21.797  0.00  0.00    +0.000 A 
ENDBRANCH  10  12
ENDBRANCH   1   9
BRANCH   3  18
ATOM     18  S   UNL     1       7.420   5.583  17.451  0.00  0.00    +0.000 S 
ATOM     19  O   UNL     1       8.100   4.538  18.181  0.00  0.00    +0.000 OA
ATOM     20  O   UNL     1       7.651   5.827  16.049  0.00  0.00    +0.000 OA
BRANCH  18  21
ATOM     21  N   UNL     1       7.675   7.056  18.233  0.00  0.00    +0.000 NA
ATOM     22  H   UNL     1       8.432   7.020  18.914  0.00  0.00    +0.000 HD
BRANCH  21  23
ATOM     23  C   UNL     1       7.668   8.252  17.385  0.00  0.00    +0.000 C 
BRANCH  23  24
ATOM     24  C   UNL     1       8.313   9.431  18.064  0.00  0.00    +0.000 A 
ATOM     25  C   UNL     1       8.993   9.273  19.276  0.00  0.00    +0.000 A 
ATOM     26  C   UNL     1       9.610  10.380  19.839  0.00  0.00    +0.000 A 
ATOM     27  N   UNL     1       9.589  11.610  19.287  0.00  0.00    +0.000 NA
ATOM     28  C   UNL     1       8.926  11.742  18.119  0.00  0.00    +0.000 A 
ATOM     29  C   UNL     1       8.279  10.698  17.478  0.00  0.00    +0.000 A 
ENDBRANCH  23  24
ENDBRANCH  21  23
ENDBRANCH  18  21
ENDBRANCH   3  18
TORSDOF 6
ENDMDL
