MODEL 1
REMARK VINA RESULT:      -9.5      0.000      0.000
REMARK  Name = 
REMARK  9 active torsions:
REMARK  status: ('A' for Active; 'I' for Inactive)
REMARK    1  A    between atoms: C_1  and  C_2
REMARK    2  A    between atoms: C_2  and  C_3
REMARK    3  A    between atoms: C_4  and  O_5
REMARK    4  A    between atoms: C_7  and  S_8
REMARK    5  A    between atoms: S_8  and  C_9
REMARK    6  A    between atoms: C_9  and  C_10
REMARK    7  A    between atoms: C_10  and  C_12
REMARK    8  A    between atoms: C_20  and  C_21
REMARK    9  A    between atoms: C_21  and  C_22
REMARK                            x       y       z     vdW  Elec       q    Type
REMARK                         _______ _______ _______ _____ _____    ______ ____
ROOT
ATOM      1  C   UNL     1       2.972   3.617  19.723  0.00  0.00    +0.000 A 
ATOM      2  C   UNL     1       4.069   2.939  19.207  0.00  0.00    +0.000 A 
ATOM      3  N   UNL     1       5.263   3.485  18.972  0.00  0.00    +0.000 NA
ATOM      4  C   UNL     1       5.382   4.784  19.250  0.00  0.00    +0.000 A 
ATOM      5  N   UNL     1       4.387   5.559  19.709  0.00  0.00    +0.000 NA
ATOM      6  C   UNL     1       3.177   4.983  19.928  0.00  0.00    +0.000 A 
ENDROOT
BRANCH   1   8
ATOM      7  C   UNL     1       0.818   2.681  18.817  0.00  0.00    +0.000 C 
ATOM      8  C   UNL     1       1.689   2.903  20.044  0.00  0.00    +0.000 C 
ENDBRANCH   1   8
BRANCH   2   9
ATOM      9  O   UNL     1       4.052   1.611  18.891  0.00  0.00    +0.000 OA
ATOM     10  H   UNL     1       3.145   1.280  18.910  0.00  0.00    +0.000 HD
ENDBRANCH   2   9
BRANCH   4  11
ATOM     11  S   UNL     1       7.000   5.498  19.121  0.00  0.00    +0.000 S 
BRANCH  11  12
ATOM     12  C   UNL     1       7.560   4.657  17.597  0.00  0.00    +0.000 C 
BRANCH  12  13
ATOM     13  C   UNL     1       7.262   5.504  16.368  0.00  0.00    +0.000 C 
ATOM     14  O   UNL     1       7.534   6.701  16.307  0.00  0.00    +0.000 OA
BRANCH  13  15
ATOM     15  C   UNL     1       6.728   4.857  15.128  0.00  0.00    +0.000 A 
ATOM     16  C   UNL     1       5.488   4.214  15.066  0.00  0.00    +0.000 A 
ATOM     17  C   UNL     1       5.057   3.640  13.862  0.00  0.00    +0.000 A 
ATOM     18  C   UNL     1       5.862   3.718  12.728  0.00  0.00    +0.000 A 
ATOM     19  F   UNL     1       5.442   3.172  11.580  0.00  0.00    +0.000 F 
ATOM     20  C   UNL     1       7.090   4.362  12.771  0.00  0.00    +0.000 A 
ATOM     21  C   UNL     1       7.522   4.932  13.970  0.00  0.00    +0.000 A 
ENDBRANCH  13  15
ENDBRANCH  12  13
ENDBRANCH  11  12
ENDBRANCH   4  11
BRANCH   6  22
ATOM     22  C   UNL     1       2.098   5.933  20.448  0.00  0.00    +0.000 C 
BRANCH  22  23
ATOM     23  C   UNL     1       1.894   7.230  19.670  0.00  0.00    +0.000 A 
ATOM     24  C   UNL     1       2.339   7.306  18.337  0.00  0.00    +0.000 A 
ATOM     25  C   UNL     1       2.293   8.500  17.627  0.00  0.00    +0.000 A 
ATOM     26  C   UNL     1       1.766   9.639  18.223  0.00  0.00    +0.000 A 
ATOM     27  C   UNL     1       1.194   9.578  19.499  0.00  0.00    +0.000 A 
ATOM     28  C   UNL     1       0.566  10.719  20.022  0.00  0.00    +0.000 A 
ATOM     29  C   UNL     1      -0.096  10.679  21.244  0.00  0.00    +0.000 A 
ATOM     30  C   UNL     1      -0.119   9.493  21.967  0.00  0.00    +0.000 A 
ATOM     31  C   UNL     1       0.544   8.359  21.480  0.00  0.00    +0.000 A 
ATOM     32  C   UNL     1       1.223   8.361  20.236  0.00  0.00    +0.000 A 
ENDBRANCH  22  23
ENDBRANCH   6  22
TORSDOF 8
ENDMDL
MODEL 2
REMARK VINA RESULT:      -9.2      1.085      1.442
REMARK  Name = 
REMARK  9 active torsions:
REMARK  status: ('A' for Active; 'I' for Inactive)
REMARK    1  A    between atoms: C_1  and  C_2
REMARK    2  A    between atoms: C_2  and  C_3
REMARK    3  A    between atoms: C_4  and  O_5
REMARK    4  A    between atoms: C_7  and  S_8
REMARK    5  A    between atoms: S_8  and  C_9
REMARK    6  A    between atoms: C_9  and  C_10
REMARK    7  A    between atoms: C_10  and  C_12
REMARK    8  A    between atoms: C_20  and  C_21
REMARK    9  A    between atoms: C_21  and  C_22
REMARK                            x       y       z     vdW  Elec       q    Type
REMARK                         _______ _______ _______ _____ _____    ______ ____
ROOT
ATOM      1  C   UNL     1       2.482   3.871  19.060  0.00  0.00    +0.000 A 
ATOM      2  C   UNL     1       3.122   3.000  18.188  0.00  0.00    +0.000 A 
ATOM      3  N   UNL     1       4.363   3.158  17.725  0.00  0.00    +0.000 NA
ATOM      4  C   UNL     1       5.011   4.248  18.135  0.00  0.00    +0.000 A 
ATOM      5  N   UNL     1       4.489   5.188  18.939  0.00  0.00    +0.000 NA
ATOM      6  C   UNL     1       3.219   5.011  19.387  0.00  0.00    +0.000 A 
ENDROOT
BRANCH   1   8
ATOM      7  C   UNL     1       1.164   2.926  20.985  0.00  0.00    +0.000 C 
ATOM      8  C   UNL     1       1.115   3.570  19.607  0.00  0.00    +0.000 C 
ENDBRANCH   1   8
BRANCH   2   9
ATOM      9  O   UNL     1       2.548   1.857  17.712  0.00  0.00    +0.000 OA
ATOM     10  H   UNL     1       1.748   1.657  18.214  0.00  0.00    +0.000 HD
ENDBRANCH   2   9
BRANCH   4  11
ATOM     11  S   UNL     1       6.720   4.396  17.685  0.00  0.00    +0.000 S 
BRANCH  11  12
ATOM     12  C   UNL     1       6.683   6.086  16.986  0.00  0.00    +0.000 C 
BRANCH  12  13
ATOM     13  C   UNL     1       5.837   6.134  15.723  0.00  0.00    +0.000 C 
ATOM     14  O   UNL     1       4.912   6.930  15.576  0.00  0.00    +0.000 OA
BRANCH  13  15
ATOM     15  C   UNL     1       6.197   5.276  14.550  0.00  0.00    +0.000 A 
ATOM     16  C   UNL     1       7.405   5.390  13.854  0.00  0.00    +0.000 A 
ATOM     17  C   UNL     1       7.670   4.541  12.770  0.00  0.00    +0.000 A 
ATOM     18  C   UNL     1       6.733   3.580  12.395  0.00  0.00    +0.000 A 
ATOM     19  F   UNL     1       6.996   2.769  11.363  0.00  0.00    +0.000 F 
ATOM     20  C   UNL     1       5.536   3.447  13.084  0.00  0.00    +0.000 A 
ATOM     21  C   UNL     1       5.270   4.294  14.161  0.00  0.00    +0.000 A 
ENDBRANCH  13  15
ENDBRANCH  12  13
ENDBRANCH  11  12
ENDBRANCH   4  11
BRANCH   6  22
ATOM     22  C   UNL     1       2.698   6.125  20.295  0.00  0.00    +0.000 C 
BRANCH  22  23
ATOM     23  C   UNL     1       2.167   7.379  19.606  0.00  0.00    +0.000 A 
ATOM     24  C   UNL     1       2.426   7.568  18.236  0.00  0.00    +0.000 A 
ATOM     25  C   UNL     1       2.076   8.749  17.591  0.00  0.00    +0.000 A 
ATOM     26  C   UNL     1       1.423   9.753  18.294  0.00  0.00    +0.000 A 
ATOM     27  C   UNL     1       1.030   9.556  19.622  0.00  0.00    +0.000 A 
ATOM     28  C   UNL     1       0.269  10.546  20.265  0.00  0.00    +0.000 A 
ATOM     29  C   UNL     1      -0.222  10.353  21.551  0.00  0.00    +0.000 A 
ATOM     30  C   UNL     1       0.061   9.167  22.217  0.00  0.00    +0.000 A 
ATOM     31  C   UNL     1       0.859   8.190  21.607  0.00  0.00    +0.000 A 
ATOM     32  C   UNL     1       1.371   8.350  20.295  0.00  0.00    +0.000 A 
ENDBRANCH  22  23
ENDBRANCH   6  22
TORSDOF 8
ENDMDL
MODEL 3
REMARK VINA RESULT:      -8.8      1.340      1.570
REMARK  Name = 
REMARK  9 active torsions:
REMARK  status: ('A' for Active; 'I' for Inactive)
REMARK    1  A    between atoms: C_1  and  C_2
REMARK    2  A    between atoms: C_2  and  C_3
REMARK    3  A    between atoms: C_4  and  O_5
REMARK    4  A    between atoms: C_7  and  S_8
REMARK    5  A    between atoms: S_8  and  C_9
REMARK    6  A    between atoms: C_9  and  C_10
REMARK    7  A    between atoms: C_10  and  C_12
REMARK    8  A    between atoms: C_20  and  C_21
REMARK    9  A    between atoms: C_21  and  C_22
REMARK                            x       y       z     vdW  Elec       q    Type
REMARK                         _______ _______ _______ _____ _____    ______ ____
ROOT
ATOM      1  C   UNL     1       2.357   4.012  18.855  0.00  0.00    +0.000 A 
ATOM      2  C   UNL     1       2.868   3.148  17.894  0.00  0.00    +0.000 A 
ATOM      3  N   UNL     1       4.052   3.286  17.295  0.00  0.00    +0.000 NA
ATOM      4  C   UNL     1       4.774   4.346  17.655  0.00  0.00    +0.000 A 
ATOM      5  N   UNL     1       4.376   5.276  18.537  0.00  0.00    +0.000 NA
ATOM      6  C   UNL     1       3.161   5.121  19.124  0.00  0.00    +0.000 A 
ENDROOT
BRANCH   1   8
ATOM      7  C   UNL     1       1.230   2.934  20.831  0.00  0.00    +0.000 C 
ATOM      8  C   UNL     1       1.054   3.732  19.547  0.00  0.00    +0.000 C 
ENDBRANCH   1   8
BRANCH   2   9
ATOM      9  O   UNL     1       2.209   2.035  17.458  0.00  0.00    +0.000 OA
ATOM     10  H   UNL     1       2.843   1.339  17.245  0.00  0.00    +0.000 HD
ENDBRANCH   2   9
BRANCH   4  11
ATOM     11  S   UNL     1       6.425   4.460  17.016  0.00  0.00    +0.000 S 
BRANCH  11  12
ATOM     12  C   UNL     1       6.110   5.601  15.621  0.00  0.00    +0.000 C 
BRANCH  12  13
ATOM     13  C   UNL     1       6.933   5.211  14.403  0.00  0.00    +0.000 C 
ATOM     14  O   UNL     1       8.093   5.586  14.240  0.00  0.00    +0.000 OA
BRANCH  13  15
ATOM     15  C   UNL     1       6.380   4.237  13.410  0.00  0.00    +0.000 A 
ATOM     16  C   UNL     1       5.016   3.961  13.278  0.00  0.00    +0.000 A 
ATOM     17  C   UNL     1       4.578   3.041  12.315  0.00  0.00    +0.000 A 
ATOM     18  C   UNL     1       5.504   2.409  11.487  0.00  0.00    +0.000 A 
ATOM     19  F   UNL     1       5.078   1.535  10.566  0.00  0.00    +0.000 F 
ATOM     20  C   UNL     1       6.859   2.681  11.598  0.00  0.00    +0.000 A 
ATOM     21  C   UNL     1       7.297   3.595  12.558  0.00  0.00    +0.000 A 
ENDBRANCH  13  15
ENDBRANCH  12  13
ENDBRANCH  11  12
ENDBRANCH   4  11
BRANCH   6  22
ATOM     22  C   UNL     1       2.780   6.223  20.113  0.00  0.00    +0.000 C 
BRANCH  22  23
ATOM     23  C   UNL     1       2.180   7.497  19.524  0.00  0.00    +0.000 A 
ATOM     24  C   UNL     1       2.355   7.765  18.153  0.00  0.00    +0.000 A 
ATOM     25  C   UNL     1       1.939   8.968  17.594  0.00  0.00    +0.000 A 
ATOM     26  C   UNL     1       1.304   9.915  18.386  0.00  0.00    +0.000 A 
ATOM     27  C   UNL     1       0.992   9.637  19.721  0.00  0.00    +0.000 A 
ATOM     28  C   UNL     1       0.246  10.570  20.459  0.00  0.00    +0.000 A 
ATOM     29  C   UNL     1      -0.165  10.296  21.758  0.00  0.00    +0.000 A 
ATOM     30  C   UNL     1       0.184   9.086  22.342  0.00  0.00    +0.000 A 
ATOM     31  C   UNL     1       0.970   8.164  21.636  0.00  0.00    +0.000 A 
ATOM     32  C   UNL     1       1.401   8.407  20.308  0.00  0.00    +0.000 A 
ENDBRANCH  22  23
ENDBRANCH   6  22
TORSDOF 8
ENDMDL
MODEL 4
REMARK VINA RESULT:      -8.7      0.834      2.056
REMARK  Name = 
REMARK  9 active torsions:
REMARK  status: ('A' for Active; 'I' for Inactive)
REMARK    1  A    between atoms: C_1  and  C_2
REMARK    2  A    between atoms: C_2  and  C_3
REMARK    3  A    between atoms: C_4  and  O_5
REMARK    4  A    between atoms: C_7  and  S_8
REMARK    5  A    between atoms: S_8  and  C_9
REMARK    6  A    between atoms: C_9  and  C_10
REMARK    7  A    between atoms: C_10  and  C_12
REMARK    8  A    between atoms: C_20  and  C_21
REMARK    9  A    between atoms: C_21  and  C_22
REMARK                            x       y       z     vdW  Elec       q    Type
REMARK                         _______ _______ _______ _____ _____    ______ ____
ROOT
ATOM      1  C   UNL     1       2.788   4.352  19.053  0.00  0.00    +0.000 A 
ATOM      2  C   UNL     1       3.801   3.456  19.372  0.00  0.00    +0.000 A 
ATOM      3  N   UNL     1       5.102   3.750  19.392  0.00  0.00    +0.000 NA
ATOM      4  C   UNL     1       5.429   5.000  19.065  0.00  0.00    +0.000 A 
ATOM      5  N   UNL     1       4.551   5.946  18.695  0.00  0.00    +0.000 NA
ATOM      6  C   UNL     1       3.233   5.619  18.670  0.00  0.00    +0.000 A 
ENDROOT
BRANCH   1   8
ATOM      7  C   UNL     1       0.927   3.571  20.556  0.00  0.00    +0.000 C 
ATOM      8  C   UNL     1       1.340   3.964  19.145  0.00  0.00    +0.000 C 
ENDBRANCH   1   8
BRANCH   2   9
ATOM      9  O   UNL     1       3.572   2.157  19.722  0.00  0.00    +0.000 OA
ATOM     10  H   UNL     1       3.094   1.705  19.014  0.00  0.00    +0.000 HD
ENDBRANCH   2   9
BRANCH   4  11
ATOM     11  S   UNL     1       7.128   5.473  19.256  0.00  0.00    +0.000 S 
BRANCH  11  12
ATOM     12  C   UNL     1       7.788   4.793  17.692  0.00  0.00    +0.000 C 
BRANCH  12  13
ATOM     13  C   UNL     1       7.361   5.644  16.506  0.00  0.00    +0.000 C 
ATOM     14  O   UNL     1       7.494   6.866  16.486  0.00  0.00    +0.000 OA
BRANCH  13  15
ATOM     15  C   UNL     1       6.870   4.987  15.254  0.00  0.00    +0.000 A 
ATOM     16  C   UNL     1       7.496   5.130  14.011  0.00  0.00    +0.000 A 
ATOM     17  C   UNL     1       6.978   4.473  12.887  0.00  0.00    +0.000 A 
ATOM     18  C   UNL     1       5.843   3.673  13.012  0.00  0.00    +0.000 A 
ATOM     19  F   UNL     1       5.357   3.044  11.935  0.00  0.00    +0.000 F 
ATOM     20  C   UNL     1       5.218   3.512  14.240  0.00  0.00    +0.000 A 
ATOM     21  C   UNL     1       5.732   4.168  15.360  0.00  0.00    +0.000 A 
ENDBRANCH  13  15
ENDBRANCH  12  13
ENDBRANCH  11  12
ENDBRANCH   4  11
BRANCH   6  22
ATOM     22  C   UNL     1       2.300   6.749  18.235  0.00  0.00    +0.000 C 
BRANCH  22  23
ATOM     23  C   UNL     1       1.825   7.704  19.327  0.00  0.00    +0.000 A 
ATOM     24  C   UNL     1       1.548   7.193  20.609  0.00  0.00    +0.000 A 
ATOM     25  C   UNL     1       0.993   7.994  21.601  0.00  0.00    +0.000 A 
ATOM     26  C   UNL     1       0.738   9.335  21.345  0.00  0.00    +0.000 A 
ATOM     27  C   UNL     1       1.119   9.915  20.129  0.00  0.00    +0.000 A 
ATOM     28  C   UNL     1       0.953  11.298  19.949  0.00  0.00    +0.000 A 
ATOM     29  C   UNL     1       1.402  11.931  18.796  0.00  0.00    +0.000 A 
ATOM     30  C   UNL     1       2.007  11.179  17.798  0.00  0.00    +0.000 A 
ATOM     31  C   UNL     1       2.136   9.791  17.942  0.00  0.00    +0.000 A 
ATOM     32  C   UNL     1       1.697   9.112  19.106  0.00  0.00    +0.000 A 
ENDBRANCH  22  23
ENDBRANCH   6  22
TORSDOF 8
ENDMDL
MODEL 5
REMARK VINA RESULT:      -8.6      2.693      3.471
REMARK  Name = 
REMARK  9 active torsions:
REMARK  status: ('A' for Active; 'I' for Inactive)
REMARK    1  A    between atoms: C_1  and  C_2
REMARK    2  A    between atoms: C_2  and  C_3
REMARK    3  A    between atoms: C_4  and  O_5
REMARK    4  A    between atoms: C_7  and  S_8
REMARK    5  A    between atoms: S_8  and  C_9
REMARK    6  A    between atoms: C_9  and  C_10
REMARK    7  A    between atoms: C_10  and  C_12
REMARK    8  A    between atoms: C_20  and  C_21
REMARK    9  A    between atoms: C_21  and  C_22
REMARK                            x       y       z     vdW  Elec       q    Type
REMARK                         _______ _______ _______ _____ _____    ______ ____
ROOT
ATOM      1  C   UNL     1       1.909   3.710  19.500  0.00  0.00    +0.000 A 
ATOM      2  C   UNL     1       2.125   2.773  18.497  0.00  0.00    +0.000 A 
ATOM      3  N   UNL     1       2.871   2.974  17.410  0.00  0.00    +0.000 NA
ATOM      4  C   UNL     1       3.430   4.179  17.295  0.00  0.00    +0.000 A 
ATOM      5  N   UNL     1       3.264   5.184  18.169  0.00  0.00    +0.000 NA
ATOM      6  C   UNL     1       2.489   4.958  19.261  0.00  0.00    +0.000 A 
ENDROOT
BRANCH   1   8
ATOM      7  C   UNL     1       2.016   2.867  21.869  0.00  0.00    +0.000 C 
ATOM      8  C   UNL     1       1.130   3.369  20.738  0.00  0.00    +0.000 C 
ENDBRANCH   1   8
BRANCH   2   9
ATOM      9  O   UNL     1       1.600   1.513  18.521  0.00  0.00    +0.000 OA
ATOM     10  H   UNL     1       2.244   0.881  18.177  0.00  0.00    +0.000 HD
ENDBRANCH   2   9
BRANCH   4  11
ATOM     11  S   UNL     1       4.572   4.421  15.959  0.00  0.00    +0.000 S 
BRANCH  11  12
ATOM     12  C   UNL     1       6.100   3.848  16.785  0.00  0.00    +0.000 C 
BRANCH  12  13
ATOM     13  C   UNL     1       6.315   4.584  18.099  0.00  0.00    +0.000 C 
ATOM     14  O   UNL     1       6.095   4.065  19.192  0.00  0.00    +0.000 OA
BRANCH  13  15
ATOM     15  C   UNL     1       6.932   5.947  18.099  0.00  0.00    +0.000 A 
ATOM     16  C   UNL     1       7.980   6.319  18.947  0.00  0.00    +0.000 A 
ATOM     17  C   UNL     1       8.510   7.616  18.878  0.00  0.00    +0.000 A 
ATOM     18  C   UNL     1       7.996   8.528  17.958  0.00  0.00    +0.000 A 
ATOM     19  F   UNL     1       8.510   9.762  17.894  0.00  0.00    +0.000 F 
ATOM     20  C   UNL     1       6.964   8.170  17.103  0.00  0.00    +0.000 A 
ATOM     21  C   UNL     1       6.434   6.880  17.172  0.00  0.00    +0.000 A 
ENDBRANCH  13  15
ENDBRANCH  12  13
ENDBRANCH  11  12
ENDBRANCH   4  11
BRANCH   6  22
ATOM     22  C   UNL     1       2.348   6.152  20.206  0.00  0.00    +0.000 C 
BRANCH  22  23
ATOM     23  C   UNL     1       1.972   7.488  19.571  0.00  0.00    +0.000 A 
ATOM     24  C   UNL     1       2.345   7.741  18.238  0.00  0.00    +0.000 A 
ATOM     25  C   UNL     1       2.140   8.986  17.654  0.00  0.00    +0.000 A 
ATOM     26  C   UNL     1       1.521   9.995  18.379  0.00  0.00    +0.000 A 
ATOM     27  C   UNL     1       1.017   9.748  19.661  0.00  0.00    +0.000 A 
ATOM     28  C   UNL     1       0.294  10.757  20.318  0.00  0.00    +0.000 A 
ATOM     29  C   UNL     1      -0.304  10.525  21.552  0.00  0.00    +0.000 A 
ATOM     30  C   UNL     1      -0.168   9.280  22.151  0.00  0.00    +0.000 A 
ATOM     31  C   UNL     1       0.591   8.279  21.530  0.00  0.00    +0.000 A 
ATOM     32  C   UNL     1       1.209   8.477  20.271  0.00  0.00    +0.000 A 
ENDBRANCH  22  23
ENDBRANCH   6  22
TORSDOF 8
ENDMDL
MODEL 6
REMARK VINA RESULT:      -8.6      1.455      1.899
REMARK  Name = 
REMARK  9 active torsions:
REMARK  status: ('A' for Active; 'I' for Inactive)
REMARK    1  A    between atoms: C_1  and  C_2
REMARK    2  A    between atoms: C_2  and  C_3
REMARK    3  A    between atoms: C_4  and  O_5
REMARK    4  A    between atoms: C_7  and  S_8
REMARK    5  A    between atoms: S_8  and  C_9
REMARK    6  A    between atoms: C_9  and  C_10
REMARK    7  A    between atoms: C_10  and  C_12
REMARK    8  A    between atoms: C_20  and  C_21
REMARK    9  A    between atoms: C_21  and  C_22
REMARK                            x       y       z     vdW  Elec       q    Type
REMARK                         _______ _______ _______ _____ _____    ______ ____
ROOT
ATOM      1  C   UNL     1       2.064   4.726  19.504  0.00  0.00    +0.000 A 
ATOM      2  C   UNL     1       2.698   4.062  18.462  0.00  0.00    +0.000 A 
ATOM      3  N   UNL     1       3.589   4.613  17.635  0.00  0.00    +0.000 NA
ATOM      4  C   UNL     1       3.864   5.901  17.839  0.00  0.00    +0.000 A 
ATOM      5  N   UNL     1       3.287   6.664  18.780  0.00  0.00    +0.000 NA
ATOM      6  C   UNL     1       2.373   6.084  19.601  0.00  0.00    +0.000 A 
ENDROOT
BRANCH   1   8
ATOM      7  C   UNL     1       1.883   3.336  21.594  0.00  0.00    +0.000 C 
ATOM      8  C   UNL     1       1.142   4.006  20.447  0.00  0.00    +0.000 C 
ENDBRANCH   1   8
BRANCH   2   9
ATOM      9  O   UNL     1       2.488   2.745  18.171  0.00  0.00    +0.000 OA
ATOM     10  H   UNL     1       2.699   2.575  17.244  0.00  0.00    +0.000 HD
ENDBRANCH   2   9
BRANCH   4  11
ATOM     11  S   UNL     1       5.173   6.615  16.878  0.00  0.00    +0.000 S 
BRANCH  11  12
ATOM     12  C   UNL     1       6.599   6.010  17.850  0.00  0.00    +0.000 C 
BRANCH  12  13
ATOM     13  C   UNL     1       7.347   4.920  17.097  0.00  0.00    +0.000 C 
ATOM     14  O   UNL     1       8.162   4.179  17.642  0.00  0.00    +0.000 OA
BRANCH  13  15
ATOM     15  C   UNL     1       7.010   4.636  15.666  0.00  0.00    +0.000 A 
ATOM     16  C   UNL     1       7.652   5.251  14.586  0.00  0.00    +0.000 A 
ATOM     17  C   UNL     1       7.283   4.922  13.274  0.00  0.00    +0.000 A 
ATOM     18  C   UNL     1       6.283   3.978  13.049  0.00  0.00    +0.000 A 
ATOM     19  F   UNL     1       5.940   3.665  11.794  0.00  0.00    +0.000 F 
ATOM     20  C   UNL     1       5.646   3.351  14.111  0.00  0.00    +0.000 A 
ATOM     21  C   UNL     1       6.010   3.679  15.418  0.00  0.00    +0.000 A 
ENDBRANCH  13  15
ENDBRANCH  12  13
ENDBRANCH  11  12
ENDBRANCH   4  11
BRANCH   6  22
ATOM     22  C   UNL     1       1.762   7.020  20.644  0.00  0.00    +0.000 C 
BRANCH  22  23
ATOM     23  C   UNL     1       1.322   8.397  20.155  0.00  0.00    +0.000 A 
ATOM     24  C   UNL     1       1.560   8.756  18.815  0.00  0.00    +0.000 A 
ATOM     25  C   UNL     1       1.295  10.040  18.353  0.00  0.00    +0.000 A 
ATOM     26  C   UNL     1       0.750  10.985  19.212  0.00  0.00    +0.000 A 
ATOM     27  C   UNL     1       0.377  10.635  20.515  0.00  0.00    +0.000 A 
ATOM     28  C   UNL     1      -0.279  11.583  21.317  0.00  0.00    +0.000 A 
ATOM     29  C   UNL     1      -0.750  11.252  22.582  0.00  0.00    +0.000 A 
ATOM     30  C   UNL     1      -0.553   9.965  23.066  0.00  0.00    +0.000 A 
ATOM     31  C   UNL     1       0.142   9.022  22.297  0.00  0.00    +0.000 A 
ATOM     32  C   UNL     1       0.631   9.322  21.001  0.00  0.00    +0.000 A 
ENDBRANCH  22  23
ENDBRANCH   6  22
TORSDOF 8
ENDMDL
MODEL 7
REMARK VINA RESULT:      -8.5      2.493      3.395
REMARK  Name = 
REMARK  9 active torsions:
REMARK  status: ('A' for Active; 'I' for Inactive)
REMARK    1  A    between atoms: C_1  and  C_2
REMARK    2  A    between atoms: C_2  and  C_3
REMARK    3  A    between atoms: C_4  and  O_5
REMARK    4  A    between atoms: C_7  and  S_8
REMARK    5  A    between atoms: S_8  and  C_9
REMARK    6  A    between atoms: C_9  and  C_10
REMARK    7  A    between atoms: C_10  and  C_12
REMARK    8  A    between atoms: C_20  and  C_21
REMARK    9  A    between atoms: C_21  and  C_22
REMARK                            x       y       z     vdW  Elec       q    Type
REMARK                         _______ _______ _______ _____ _____    ______ ____
ROOT
ATOM      1  C   UNL     1       1.854   4.007  19.098  0.00  0.00    +0.000 A 
ATOM      2  C   UNL     1       1.734   2.946  18.209  0.00  0.00    +0.000 A 
ATOM      3  N   UNL     1       2.540   2.725  17.169  0.00  0.00    +0.000 NA
ATOM      4  C   UNL     1       3.518   3.612  16.984  0.00  0.00    +0.000 A 
ATOM      5  N   UNL     1       3.714   4.701  17.743  0.00  0.00    +0.000 NA
ATOM      6  C   UNL     1       2.872   4.911  18.788  0.00  0.00    +0.000 A 
ENDROOT
BRANCH   1   8
ATOM      7  C   UNL     1       1.429   3.280  21.470  0.00  0.00    +0.000 C 
ATOM      8  C   UNL     1       0.959   4.130  20.298  0.00  0.00    +0.000 C 
ENDBRANCH   1   8
BRANCH   2   9
ATOM      9  O   UNL     1       0.770   1.985  18.312  0.00  0.00    +0.000 OA
ATOM     10  H   UNL     1      -0.020   2.258  17.827  0.00  0.00    +0.000 HD
ENDBRANCH   2   9
BRANCH   4  11
ATOM     11  S   UNL     1       4.714   3.251  15.725  0.00  0.00    +0.000 S 
BRANCH  11  12
ATOM     12  C   UNL     1       4.976   4.946  15.090  0.00  0.00    +0.000 C 
BRANCH  12  13
ATOM     13  C   UNL     1       6.436   5.356  15.221  0.00  0.00    +0.000 C 
ATOM     14  O   UNL     1       7.148   5.587  14.245  0.00  0.00    +0.000 OA
BRANCH  13  15
ATOM     15  C   UNL     1       7.021   5.613  16.574  0.00  0.00    +0.000 A 
ATOM     16  C   UNL     1       7.216   6.895  17.099  0.00  0.00    +0.000 A 
ATOM     17  C   UNL     1       7.762   7.051  18.381  0.00  0.00    +0.000 A 
ATOM     18  C   UNL     1       8.102   5.928  19.132  0.00  0.00    +0.000 A 
ATOM     19  F   UNL     1       8.617   6.084  20.357  0.00  0.00    +0.000 F 
ATOM     20  C   UNL     1       7.903   4.650  18.630  0.00  0.00    +0.000 A 
ATOM     21  C   UNL     1       7.362   4.493  17.352  0.00  0.00    +0.000 A 
ENDBRANCH  13  15
ENDBRANCH  12  13
ENDBRANCH  11  12
ENDBRANCH   4  11
BRANCH   6  22
ATOM     22  C   UNL     1       3.160   6.174  19.601  0.00  0.00    +0.000 C 
BRANCH  22  23
ATOM     23  C   UNL     1       2.452   7.451  19.157  0.00  0.00    +0.000 A 
ATOM     24  C   UNL     1       2.647   7.920  17.845  0.00  0.00    +0.000 A 
ATOM     25  C   UNL     1       2.129   9.142  17.430  0.00  0.00    +0.000 A 
ATOM     26  C   UNL     1       1.371   9.905  18.309  0.00  0.00    +0.000 A 
ATOM     27  C   UNL     1       1.043   9.418  19.579  0.00  0.00    +0.000 A 
ATOM     28  C   UNL     1       0.179  10.164  20.396  0.00  0.00    +0.000 A 
ATOM     29  C   UNL     1      -0.248   9.675  21.626  0.00  0.00    +0.000 A 
ATOM     30  C   UNL     1       0.205   8.437  22.060  0.00  0.00    +0.000 A 
ATOM     31  C   UNL     1       1.106   7.701  21.277  0.00  0.00    +0.000 A 
ATOM     32  C   UNL     1       1.556   8.165  20.016  0.00  0.00    +0.000 A 
ENDBRANCH  22  23
ENDBRANCH   6  22
TORSDOF 8
ENDMDL
MODEL 8
REMARK VINA RESULT:      -8.5      3.101      5.009
REMARK  Name = 
REMARK  9 active torsions:
REMARK  status: ('A' for Active; 'I' for Inactive)
REMARK    1  A    between atoms: C_1  and  C_2
REMARK    2  A    between atoms: C_2  and  C_3
REMARK    3  A    between atoms: C_4  and  O_5
REMARK    4  A    between atoms: C_7  and  S_8
REMARK    5  A    between atoms: S_8  and  C_9
REMARK    6  A    between atoms: C_9  and  C_10
REMARK    7  A    between atoms: C_10  and  C_12
REMARK    8  A    between atoms: C_20  and  C_21
REMARK    9  A    between atoms: C_21  and  C_22
REMARK                            x       y       z     vdW  Elec       q    Type
REMARK                         _______ _______ _______ _____ _____    ______ ____
ROOT
ATOM      1  C   UNL     1       1.512   8.486  20.167  0.00  0.00    +0.000 A 
ATOM      2  C   UNL     1       2.132   7.243  20.122  0.00  0.00    +0.000 A 
ATOM      3  N   UNL     1       2.862   6.790  19.102  0.00  0.00    +0.000 NA
ATOM      4  C   UNL     1       2.981   7.606  18.055  0.00  0.00    +0.000 A 
ATOM      5  N   UNL     1       2.397   8.810  17.956  0.00  0.00    +0.000 NA
ATOM      6  C   UNL     1       1.647   9.243  19.002  0.00  0.00    +0.000 A 
ENDROOT
BRANCH   1   8
ATOM      7  C   UNL     1      -0.625   8.388  21.493  0.00  0.00    +0.000 C 
ATOM      8  C   UNL     1       0.784   8.955  21.395  0.00  0.00    +0.000 C 
ENDBRANCH   1   8
BRANCH   2   9
ATOM      9  O   UNL     1       2.072   6.336  21.141  0.00  0.00    +0.000 OA
ATOM     10  H   UNL     1       1.725   5.496  20.814  0.00  0.00    +0.000 HD
ENDBRANCH   2   9
BRANCH   4  11
ATOM     11  S   UNL     1       4.091   7.112  16.762  0.00  0.00    +0.000 S 
BRANCH  11  12
ATOM     12  C   UNL     1       5.367   6.290  17.783  0.00  0.00    +0.000 C 
BRANCH  12  13
ATOM     13  C   UNL     1       5.438   4.803  17.471  0.00  0.00    +0.000 C 
ATOM     14  O   UNL     1       6.403   4.291  16.907  0.00  0.00    +0.000 OA
BRANCH  13  15
ATOM     15  C   UNL     1       4.364   3.885  17.964  0.00  0.00    +0.000 A 
ATOM     16  C   UNL     1       3.295   3.453  17.173  0.00  0.00    +0.000 A 
ATOM     17  C   UNL     1       2.334   2.584  17.709  0.00  0.00    +0.000 A 
ATOM     18  C   UNL     1       2.451   2.147  19.027  0.00  0.00    +0.000 A 
ATOM     19  F   UNL     1       1.532   1.314  19.530  0.00  0.00    +0.000 F 
ATOM     20  C   UNL     1       3.512   2.558  19.821  0.00  0.00    +0.000 A 
ATOM     21  C   UNL     1       4.468   3.425  19.289  0.00  0.00    +0.000 A 
ENDBRANCH  13  15
ENDBRANCH  12  13
ENDBRANCH  11  12
ENDBRANCH   4  11
BRANCH   6  22
ATOM     22  C   UNL     1       1.014  10.622  18.811  0.00  0.00    +0.000 C 
BRANCH  22  23
ATOM     23  C   UNL     1      -0.485  10.655  18.526  0.00  0.00    +0.000 A 
ATOM     24  C   UNL     1      -1.004   9.844  17.500  0.00  0.00    +0.000 A 
ATOM     25  C   UNL     1      -2.338   9.930  17.117  0.00  0.00    +0.000 A 
ATOM     26  C   UNL     1      -3.192  10.803  17.777  0.00  0.00    +0.000 A 
ATOM     27  C   UNL     1      -2.750  11.531  18.888  0.00  0.00    +0.000 A 
ATOM     28  C   UNL     1      -3.670  12.314  19.603  0.00  0.00    +0.000 A 
ATOM     29  C   UNL     1      -3.298  12.980  20.765  0.00  0.00    +0.000 A 
ATOM     30  C   UNL     1      -1.987  12.883  21.215  0.00  0.00    +0.000 A 
ATOM     31  C   UNL     1      -1.045  12.145  20.485  0.00  0.00    +0.000 A 
ATOM     32  C   UNL     1      -1.391  11.448  19.300  0.00  0.00    +0.000 A 
ENDBRANCH  22  23
ENDBRANCH   6  22
TORSDOF 8
ENDMDL
MODEL 9
REMARK VINA RESULT:      -8.5      1.112      1.432
REMARK  Name = 
REMARK  9 active torsions:
REMARK  status: ('A' for Active; 'I' for Inactive)
REMARK    1  A    between atoms: C_1  and  C_2
REMARK    2  A    between atoms: C_2  and  C_3
REMARK    3  A    between atoms: C_4  and  O_5
REMARK    4  A    between atoms: C_7  and  S_8
REMARK    5  A    between atoms: S_8  and  C_9
REMARK    6  A    between atoms: C_9  and  C_10
REMARK    7  A    between atoms: C_10  and  C_12
REMARK    8  A    between atoms: C_20  and  C_21
REMARK    9  A    between atoms: C_21  and  C_22
REMARK                            x       y       z     vdW  Elec       q    Type
REMARK                         _______ _______ _______ _____ _____    ______ ____
ROOT
ATOM      1  C   UNL     1       3.438   3.656  20.310  0.00  0.00    +0.000 A 
ATOM      2  C   UNL     1       4.566   3.037  19.785  0.00  0.00    +0.000 A 
ATOM      3  N   UNL     1       5.546   3.663  19.131  0.00  0.00    +0.000 NA
ATOM      4  C   UNL     1       5.402   4.979  18.974  0.00  0.00    +0.000 A 
ATOM      5  N   UNL     1       4.341   5.686  19.394  0.00  0.00    +0.000 NA
ATOM      6  C   UNL     1       3.350   5.024  20.045  0.00  0.00    +0.000 A 
ENDROOT
BRANCH   1   8
ATOM      7  C   UNL     1       1.113   2.694  20.371  0.00  0.00    +0.000 C 
ATOM      8  C   UNL     1       2.426   2.890  21.115  0.00  0.00    +0.000 C 
ENDBRANCH   1   8
BRANCH   2   9
ATOM      9  O   UNL     1       4.807   1.698  19.894  0.00  0.00    +0.000 OA
ATOM     10  H   UNL     1       5.681   1.552  20.279  0.00  0.00    +0.000 HD
ENDBRANCH   2   9
BRANCH   4  11
ATOM     11  S   UNL     1       6.767   5.867  18.272  0.00  0.00    +0.000 S 
BRANCH  11  12
ATOM     12  C   UNL     1       5.961   6.463  16.742  0.00  0.00    +0.000 C 
BRANCH  12  13
ATOM     13  C   UNL     1       5.373   5.304  15.951  0.00  0.00    +0.000 C 
ATOM     14  O   UNL     1       4.324   4.749  16.270  0.00  0.00    +0.000 OA
BRANCH  13  15
ATOM     15  C   UNL     1       6.009   4.881  14.663  0.00  0.00    +0.000 A 
ATOM     16  C   UNL     1       7.246   5.359  14.220  0.00  0.00    +0.000 A 
ATOM     17  C   UNL     1       7.777   4.905  13.005  0.00  0.00    +0.000 A 
ATOM     18  C   UNL     1       7.074   3.973  12.244  0.00  0.00    +0.000 A 
ATOM     19  F   UNL     1       7.590   3.540  11.087  0.00  0.00    +0.000 F 
ATOM     20  C   UNL     1       5.851   3.480  12.676  0.00  0.00    +0.000 A 
ATOM     21  C   UNL     1       5.320   3.933  13.885  0.00  0.00    +0.000 A 
ENDBRANCH  13  15
ENDBRANCH  12  13
ENDBRANCH  11  12
ENDBRANCH   4  11
BRANCH   6  22
ATOM     22  C   UNL     1       2.177   5.899  20.488  0.00  0.00    +0.000 C 
BRANCH  22  23
ATOM     23  C   UNL     1       1.953   7.191  19.708  0.00  0.00    +0.000 A 
ATOM     24  C   UNL     1       2.309   7.239  18.347  0.00  0.00    +0.000 A 
ATOM     25  C   UNL     1       2.244   8.425  17.625  0.00  0.00    +0.000 A 
ATOM     26  C   UNL     1       1.784   9.583  18.237  0.00  0.00    +0.000 A 
ATOM     27  C   UNL     1       1.296   9.552  19.549  0.00  0.00    +0.000 A 
ATOM     28  C   UNL     1       0.730  10.715  20.096  0.00  0.00    +0.000 A 
ATOM     29  C   UNL     1       0.150  10.706  21.360  0.00  0.00    +0.000 A 
ATOM     30  C   UNL     1       0.148   9.530  22.099  0.00  0.00    +0.000 A 
ATOM     31  C   UNL     1       0.752   8.374  21.586  0.00  0.00    +0.000 A 
ATOM     32  C   UNL     1       1.346   8.345  20.300  0.00  0.00    +0.000 A 
ENDBRANCH  22  23
ENDBRANCH   6  22
TORSDOF 8
ENDMDL
