MODEL 1
REMARK VINA RESULT:      -9.4      0.000      0.000
REMARK  Name = 
REMARK  6 active torsions:
REMARK  status: ('A' for Active; 'I' for Inactive)
REMARK    1  A    between atoms: C_1  and  N_2
REMARK    2  A    between atoms: C_4  and  C_5
REMARK    3  A    between atoms: C_6  and  C_7
REMARK    4  A    between atoms: C_12  and  O_13
REMARK    5  A    between atoms: O_13  and  C_14
REMARK    6  A    between atoms: C_14  and  C_15
REMARK                            x       y       z     vdW  Elec       q    Type
REMARK                         _______ _______ _______ _____ _____    ______ ____
ROOT
ATOM      1  C   UNL     1       3.842   4.360  19.224  0.00  0.00    +0.000 C 
ATOM      2  C   UNL     1       2.702   5.039  19.413  0.00  0.00    +0.000 C 
ATOM      3  C   UNL     1       1.737   4.118  20.044  0.00  0.00    +0.000 C 
ATOM      4  O   UNL     1       0.596   4.382  20.374  0.00  0.00    +0.000 OA
ATOM      5  N   UNL     1       2.356   2.928  20.188  0.00  0.00    +0.000 N 
ATOM      6  C   UNL     1       3.621   2.983  19.716  0.00  0.00    +0.000 C 
ATOM      7  O   UNL     1       4.419   2.065  19.694  0.00  0.00    +0.000 OA
ATOM      8  H   UNL     1       1.930   2.109  20.588  0.00  0.00    +0.000 HD
ENDROOT
BRANCH   1  12
ATOM      9  C   UNL     1       8.191   6.606  18.789  0.00  0.00    +0.000 C 
ATOM     10  N   UNL     1       7.005   5.850  18.449  0.00  0.00    +0.000 N 
ATOM     11  C   UNL     1       6.024   5.503  19.341  0.00  0.00    +0.000 A 
ATOM     12  C   UNL     1       5.050   4.820  18.648  0.00  0.00    +0.000 A 
ATOM     13  C   UNL     1       5.452   4.741  17.284  0.00  0.00    +0.000 A 
ATOM     14  C   UNL     1       4.881   4.187  16.121  0.00  0.00    +0.000 A 
ATOM     15  C   UNL     1       5.552   4.317  14.904  0.00  0.00    +0.000 A 
ATOM     16  F   UNL     1       4.984   3.793  13.808  0.00  0.00    +0.000 F 
ATOM     17  C   UNL     1       6.776   4.974  14.822  0.00  0.00    +0.000 A 
ATOM     18 CL   UNL     1       7.587   5.120  13.308  0.00  0.00    +0.000 Cl
ATOM     19  C   UNL     1       7.367   5.528  15.961  0.00  0.00    +0.000 A 
ATOM     20  C   UNL     1       6.683   5.401  17.184  0.00  0.00    +0.000 A 
ENDBRANCH   1  12
BRANCH   2  21
ATOM     21  C   UNL     1       2.390   6.365  19.044  0.00  0.00    +0.000 A 
ATOM     22  C   UNL     1       2.483   6.897  17.775  0.00  0.00    +0.000 A 
ATOM     23  O   UNL     1       2.082   8.198  17.779  0.00  0.00    +0.000 OA
ATOM     24  C   UNL     1       1.740   8.509  19.062  0.00  0.00    +0.000 A 
ATOM     25  C   UNL     1       1.294   9.752  19.511  0.00  0.00    +0.000 A 
ATOM     26  C   UNL     1       1.031   9.868  20.882  0.00  0.00    +0.000 A 
ATOM     27  C   UNL     1       1.153   8.764  21.731  0.00  0.00    +0.000 A 
ATOM     28  C   UNL     1       1.604   7.527  21.250  0.00  0.00    +0.000 A 
ATOM     29  C   UNL     1       1.911   7.403  19.886  0.00  0.00    +0.000 A 
BRANCH  26  30
ATOM     30  O   UNL     1       0.659  11.120  21.304  0.00  0.00    +0.000 OA
BRANCH  30  31
ATOM     31  C   UNL     1      -0.753  11.332  21.414  0.00  0.00    +0.000 C 
BRANCH  31  32
ATOM     32  C   UNL     1      -1.083  11.650  22.839  0.00  0.00    +0.000 C 
ATOM     33  C   UNL     1      -1.444  13.055  23.254  0.00  0.00    +0.000 C 
ATOM     34  C   UNL     1      -2.506  11.993  23.204  0.00  0.00    +0.000 C 
ENDBRANCH  31  32
ENDBRANCH  30  31
ENDBRANCH  26  30
ENDBRANCH   2  21
TORSDOF 5
ENDMDL
MODEL 2
REMARK VINA RESULT:      -9.3      1.773      2.451
REMARK  Name = 
REMARK  6 active torsions:
REMARK  status: ('A' for Active; 'I' for Inactive)
REMARK    1  A    between atoms: C_1  and  N_2
REMARK    2  A    between atoms: C_4  and  C_5
REMARK    3  A    between atoms: C_6  and  C_7
REMARK    4  A    between atoms: C_12  and  O_13
REMARK    5  A    between atoms: O_13  and  C_14
REMARK    6  A    between atoms: C_14  and  C_15
REMARK                            x       y       z     vdW  Elec       q    Type
REMARK                         _______ _______ _______ _____ _____    ______ ____
ROOT
ATOM      1  C   UNL     1       3.529   3.214  18.630  0.00  0.00    +0.000 C 
ATOM      2  C   UNL     1       2.453   3.690  19.271  0.00  0.00    +0.000 C 
ATOM      3  C   UNL     1       1.456   2.603  19.331  0.00  0.00    +0.000 C 
ATOM      4  O   UNL     1       0.355   2.661  19.847  0.00  0.00    +0.000 OA
ATOM      5  N   UNL     1       1.993   1.534  18.708  0.00  0.00    +0.000 N 
ATOM      6  C   UNL     1       3.233   1.815  18.252  0.00  0.00    +0.000 C 
ATOM      7  O   UNL     1       3.960   1.058  17.635  0.00  0.00    +0.000 OA
ATOM      8  H   UNL     1       1.529   0.649  18.595  0.00  0.00    +0.000 HD
ENDROOT
BRANCH   1  12
ATOM      9  C   UNL     1       7.623   5.860  19.250  0.00  0.00    +0.000 C 
ATOM     10  N   UNL     1       6.575   5.097  18.608  0.00  0.00    +0.000 N 
ATOM     11  C   UNL     1       5.542   4.485  19.269  0.00  0.00    +0.000 A 
ATOM     12  C   UNL     1       4.737   3.887  18.328  0.00  0.00    +0.000 A 
ATOM     13  C   UNL     1       5.300   4.135  17.043  0.00  0.00    +0.000 A 
ATOM     14  C   UNL     1       4.932   3.796  15.726  0.00  0.00    +0.000 A 
ATOM     15  C   UNL     1       5.720   4.240  14.663  0.00  0.00    +0.000 A 
ATOM     16  F   UNL     1       5.343   3.915  13.416  0.00  0.00    +0.000 F 
ATOM     17  C   UNL     1       6.864   5.000  14.881  0.00  0.00    +0.000 A 
ATOM     18 CL   UNL     1       7.823   5.534  13.552  0.00  0.00    +0.000 Cl
ATOM     19  C   UNL     1       7.255   5.346  16.179  0.00  0.00    +0.000 A 
ATOM     20  C   UNL     1       6.453   4.903  17.246  0.00  0.00    +0.000 A 
ENDBRANCH   1  12
BRANCH   2  21
ATOM     21  C   UNL     1       2.221   4.992  19.765  0.00  0.00    +0.000 A 
ATOM     22  C   UNL     1       1.936   5.324  21.073  0.00  0.00    +0.000 A 
ATOM     23  O   UNL     1       1.792   6.673  21.195  0.00  0.00    +0.000 OA
ATOM     24  C   UNL     1       1.975   7.211  19.955  0.00  0.00    +0.000 A 
ATOM     25  C   UNL     1       1.894   8.564  19.630  0.00  0.00    +0.000 A 
ATOM     26  C   UNL     1       2.079   8.901  18.284  0.00  0.00    +0.000 A 
ATOM     27  C   UNL     1       2.396   7.921  17.338  0.00  0.00    +0.000 A 
ATOM     28  C   UNL     1       2.471   6.568  17.694  0.00  0.00    +0.000 A 
ATOM     29  C   UNL     1       2.247   6.207  19.032  0.00  0.00    +0.000 A 
BRANCH  26  30
ATOM     30  O   UNL     1       1.926  10.231  17.984  0.00  0.00    +0.000 OA
BRANCH  30  31
ATOM     31  C   UNL     1       1.203  10.996  18.955  0.00  0.00    +0.000 C 
BRANCH  31  32
ATOM     32  C   UNL     1      -0.171  11.270  18.426  0.00  0.00    +0.000 C 
ATOM     33  C   UNL     1      -1.324  10.357  18.762  0.00  0.00    +0.000 C 
ATOM     34  C   UNL     1      -1.247  11.724  19.380  0.00  0.00    +0.000 C 
ENDBRANCH  31  32
ENDBRANCH  30  31
ENDBRANCH  26  30
ENDBRANCH   2  21
TORSDOF 5
ENDMDL
MODEL 3
REMARK VINA RESULT:      -9.3      2.134      2.722
REMARK  Name = 
REMARK  6 active torsions:
REMARK  status: ('A' for Active; 'I' for Inactive)
REMARK    1  A    between atoms: C_1  and  N_2
REMARK    2  A    between atoms: C_4  and  C_5
REMARK    3  A    between atoms: C_6  and  C_7
REMARK    4  A    between atoms: C_12  and  O_13
REMARK    5  A    between atoms: O_13  and  C_14
REMARK    6  A    between atoms: C_14  and  C_15
REMARK                            x       y       z     vdW  Elec       q    Type
REMARK                         _______ _______ _______ _____ _____    ______ ____
ROOT
ATOM      1  C   UNL     1       3.516   3.222  18.649  0.00  0.00    +0.000 C 
ATOM      2  C   UNL     1       2.429   3.703  19.267  0.00  0.00    +0.000 C 
ATOM      3  C   UNL     1       1.435   2.613  19.328  0.00  0.00    +0.000 C 
ATOM      4  O   UNL     1       0.327   2.674  19.826  0.00  0.00    +0.000 OA
ATOM      5  N   UNL     1       1.985   1.537  18.728  0.00  0.00    +0.000 N 
ATOM      6  C   UNL     1       3.231   1.816  18.286  0.00  0.00    +0.000 C 
ATOM      7  O   UNL     1       3.969   1.053  17.692  0.00  0.00    +0.000 OA
ATOM      8  H   UNL     1       1.526   0.648  18.621  0.00  0.00    +0.000 HD
ENDROOT
BRANCH   1  12
ATOM      9  C   UNL     1       7.609   5.862  19.298  0.00  0.00    +0.000 C 
ATOM     10  N   UNL     1       6.564   5.102  18.647  0.00  0.00    +0.000 N 
ATOM     11  C   UNL     1       5.528   4.488  19.302  0.00  0.00    +0.000 A 
ATOM     12  C   UNL     1       4.725   3.895  18.354  0.00  0.00    +0.000 A 
ATOM     13  C   UNL     1       5.293   4.148  17.073  0.00  0.00    +0.000 A 
ATOM     14  C   UNL     1       4.931   3.816  15.752  0.00  0.00    +0.000 A 
ATOM     15  C   UNL     1       5.723   4.264  14.695  0.00  0.00    +0.000 A 
ATOM     16  F   UNL     1       5.352   3.946  13.446  0.00  0.00    +0.000 F 
ATOM     17  C   UNL     1       6.867   5.022  14.922  0.00  0.00    +0.000 A 
ATOM     18 CL   UNL     1       7.832   5.562  13.599  0.00  0.00    +0.000 Cl
ATOM     19  C   UNL     1       7.253   5.362  16.222  0.00  0.00    +0.000 A 
ATOM     20  C   UNL     1       6.446   4.914  17.284  0.00  0.00    +0.000 A 
ENDBRANCH   1  12
BRANCH   2  21
ATOM     21  C   UNL     1       2.184   5.011  19.738  0.00  0.00    +0.000 A 
ATOM     22  C   UNL     1       1.826   5.355  21.025  0.00  0.00    +0.000 A 
ATOM     23  O   UNL     1       1.693   6.706  21.130  0.00  0.00    +0.000 OA
ATOM     24  C   UNL     1       1.956   7.234  19.900  0.00  0.00    +0.000 A 
ATOM     25  C   UNL     1       1.912   8.586  19.563  0.00  0.00    +0.000 A 
ATOM     26  C   UNL     1       2.182   8.911  18.228  0.00  0.00    +0.000 A 
ATOM     27  C   UNL     1       2.541   7.921  17.309  0.00  0.00    +0.000 A 
ATOM     28  C   UNL     1       2.577   6.569  17.676  0.00  0.00    +0.000 A 
ATOM     29  C   UNL     1       2.270   6.221  19.001  0.00  0.00    +0.000 A 
BRANCH  26  30
ATOM     30  O   UNL     1       2.064  10.241  17.912  0.00  0.00    +0.000 OA
BRANCH  30  31
ATOM     31  C   UNL     1       1.320  11.027  18.850  0.00  0.00    +0.000 C 
BRANCH  31  32
ATOM     32  C   UNL     1       1.469  12.474  18.491  0.00  0.00    +0.000 C 
ATOM     33  C   UNL     1       2.136  13.440  19.439  0.00  0.00    +0.000 C 
ATOM     34  C   UNL     1       2.843  13.016  18.184  0.00  0.00    +0.000 C 
ENDBRANCH  31  32
ENDBRANCH  30  31
ENDBRANCH  26  30
ENDBRANCH   2  21
TORSDOF 5
ENDMDL
MODEL 4
REMARK VINA RESULT:      -9.1      1.211      1.431
REMARK  Name = 
REMARK  6 active torsions:
REMARK  status: ('A' for Active; 'I' for Inactive)
REMARK    1  A    between atoms: C_1  and  N_2
REMARK    2  A    between atoms: C_4  and  C_5
REMARK    3  A    between atoms: C_6  and  C_7
REMARK    4  A    between atoms: C_12  and  O_13
REMARK    5  A    between atoms: O_13  and  C_14
REMARK    6  A    between atoms: C_14  and  C_15
REMARK                            x       y       z     vdW  Elec       q    Type
REMARK                         _______ _______ _______ _____ _____    ______ ____
ROOT
ATOM      1  C   UNL     1       3.869   4.356  19.274  0.00  0.00    +0.000 C 
ATOM      2  C   UNL     1       2.720   5.027  19.433  0.00  0.00    +0.000 C 
ATOM      3  C   UNL     1       1.763   4.119  20.094  0.00  0.00    +0.000 C 
ATOM      4  O   UNL     1       0.617   4.381  20.408  0.00  0.00    +0.000 OA
ATOM      5  N   UNL     1       2.396   2.943  20.285  0.00  0.00    +0.000 N 
ATOM      6  C   UNL     1       3.663   2.996  19.817  0.00  0.00    +0.000 C 
ATOM      7  O   UNL     1       4.472   2.088  19.833  0.00  0.00    +0.000 OA
ATOM      8  H   UNL     1       1.979   2.134  20.714  0.00  0.00    +0.000 HD
ENDROOT
BRANCH   1  12
ATOM      9  C   UNL     1       8.229   6.573  18.799  0.00  0.00    +0.000 C 
ATOM     10  N   UNL     1       7.034   5.826  18.470  0.00  0.00    +0.000 N 
ATOM     11  C   UNL     1       6.060   5.483  19.371  0.00  0.00    +0.000 A 
ATOM     12  C   UNL     1       5.074   4.809  18.686  0.00  0.00    +0.000 A 
ATOM     13  C   UNL     1       5.461   4.731  17.318  0.00  0.00    +0.000 A 
ATOM     14  C   UNL     1       4.874   4.184  16.159  0.00  0.00    +0.000 A 
ATOM     15  C   UNL     1       5.533   4.313  14.936  0.00  0.00    +0.000 A 
ATOM     16  F   UNL     1       4.949   3.796  13.844  0.00  0.00    +0.000 F 
ATOM     17  C   UNL     1       6.760   4.962  14.843  0.00  0.00    +0.000 A 
ATOM     18 CL   UNL     1       7.556   5.106  13.320  0.00  0.00    +0.000 Cl
ATOM     19  C   UNL     1       7.367   5.509  15.977  0.00  0.00    +0.000 A 
ATOM     20  C   UNL     1       6.695   5.383  17.207  0.00  0.00    +0.000 A 
ENDBRANCH   1  12
BRANCH   2  21
ATOM     21  C   UNL     1       2.394   6.335  19.012  0.00  0.00    +0.000 A 
ATOM     22  C   UNL     1       2.504   6.825  17.728  0.00  0.00    +0.000 A 
ATOM     23  O   UNL     1       2.081   8.119  17.679  0.00  0.00    +0.000 OA
ATOM     24  C   UNL     1       1.706   8.466  18.944  0.00  0.00    +0.000 A 
ATOM     25  C   UNL     1       1.229   9.715  19.342  0.00  0.00    +0.000 A 
ATOM     26  C   UNL     1       0.935   9.872  20.702  0.00  0.00    +0.000 A 
ATOM     27  C   UNL     1       1.057   8.799  21.589  0.00  0.00    +0.000 A 
ATOM     28  C   UNL     1       1.540   7.556  21.161  0.00  0.00    +0.000 A 
ATOM     29  C   UNL     1       1.879   7.391  19.809  0.00  0.00    +0.000 A 
BRANCH  26  30
ATOM     30  O   UNL     1       0.533  11.131  21.073  0.00  0.00    +0.000 OA
BRANCH  30  31
ATOM     31  C   UNL     1       0.977  12.190  20.220  0.00  0.00    +0.000 C 
BRANCH  31  32
ATOM     32  C   UNL     1      -0.213  12.986  19.780  0.00  0.00    +0.000 C 
ATOM     33  C   UNL     1      -0.040  14.307  19.071  0.00  0.00    +0.000 C 
ATOM     34  C   UNL     1      -0.513  13.103  18.306  0.00  0.00    +0.000 C 
ENDBRANCH  31  32
ENDBRANCH  30  31
ENDBRANCH  26  30
ENDBRANCH   2  21
TORSDOF 5
ENDMDL
MODEL 5
REMARK VINA RESULT:      -8.5      5.543     10.137
REMARK  Name = 
REMARK  6 active torsions:
REMARK  status: ('A' for Active; 'I' for Inactive)
REMARK    1  A    between atoms: C_1  and  N_2
REMARK    2  A    between atoms: C_4  and  C_5
REMARK    3  A    between atoms: C_6  and  C_7
REMARK    4  A    between atoms: C_12  and  O_13
REMARK    5  A    between atoms: O_13  and  C_14
REMARK    6  A    between atoms: C_14  and  C_15
REMARK                            x       y       z     vdW  Elec       q    Type
REMARK                         _______ _______ _______ _____ _____    ______ ____
ROOT
ATOM      1  C   UNL     1      -0.397  12.594  19.463  0.00  0.00    +0.000 C 
ATOM      2  C   UNL     1       0.484  12.073  20.328  0.00  0.00    +0.000 C 
ATOM      3  C   UNL     1       1.458  13.131  20.660  0.00  0.00    +0.000 C 
ATOM      4  O   UNL     1       2.401  13.031  21.422  0.00  0.00    +0.000 OA
ATOM      5  N   UNL     1       1.107  14.230  19.960  0.00  0.00    +0.000 N 
ATOM      6  C   UNL     1       0.008  13.993  19.211  0.00  0.00    +0.000 C 
ATOM      7  O   UNL     1      -0.534  14.785  18.462  0.00  0.00    +0.000 OA
ATOM      8  H   UNL     1       1.602  15.105  19.989  0.00  0.00    +0.000 HD
ENDROOT
BRANCH   1  12
ATOM      9  C   UNL     1      -3.044  10.000  16.236  0.00  0.00    +0.000 C 
ATOM     10  N   UNL     1      -2.705  10.804  17.390  0.00  0.00    +0.000 N 
ATOM     11  C   UNL     1      -1.431  11.185  17.724  0.00  0.00    +0.000 A 
ATOM     12  C   UNL     1      -1.509  11.961  18.858  0.00  0.00    +0.000 A 
ATOM     13  C   UNL     1      -2.879  12.054  19.236  0.00  0.00    +0.000 A 
ATOM     14  C   UNL     1      -3.570  12.704  20.278  0.00  0.00    +0.000 A 
ATOM     15  C   UNL     1      -4.960  12.606  20.338  0.00  0.00    +0.000 A 
ATOM     16  F   UNL     1      -5.598  13.243  21.333  0.00  0.00    +0.000 F 
ATOM     17  C   UNL     1      -5.674  11.873  19.396  0.00  0.00    +0.000 A 
ATOM     18 CL   UNL     1      -7.391  11.765  19.492  0.00  0.00    +0.000 Cl
ATOM     19  C   UNL     1      -5.013  11.214  18.354  0.00  0.00    +0.000 A 
ATOM     20  C   UNL     1      -3.611  11.322  18.294  0.00  0.00    +0.000 A 
ENDBRANCH   1  12
BRANCH   2  21
ATOM     21  C   UNL     1       0.565  10.753  20.821  0.00  0.00    +0.000 A 
ATOM     22  C   UNL     1       0.090  10.312  22.038  0.00  0.00    +0.000 A 
ATOM     23  O   UNL     1       0.320   8.976  22.177  0.00  0.00    +0.000 OA
ATOM     24  C   UNL     1       0.957   8.558  21.045  0.00  0.00    +0.000 A 
ATOM     25  C   UNL     1       1.393   7.260  20.785  0.00  0.00    +0.000 A 
ATOM     26  C   UNL     1       2.061   7.052  19.572  0.00  0.00    +0.000 A 
ATOM     27  C   UNL     1       2.215   8.093  18.652  0.00  0.00    +0.000 A 
ATOM     28  C   UNL     1       1.766   9.389  18.942  0.00  0.00    +0.000 A 
ATOM     29  C   UNL     1       1.130   9.625  20.170  0.00  0.00    +0.000 A 
BRANCH  26  30
ATOM     30  O   UNL     1       2.538   5.780  19.374  0.00  0.00    +0.000 OA
BRANCH  30  31
ATOM     31  C   UNL     1       2.661   5.381  18.005  0.00  0.00    +0.000 C 
BRANCH  31  32
ATOM     32  C   UNL     1       1.702   4.261  17.742  0.00  0.00    +0.000 C 
ATOM     33  C   UNL     1       2.160   2.824  17.797  0.00  0.00    +0.000 C 
ATOM     34  C   UNL     1       1.281   3.372  18.885  0.00  0.00    +0.000 C 
ENDBRANCH  31  32
ENDBRANCH  30  31
ENDBRANCH  26  30
ENDBRANCH   2  21
TORSDOF 5
ENDMDL
MODEL 6
REMARK VINA RESULT:      -8.5      5.900     10.262
REMARK  Name = 
REMARK  6 active torsions:
REMARK  status: ('A' for Active; 'I' for Inactive)
REMARK    1  A    between atoms: C_1  and  N_2
REMARK    2  A    between atoms: C_4  and  C_5
REMARK    3  A    between atoms: C_6  and  C_7
REMARK    4  A    between atoms: C_12  and  O_13
REMARK    5  A    between atoms: O_13  and  C_14
REMARK    6  A    between atoms: C_14  and  C_15
REMARK                            x       y       z     vdW  Elec       q    Type
REMARK                         _______ _______ _______ _____ _____    ______ ____
ROOT
ATOM      1  C   UNL     1      -0.426  12.898  19.544  0.00  0.00    +0.000 C 
ATOM      2  C   UNL     1       0.455  12.306  20.363  0.00  0.00    +0.000 C 
ATOM      3  C   UNL     1       1.526  13.282  20.642  0.00  0.00    +0.000 C 
ATOM      4  O   UNL     1       2.497  13.104  21.354  0.00  0.00    +0.000 OA
ATOM      5  N   UNL     1       1.229  14.407  19.960  0.00  0.00    +0.000 N 
ATOM      6  C   UNL     1       0.077  14.261  19.269  0.00  0.00    +0.000 C 
ATOM      7  O   UNL     1      -0.439  15.096  18.549  0.00  0.00    +0.000 OA
ATOM      8  H   UNL     1       1.793  15.240  19.962  0.00  0.00    +0.000 HD
ENDROOT
BRANCH   1  12
ATOM      9  C   UNL     1      -3.517  10.862  16.312  0.00  0.00    +0.000 C 
ATOM     10  N   UNL     1      -3.013  11.455  17.532  0.00  0.00    +0.000 N 
ATOM     11  C   UNL     1      -1.703  11.799  17.744  0.00  0.00    +0.000 A 
ATOM     12  C   UNL     1      -1.615  12.358  18.999  0.00  0.00    +0.000 A 
ATOM     13  C   UNL     1      -2.916  12.350  19.579  0.00  0.00    +0.000 A 
ATOM     14  C   UNL     1      -3.448  12.786  20.809  0.00  0.00    +0.000 A 
ATOM     15  C   UNL     1      -4.815  12.647  21.047  0.00  0.00    +0.000 A 
ATOM     16  F   UNL     1      -5.302  13.080  22.220  0.00  0.00    +0.000 F 
ATOM     17  C   UNL     1      -5.659  12.078  20.098  0.00  0.00    +0.000 A 
ATOM     18 CL   UNL     1      -7.345  11.914  20.417  0.00  0.00    +0.000 Cl
ATOM     19  C   UNL     1      -5.157  11.632  18.872  0.00  0.00    +0.000 A 
ATOM     20  C   UNL     1      -3.778  11.781  18.633  0.00  0.00    +0.000 A 
ENDBRANCH   1  12
BRANCH   2  21
ATOM     21  C   UNL     1       0.456  10.982  20.853  0.00  0.00    +0.000 A 
ATOM     22  C   UNL     1      -0.106  10.556  22.039  0.00  0.00    +0.000 A 
ATOM     23  O   UNL     1       0.062   9.213  22.184  0.00  0.00    +0.000 OA
ATOM     24  C   UNL     1       0.747   8.773  21.088  0.00  0.00    +0.000 A 
ATOM     25  C   UNL     1       1.147   7.459  20.847  0.00  0.00    +0.000 A 
ATOM     26  C   UNL     1       1.876   7.229  19.674  0.00  0.00    +0.000 A 
ATOM     27  C   UNL     1       2.124   8.266  18.769  0.00  0.00    +0.000 A 
ATOM     28  C   UNL     1       1.710   9.577  19.040  0.00  0.00    +0.000 A 
ATOM     29  C   UNL     1       1.013   9.835  20.231  0.00  0.00    +0.000 A 
BRANCH  26  30
ATOM     30  O   UNL     1       2.314   5.940  19.498  0.00  0.00    +0.000 OA
BRANCH  30  31
ATOM     31  C   UNL     1       2.464   5.177  20.700  0.00  0.00    +0.000 C 
BRANCH  31  32
ATOM     32  C   UNL     1       2.219   3.733  20.388  0.00  0.00    +0.000 C 
ATOM     33  C   UNL     1       1.294   2.904  21.244  0.00  0.00    +0.000 C 
ATOM     34  C   UNL     1       0.868   3.315  19.863  0.00  0.00    +0.000 C 
ENDBRANCH  31  32
ENDBRANCH  30  31
ENDBRANCH  26  30
ENDBRANCH   2  21
TORSDOF 5
ENDMDL
MODEL 7
REMARK VINA RESULT:      -8.3      5.498     10.191
REMARK  Name = 
REMARK  6 active torsions:
REMARK  status: ('A' for Active; 'I' for Inactive)
REMARK    1  A    between atoms: C_1  and  N_2
REMARK    2  A    between atoms: C_4  and  C_5
REMARK    3  A    between atoms: C_6  and  C_7
REMARK    4  A    between atoms: C_12  and  O_13
REMARK    5  A    between atoms: O_13  and  C_14
REMARK    6  A    between atoms: C_14  and  C_15
REMARK                            x       y       z     vdW  Elec       q    Type
REMARK                         _______ _______ _______ _____ _____    ______ ____
ROOT
ATOM      1  C   UNL     1      -0.317  12.503  19.329  0.00  0.00    +0.000 C 
ATOM      2  C   UNL     1       0.649  11.952  20.076  0.00  0.00    +0.000 C 
ATOM      3  C   UNL     1       1.562  13.036  20.489  0.00  0.00    +0.000 C 
ATOM      4  O   UNL     1       2.555  12.919  21.183  0.00  0.00    +0.000 OA
ATOM      5  N   UNL     1       1.092  14.181  19.952  0.00  0.00    +0.000 N 
ATOM      6  C   UNL     1      -0.030  13.950  19.235  0.00  0.00    +0.000 C 
ATOM      7  O   UNL     1      -0.673  14.782  18.621  0.00  0.00    +0.000 OA
ATOM      8  H   UNL     1       1.522  15.082  20.066  0.00  0.00    +0.000 HD
ENDROOT
BRANCH   1  12
ATOM      9  C   UNL     1      -2.892   9.877  16.070  0.00  0.00    +0.000 C 
ATOM     10  N   UNL     1      -2.578  10.691  17.224  0.00  0.00    +0.000 N 
ATOM     11  C   UNL     1      -1.312  11.078  17.581  0.00  0.00    +0.000 A 
ATOM     12  C   UNL     1      -1.415  11.862  18.707  0.00  0.00    +0.000 A 
ATOM     13  C   UNL     1      -2.793  11.953  19.057  0.00  0.00    +0.000 A 
ATOM     14  C   UNL     1      -3.506  12.608  20.081  0.00  0.00    +0.000 A 
ATOM     15  C   UNL     1      -4.897  12.507  20.114  0.00  0.00    +0.000 A 
ATOM     16  F   UNL     1      -5.557  13.149  21.090  0.00  0.00    +0.000 F 
ATOM     17  C   UNL     1      -5.589  11.765  19.162  0.00  0.00    +0.000 A 
ATOM     18 CL   UNL     1      -7.308  11.652  19.225  0.00  0.00    +0.000 Cl
ATOM     19  C   UNL     1      -4.906  11.101  18.139  0.00  0.00    +0.000 A 
ATOM     20  C   UNL     1      -3.504  11.212  18.106  0.00  0.00    +0.000 A 
ENDBRANCH   1  12
BRANCH   2  21
ATOM     21  C   UNL     1       0.856  10.592  20.394  0.00  0.00    +0.000 A 
ATOM     22  C   UNL     1       0.529   9.980  21.586  0.00  0.00    +0.000 A 
ATOM     23  O   UNL     1       0.848   8.657  21.539  0.00  0.00    +0.000 OA
ATOM     24  C   UNL     1       1.395   8.419  20.312  0.00  0.00    +0.000 A 
ATOM     25  C   UNL     1       1.879   7.194  19.856  0.00  0.00    +0.000 A 
ATOM     26  C   UNL     1       2.437   7.176  18.571  0.00  0.00    +0.000 A 
ATOM     27  C   UNL     1       2.439   8.326  17.776  0.00  0.00    +0.000 A 
ATOM     28  C   UNL     1       1.945   9.544  18.261  0.00  0.00    +0.000 A 
ATOM     29  C   UNL     1       1.419   9.590  19.562  0.00  0.00    +0.000 A 
BRANCH  26  30
ATOM     30  O   UNL     1       2.965   5.972  18.177  0.00  0.00    +0.000 OA
BRANCH  30  31
ATOM     31  C   UNL     1       4.392   5.943  18.055  0.00  0.00    +0.000 C 
BRANCH  31  32
ATOM     32  C   UNL     1       4.751   5.238  16.784  0.00  0.00    +0.000 C 
ATOM     33  C   UNL     1       5.308   6.001  15.607  0.00  0.00    +0.000 C 
ATOM     34  C   UNL     1       6.205   5.100  16.407  0.00  0.00    +0.000 C 
ENDBRANCH  31  32
ENDBRANCH  30  31
ENDBRANCH  26  30
ENDBRANCH   2  21
TORSDOF 5
ENDMDL
MODEL 8
REMARK VINA RESULT:      -7.8      8.062     11.706
REMARK  Name = 
REMARK  6 active torsions:
REMARK  status: ('A' for Active; 'I' for Inactive)
REMARK    1  A    between atoms: C_1  and  N_2
REMARK    2  A    between atoms: C_4  and  C_5
REMARK    3  A    between atoms: C_6  and  C_7
REMARK    4  A    between atoms: C_12  and  O_13
REMARK    5  A    between atoms: O_13  and  C_14
REMARK    6  A    between atoms: C_14  and  C_15
REMARK                            x       y       z     vdW  Elec       q    Type
REMARK                         _______ _______ _______ _____ _____    ______ ____
ROOT
ATOM      1  C   UNL     1       9.028  16.056  18.947  0.00  0.00    +0.000 C 
ATOM      2  C   UNL     1      10.031  15.215  18.661  0.00  0.00    +0.000 C 
ATOM      3  C   UNL     1      10.845  15.841  17.600  0.00  0.00    +0.000 C 
ATOM      4  O   UNL     1      11.846  15.375  17.089  0.00  0.00    +0.000 OA
ATOM      5  N   UNL     1      10.271  17.025  17.302  0.00  0.00    +0.000 N 
ATOM      6  C   UNL     1       9.171  17.231  18.060  0.00  0.00    +0.000 C 
ATOM      7  O   UNL     1       8.435  18.199  18.008  0.00  0.00    +0.000 OA
ATOM      8  H   UNL     1      10.613  17.664  16.606  0.00  0.00    +0.000 HD
ENDROOT
BRANCH   1  12
ATOM      9  C   UNL     1       6.758  15.612  23.283  0.00  0.00    +0.000 C 
ATOM     10  N   UNL     1       6.970  15.673  21.853  0.00  0.00    +0.000 N 
ATOM     11  C   UNL     1       8.173  15.953  21.257  0.00  0.00    +0.000 A 
ATOM     12  C   UNL     1       7.990  15.891  19.894  0.00  0.00    +0.000 A 
ATOM     13  C   UNL     1       6.625  15.567  19.646  0.00  0.00    +0.000 A 
ATOM     14  C   UNL     1       5.859  15.361  18.481  0.00  0.00    +0.000 A 
ATOM     15  C   UNL     1       4.512  15.019  18.604  0.00  0.00    +0.000 A 
ATOM     16  F   UNL     1       3.805  14.816  17.481  0.00  0.00    +0.000 F 
ATOM     17  C   UNL     1       3.911  14.889  19.852  0.00  0.00    +0.000 A 
ATOM     18 CL   UNL     1       2.244  14.469  19.977  0.00  0.00    +0.000 Cl
ATOM     19  C   UNL     1       4.646  15.094  21.023  0.00  0.00    +0.000 A 
ATOM     20  C   UNL     1       6.006  15.430  20.894  0.00  0.00    +0.000 A 
ENDBRANCH   1  12
BRANCH   2  21
ATOM     21  C   UNL     1      10.287  13.931  19.187  0.00  0.00    +0.000 A 
ATOM     22  C   UNL     1      11.205  13.625  20.169  0.00  0.00    +0.000 A 
ATOM     23  O   UNL     1      11.170  12.292  20.447  0.00  0.00    +0.000 OA
ATOM     24  C   UNL     1      10.231  11.735  19.630  0.00  0.00    +0.000 A 
ATOM     25  C   UNL     1       9.891  10.384  19.576  0.00  0.00    +0.000 A 
ATOM     26  C   UNL     1       8.922  10.016  18.634  0.00  0.00    +0.000 A 
ATOM     27  C   UNL     1       8.289  10.980  17.844  0.00  0.00    +0.000 A 
ATOM     28  C   UNL     1       8.652  12.331  17.920  0.00  0.00    +0.000 A 
ATOM     29  C   UNL     1       9.651  12.713  18.829  0.00  0.00    +0.000 A 
BRANCH  26  30
ATOM     30  O   UNL     1       8.658   8.671  18.558  0.00  0.00    +0.000 OA
BRANCH  30  31
ATOM     31  C   UNL     1       7.702   8.293  17.562  0.00  0.00    +0.000 C 
BRANCH  31  32
ATOM     32  C   UNL     1       7.261   6.886  17.827  0.00  0.00    +0.000 C 
ATOM     33  C   UNL     1       5.889   6.416  17.411  0.00  0.00    +0.000 C 
ATOM     34  C   UNL     1       7.102   5.935  16.668  0.00  0.00    +0.000 C 
ENDBRANCH  31  32
ENDBRANCH  30  31
ENDBRANCH  26  30
ENDBRANCH   2  21
TORSDOF 5
ENDMDL
MODEL 9
REMARK VINA RESULT:      -7.7      4.082      7.430
REMARK  Name = 
REMARK  6 active torsions:
REMARK  status: ('A' for Active; 'I' for Inactive)
REMARK    1  A    between atoms: C_1  and  N_2
REMARK    2  A    between atoms: C_4  and  C_5
REMARK    3  A    between atoms: C_6  and  C_7
REMARK    4  A    between atoms: C_12  and  O_13
REMARK    5  A    between atoms: O_13  and  C_14
REMARK    6  A    between atoms: C_14  and  C_15
REMARK                            x       y       z     vdW  Elec       q    Type
REMARK                         _______ _______ _______ _____ _____    ______ ____
ROOT
ATOM      1  C   UNL     1       4.809   4.765  17.343  0.00  0.00    +0.000 C 
ATOM      2  C   UNL     1       6.099   5.062  17.137  0.00  0.00    +0.000 C 
ATOM      3  C   UNL     1       6.480   4.496  15.828  0.00  0.00    +0.000 C 
ATOM      4  O   UNL     1       7.573   4.573  15.299  0.00  0.00    +0.000 OA
ATOM      5  N   UNL     1       5.390   3.878  15.327  0.00  0.00    +0.000 N 
ATOM      6  C   UNL     1       4.344   3.986  16.175  0.00  0.00    +0.000 C 
ATOM      7  O   UNL     1       3.233   3.517  16.007  0.00  0.00    +0.000 OA
ATOM      8  H   UNL     1       5.364   3.398  14.444  0.00  0.00    +0.000 HD
ENDROOT
BRANCH   1  12
ATOM      9  C   UNL     1       2.347   4.265  21.567  0.00  0.00    +0.000 C 
ATOM     10  N   UNL     1       2.878   4.857  20.358  0.00  0.00    +0.000 N 
ATOM     11  C   UNL     1       3.750   4.231  19.505  0.00  0.00    +0.000 A 
ATOM     12  C   UNL     1       4.003   5.091  18.460  0.00  0.00    +0.000 A 
ATOM     13  C   UNL     1       3.265   6.288  18.684  0.00  0.00    +0.000 A 
ATOM     14  C   UNL     1       3.112   7.497  17.976  0.00  0.00    +0.000 A 
ATOM     15  C   UNL     1       2.262   8.480  18.483  0.00  0.00    +0.000 A 
ATOM     16  F   UNL     1       2.123   9.618  17.785  0.00  0.00    +0.000 F 
ATOM     17  C   UNL     1       1.572   8.293  19.676  0.00  0.00    +0.000 A 
ATOM     18 CL   UNL     1       0.529   9.524  20.283  0.00  0.00    +0.000 Cl
ATOM     19  C   UNL     1       1.708   7.105  20.401  0.00  0.00    +0.000 A 
ATOM     20  C   UNL     1       2.561   6.113  19.882  0.00  0.00    +0.000 A 
ENDBRANCH   1  12
BRANCH   2  21
ATOM     21  C   UNL     1       7.001   5.729  17.993  0.00  0.00    +0.000 A 
ATOM     22  C   UNL     1       7.686   5.163  19.049  0.00  0.00    +0.000 A 
ATOM     23  O   UNL     1       8.486   6.092  19.643  0.00  0.00    +0.000 OA
ATOM     24  C   UNL     1       8.306   7.266  18.971  0.00  0.00    +0.000 A 
ATOM     25  C   UNL     1       8.922   8.481  19.268  0.00  0.00    +0.000 A 
ATOM     26  C   UNL     1       8.567   9.577  18.473  0.00  0.00    +0.000 A 
ATOM     27  C   UNL     1       7.687   9.427  17.397  0.00  0.00    +0.000 A 
ATOM     28  C   UNL     1       7.082   8.193  17.123  0.00  0.00    +0.000 A 
ATOM     29  C   UNL     1       7.395   7.091  17.935  0.00  0.00    +0.000 A 
BRANCH  26  30
ATOM     30  O   UNL     1       9.139  10.772  18.832  0.00  0.00    +0.000 OA
BRANCH  30  31
ATOM     31  C   UNL     1       9.095  11.795  17.831  0.00  0.00    +0.000 C 
BRANCH  31  32
ATOM     32  C   UNL     1      10.484  12.309  17.606  0.00  0.00    +0.000 C 
ATOM     33  C   UNL     1      10.998  13.504  18.370  0.00  0.00    +0.000 C 
ATOM     34  C   UNL     1      11.517  12.131  18.691  0.00  0.00    +0.000 C 
ENDBRANCH  31  32
ENDBRANCH  30  31
ENDBRANCH  26  30
ENDBRANCH   2  21
TORSDOF 5
ENDMDL
