MODEL 1
REMARK VINA RESULT:      -8.5      0.000      0.000
REMARK  Name = 
REMARK  7 active torsions:
REMARK  status: ('A' for Active; 'I' for Inactive)
REMARK    1  A    between atoms: C_1  and  C_2
REMARK    2  A    between atoms: C_6  and  C_7
REMARK    3  A    between atoms: C_13  and  C_14
REMARK    4  A    between atoms: C_14  and  C_15
REMARK    5  A    between atoms: C_15  and  C_16
REMARK    6  A    between atoms: N_18  and  C_19
REMARK    7  A    between atoms: C_19  and  C_20
REMARK                            x       y       z     vdW  Elec       q    Type
REMARK                         _______ _______ _______ _____ _____    ______ ____
ROOT
ATOM      1  C   UNL     1       2.873   4.173  17.592  0.00  0.00    +0.000 C 
ATOM      2  O   UNL     1       2.316   3.396  16.813  0.00  0.00    +0.000 OA
ATOM      3  N   UNL     1       4.145   4.698  17.291  0.00  0.00    +0.000 N 
ATOM      4  C   UNL     1       4.707   4.530  15.955  0.00  0.00    +0.000 C 
ATOM      5  C   UNL     1       6.077   3.865  16.026  0.00  0.00    +0.000 C 
ATOM      6  C   UNL     1       7.021   4.626  16.958  0.00  0.00    +0.000 C 
ATOM      7  C   UNL     1       6.400   4.824  18.345  0.00  0.00    +0.000 C 
ATOM      8  C   UNL     1       4.994   5.434  18.228  0.00  0.00    +0.000 C 
ENDROOT
BRANCH   1  14
ATOM      9  C   UNL     1       1.590   2.343  20.045  0.00  0.00    +0.000 C 
ATOM     10  C   UNL     1       1.731   3.806  19.894  0.00  0.00    +0.000 A 
ATOM     11  N   UNL     1       1.342   4.654  20.918  0.00  0.00    +0.000 NA
ATOM     12  C   UNL     1       1.594   5.847  20.441  0.00  0.00    +0.000 A 
ATOM     13  O   UNL     1       2.089   5.872  19.178  0.00  0.00    +0.000 OA
ATOM     14  C   UNL     1       2.264   4.546  18.850  0.00  0.00    +0.000 A 
ENDBRANCH   1  14
BRANCH   7  15
ATOM     15  C   UNL     1       7.243   5.724  19.267  0.00  0.00    +0.000 C 
BRANCH  15  16
ATOM     16  C   UNL     1       8.416   6.410  18.572  0.00  0.00    +0.000 C 
BRANCH  16  17
ATOM     17  C   UNL     1       8.051   7.806  18.098  0.00  0.00    +0.000 C 
ATOM     18  O   UNL     1       7.244   8.024  17.199  0.00  0.00    +0.000 OA
ATOM     19  N   UNL     1       8.717   8.795  18.781  0.00  0.00    +0.000 N 
ATOM     20  H   UNL     1       9.400   8.546  19.483  0.00  0.00    +0.000 HD
BRANCH  19  21
ATOM     21  C   UNL     1       8.541  10.201  18.480  0.00  0.00    +0.000 C 
BRANCH  21  22
ATOM     22  C   UNL     1       9.774  10.995  18.808  0.00  0.00    +0.000 A 
ATOM     23  C   UNL     1      10.614  11.474  17.791  0.00  0.00    +0.000 A 
ATOM     24  C   UNL     1      11.771  12.193  18.102  0.00  0.00    +0.000 A 
ATOM     25  C   UNL     1      12.108  12.436  19.433  0.00  0.00    +0.000 A 
ATOM     26  C   UNL     1      11.289  11.955  20.454  0.00  0.00    +0.000 A 
ATOM     27  C   UNL     1      10.137  11.240  20.135  0.00  0.00    +0.000 A 
ATOM     28  F   UNL     1       9.371  10.780  21.135  0.00  0.00    +0.000 F 
ENDBRANCH  21  22
ENDBRANCH  19  21
ENDBRANCH  16  17
ENDBRANCH  15  16
ENDBRANCH   7  15
TORSDOF 6
ENDMDL
MODEL 2
REMARK VINA RESULT:      -8.3      5.271      8.349
REMARK  Name = 
REMARK  7 active torsions:
REMARK  status: ('A' for Active; 'I' for Inactive)
REMARK    1  A    between atoms: C_1  and  C_2
REMARK    2  A    between atoms: C_6  and  C_7
REMARK    3  A    between atoms: C_13  and  C_14
REMARK    4  A    between atoms: C_14  and  C_15
REMARK    5  A    between atoms: C_15  and  C_16
REMARK    6  A    between atoms: N_18  and  C_19
REMARK    7  A    between atoms: C_19  and  C_20
REMARK                            x       y       z     vdW  Elec       q    Type
REMARK                         _______ _______ _______ _____ _____    ______ ____
ROOT
ATOM      1  C   UNL     1       4.047   3.695  19.093  0.00  0.00    +0.000 C 
ATOM      2  O   UNL     1       5.107   3.072  19.190  0.00  0.00    +0.000 OA
ATOM      3  N   UNL     1       3.904   4.718  18.134  0.00  0.00    +0.000 N 
ATOM      4  C   UNL     1       4.907   4.884  17.089  0.00  0.00    +0.000 C 
ATOM      5  C   UNL     1       5.459   6.305  17.091  0.00  0.00    +0.000 C 
ATOM      6  C   UNL     1       4.337   7.341  16.986  0.00  0.00    +0.000 C 
ATOM      7  C   UNL     1       3.275   7.129  18.071  0.00  0.00    +0.000 C 
ATOM      8  C   UNL     1       2.793   5.669  18.081  0.00  0.00    +0.000 C 
ENDROOT
BRANCH   1  14
ATOM      9  C   UNL     1       1.101   2.272  18.543  0.00  0.00    +0.000 C 
ATOM     10  C   UNL     1       1.698   2.828  19.775  0.00  0.00    +0.000 A 
ATOM     11  N   UNL     1       1.018   2.745  20.979  0.00  0.00    +0.000 NA
ATOM     12  C   UNL     1       1.822   3.336  21.827  0.00  0.00    +0.000 A 
ATOM     13  O   UNL     1       2.964   3.833  21.290  0.00  0.00    +0.000 OA
ATOM     14  C   UNL     1       2.931   3.428  19.974  0.00  0.00    +0.000 A 
ENDBRANCH   1  14
BRANCH   7  15
ATOM     15  C   UNL     1       2.047   8.043  17.907  0.00  0.00    +0.000 C 
BRANCH  15  16
ATOM     16  C   UNL     1       2.370   9.535  17.919  0.00  0.00    +0.000 C 
BRANCH  16  17
ATOM     17  C   UNL     1       1.260  10.345  18.567  0.00  0.00    +0.000 C 
ATOM     18  O   UNL     1       1.459  11.378  19.200  0.00  0.00    +0.000 OA
ATOM     19  N   UNL     1       0.014   9.801  18.367  0.00  0.00    +0.000 N 
ATOM     20  H   UNL     1      -0.077   8.925  17.870  0.00  0.00    +0.000 HD
BRANCH  19  21
ATOM     21  C   UNL     1      -1.189  10.393  18.915  0.00  0.00    +0.000 C 
BRANCH  21  22
ATOM     22  C   UNL     1      -2.254  10.554  17.867  0.00  0.00    +0.000 A 
ATOM     23  C   UNL     1      -2.162   9.880  16.639  0.00  0.00    +0.000 A 
ATOM     24  C   UNL     1      -3.144  10.050  15.659  0.00  0.00    +0.000 A 
ATOM     25  C   UNL     1      -4.223  10.903  15.889  0.00  0.00    +0.000 A 
ATOM     26  C   UNL     1      -4.319  11.589  17.099  0.00  0.00    +0.000 A 
ATOM     27  C   UNL     1      -3.337  11.413  18.071  0.00  0.00    +0.000 A 
ATOM     28  F   UNL     1      -3.447  12.091  19.222  0.00  0.00    +0.000 F 
ENDBRANCH  21  22
ENDBRANCH  19  21
ENDBRANCH  16  17
ENDBRANCH  15  16
ENDBRANCH   7  15
TORSDOF 6
ENDMDL
MODEL 3
REMARK VINA RESULT:      -8.3      4.909      8.560
REMARK  Name = 
REMARK  7 active torsions:
REMARK  status: ('A' for Active; 'I' for Inactive)
REMARK    1  A    between atoms: C_1  and  C_2
REMARK    2  A    between atoms: C_6  and  C_7
REMARK    3  A    between atoms: C_13  and  C_14
REMARK    4  A    between atoms: C_14  and  C_15
REMARK    5  A    between atoms: C_15  and  C_16
REMARK    6  A    between atoms: N_18  and  C_19
REMARK    7  A    between atoms: C_19  and  C_20
REMARK                            x       y       z     vdW  Elec       q    Type
REMARK                         _______ _______ _______ _____ _____    ______ ____
ROOT
ATOM      1  C   UNL     1       4.374   3.605  17.960  0.00  0.00    +0.000 C 
ATOM      2  O   UNL     1       4.247   2.396  17.753  0.00  0.00    +0.000 OA
ATOM      3  N   UNL     1       3.754   4.209  19.072  0.00  0.00    +0.000 N 
ATOM      4  C   UNL     1       3.168   3.381  20.120  0.00  0.00    +0.000 C 
ATOM      5  C   UNL     1       1.704   3.746  20.340  0.00  0.00    +0.000 C 
ATOM      6  C   UNL     1       1.536   5.241  20.622  0.00  0.00    +0.000 C 
ATOM      7  C   UNL     1       2.189   6.094  19.529  0.00  0.00    +0.000 C 
ATOM      8  C   UNL     1       3.642   5.651  19.290  0.00  0.00    +0.000 C 
ENDROOT
BRANCH   1  14
ATOM      9  C   UNL     1       7.467   4.794  18.130  0.00  0.00    +0.000 C 
ATOM     10  C   UNL     1       6.419   4.951  17.100  0.00  0.00    +0.000 A 
ATOM     11  N   UNL     1       6.685   5.653  15.936  0.00  0.00    +0.000 NA
ATOM     12  C   UNL     1       5.553   5.599  15.280  0.00  0.00    +0.000 A 
ATOM     13  O   UNL     1       4.547   4.950  15.916  0.00  0.00    +0.000 OA
ATOM     14  C   UNL     1       5.128   4.449  17.060  0.00  0.00    +0.000 A 
ENDBRANCH   1  14
BRANCH   7  15
ATOM     15  C   UNL     1       2.188   7.600  19.851  0.00  0.00    +0.000 C 
BRANCH  15  16
ATOM     16  C   UNL     1       1.210   8.006  20.950  0.00  0.00    +0.000 C 
BRANCH  16  17
ATOM     17  C   UNL     1       0.619   9.382  20.697  0.00  0.00    +0.000 C 
ATOM     18  O   UNL     1       0.142  10.085  21.582  0.00  0.00    +0.000 OA
ATOM     19  N   UNL     1       0.679   9.755  19.375  0.00  0.00    +0.000 N 
ATOM     20  H   UNL     1       1.048   9.111  18.689  0.00  0.00    +0.000 HD
BRANCH  19  21
ATOM     21  C   UNL     1       0.152  11.018  18.901  0.00  0.00    +0.000 C 
BRANCH  21  22
ATOM     22  C   UNL     1      -1.260  10.877  18.405  0.00  0.00    +0.000 A 
ATOM     23  C   UNL     1      -1.577   9.968  17.383  0.00  0.00    +0.000 A 
ATOM     24  C   UNL     1      -2.887   9.856  16.911  0.00  0.00    +0.000 A 
ATOM     25  C   UNL     1      -3.895  10.656  17.446  0.00  0.00    +0.000 A 
ATOM     26  C   UNL     1      -3.592  11.572  18.453  0.00  0.00    +0.000 A 
ATOM     27  C   UNL     1      -2.284  11.677  18.919  0.00  0.00    +0.000 A 
ATOM     28  F   UNL     1      -2.016  12.571  19.880  0.00  0.00    +0.000 F 
ENDBRANCH  21  22
ENDBRANCH  19  21
ENDBRANCH  16  17
ENDBRANCH  15  16
ENDBRANCH   7  15
TORSDOF 6
ENDMDL
MODEL 4
REMARK VINA RESULT:      -8.2      4.819      8.473
REMARK  Name = 
REMARK  7 active torsions:
REMARK  status: ('A' for Active; 'I' for Inactive)
REMARK    1  A    between atoms: C_1  and  C_2
REMARK    2  A    between atoms: C_6  and  C_7
REMARK    3  A    between atoms: C_13  and  C_14
REMARK    4  A    between atoms: C_14  and  C_15
REMARK    5  A    between atoms: C_15  and  C_16
REMARK    6  A    between atoms: N_18  and  C_19
REMARK    7  A    between atoms: C_19  and  C_20
REMARK                            x       y       z     vdW  Elec       q    Type
REMARK                         _______ _______ _______ _____ _____    ______ ____
ROOT
ATOM      1  C   UNL     1       4.752   3.444  19.292  0.00  0.00    +0.000 C 
ATOM      2  O   UNL     1       4.772   2.212  19.251  0.00  0.00    +0.000 OA
ATOM      3  N   UNL     1       3.727   4.120  19.984  0.00  0.00    +0.000 N 
ATOM      4  C   UNL     1       2.828   3.379  20.861  0.00  0.00    +0.000 C 
ATOM      5  C   UNL     1       1.374   3.612  20.465  0.00  0.00    +0.000 C 
ATOM      6  C   UNL     1       1.039   5.105  20.420  0.00  0.00    +0.000 C 
ATOM      7  C   UNL     1       2.016   5.872  19.522  0.00  0.00    +0.000 C 
ATOM      8  C   UNL     1       3.470   5.558  19.910  0.00  0.00    +0.000 C 
ENDROOT
BRANCH   1  14
ATOM      9  C   UNL     1       5.003   4.421  16.130  0.00  0.00    +0.000 C 
ATOM     10  C   UNL     1       5.874   4.669  17.298  0.00  0.00    +0.000 A 
ATOM     11  N   UNL     1       6.988   5.484  17.176  0.00  0.00    +0.000 NA
ATOM     12  C   UNL     1       7.514   5.467  18.376  0.00  0.00    +0.000 A 
ATOM     13  O   UNL     1       6.866   4.689  19.279  0.00  0.00    +0.000 OA
ATOM     14  C   UNL     1       5.749   4.239  18.609  0.00  0.00    +0.000 A 
ENDBRANCH   1  14
BRANCH   7  15
ATOM     15  C   UNL     1       1.819   7.398  19.574  0.00  0.00    +0.000 C 
BRANCH  15  16
ATOM     16  C   UNL     1       2.363   8.142  18.357  0.00  0.00    +0.000 C 
BRANCH  16  17
ATOM     17  C   UNL     1       1.744   9.522  18.219  0.00  0.00    +0.000 C 
ATOM     18  O   UNL     1       2.176  10.383  17.459  0.00  0.00    +0.000 OA
ATOM     19  N   UNL     1       0.648   9.701  19.030  0.00  0.00    +0.000 N 
ATOM     20  H   UNL     1       0.368   8.964  19.663  0.00  0.00    +0.000 HD
BRANCH  19  21
ATOM     21  C   UNL     1      -0.085  10.949  19.079  0.00  0.00    +0.000 C 
BRANCH  21  22
ATOM     22  C   UNL     1      -1.423  10.830  18.404  0.00  0.00    +0.000 A 
ATOM     23  C   UNL     1      -1.607   9.958  17.319  0.00  0.00    +0.000 A 
ATOM     24  C   UNL     1      -2.847   9.869  16.681  0.00  0.00    +0.000 A 
ATOM     25  C   UNL     1      -3.915  10.654  17.112  0.00  0.00    +0.000 A 
ATOM     26  C   UNL     1      -3.742  11.534  18.179  0.00  0.00    +0.000 A 
ATOM     27  C   UNL     1      -2.503  11.617  18.811  0.00  0.00    +0.000 A 
ATOM     28  F   UNL     1      -2.360  12.477  19.829  0.00  0.00    +0.000 F 
ENDBRANCH  21  22
ENDBRANCH  19  21
ENDBRANCH  16  17
ENDBRANCH  15  16
ENDBRANCH   7  15
TORSDOF 6
ENDMDL
MODEL 5
REMARK VINA RESULT:      -8.1      5.288      7.726
REMARK  Name = 
REMARK  7 active torsions:
REMARK  status: ('A' for Active; 'I' for Inactive)
REMARK    1  A    between atoms: C_1  and  C_2
REMARK    2  A    between atoms: C_6  and  C_7
REMARK    3  A    between atoms: C_13  and  C_14
REMARK    4  A    between atoms: C_14  and  C_15
REMARK    5  A    between atoms: C_15  and  C_16
REMARK    6  A    between atoms: N_18  and  C_19
REMARK    7  A    between atoms: C_19  and  C_20
REMARK                            x       y       z     vdW  Elec       q    Type
REMARK                         _______ _______ _______ _____ _____    ______ ____
ROOT
ATOM      1  C   UNL     1       3.585   2.926  18.378  0.00  0.00    +0.000 C 
ATOM      2  O   UNL     1       4.186   1.866  18.193  0.00  0.00    +0.000 OA
ATOM      3  N   UNL     1       3.748   4.006  17.486  0.00  0.00    +0.000 N 
ATOM      4  C   UNL     1       4.427   3.803  16.211  0.00  0.00    +0.000 C 
ATOM      5  C   UNL     1       5.592   4.774  16.060  0.00  0.00    +0.000 C 
ATOM      6  C   UNL     1       5.141   6.224  16.251  0.00  0.00    +0.000 C 
ATOM      7  C   UNL     1       4.400   6.409  17.579  0.00  0.00    +0.000 C 
ATOM      8  C   UNL     1       3.276   5.370  17.723  0.00  0.00    +0.000 C 
ENDROOT
BRANCH   1  14
ATOM      9  C   UNL     1       0.330   2.431  18.790  0.00  0.00    +0.000 C 
ATOM     10  C   UNL     1       1.368   2.909  19.727  0.00  0.00    +0.000 A 
ATOM     11  N   UNL     1       1.047   3.173  21.048  0.00  0.00    +0.000 NA
ATOM     12  C   UNL     1       2.180   3.577  21.565  0.00  0.00    +0.000 A 
ATOM     13  O   UNL     1       3.222   3.634  20.698  0.00  0.00    +0.000 OA
ATOM     14  C   UNL     1       2.723   3.116  19.524  0.00  0.00    +0.000 A 
ENDBRANCH   1  14
BRANCH   7  15
ATOM     15  C   UNL     1       3.785   7.812  17.742  0.00  0.00    +0.000 C 
BRANCH  15  16
ATOM     16  C   UNL     1       2.291   7.810  18.052  0.00  0.00    +0.000 C 
BRANCH  16  17
ATOM     17  C   UNL     1       1.724   9.218  18.095  0.00  0.00    +0.000 C 
ATOM     18  O   UNL     1       2.207  10.160  17.473  0.00  0.00    +0.000 OA
ATOM     19  N   UNL     1       0.615   9.325  18.900  0.00  0.00    +0.000 N 
ATOM     20  H   UNL     1       0.292   8.518  19.417  0.00  0.00    +0.000 HD
BRANCH  19  21
ATOM     21  C   UNL     1      -0.075  10.581  19.108  0.00  0.00    +0.000 C 
BRANCH  21  22
ATOM     22  C   UNL     1      -1.386  10.619  18.374  0.00  0.00    +0.000 A 
ATOM     23  C   UNL     1      -1.592   9.837  17.227  0.00  0.00    +0.000 A 
ATOM     24  C   UNL     1      -2.805   9.893  16.535  0.00  0.00    +0.000 A 
ATOM     25  C   UNL     1      -3.824  10.738  16.974  0.00  0.00    +0.000 A 
ATOM     26  C   UNL     1      -3.628  11.530  18.104  0.00  0.00    +0.000 A 
ATOM     27  C   UNL     1      -2.416  11.467  18.789  0.00  0.00    +0.000 A 
ATOM     28  F   UNL     1      -2.249  12.246  19.867  0.00  0.00    +0.000 F 
ENDBRANCH  21  22
ENDBRANCH  19  21
ENDBRANCH  16  17
ENDBRANCH  15  16
ENDBRANCH   7  15
TORSDOF 6
ENDMDL
MODEL 6
REMARK VINA RESULT:      -8.1      1.482      1.947
REMARK  Name = 
REMARK  7 active torsions:
REMARK  status: ('A' for Active; 'I' for Inactive)
REMARK    1  A    between atoms: C_1  and  C_2
REMARK    2  A    between atoms: C_6  and  C_7
REMARK    3  A    between atoms: C_13  and  C_14
REMARK    4  A    between atoms: C_14  and  C_15
REMARK    5  A    between atoms: C_15  and  C_16
REMARK    6  A    between atoms: N_18  and  C_19
REMARK    7  A    between atoms: C_19  and  C_20
REMARK                            x       y       z     vdW  Elec       q    Type
REMARK                         _______ _______ _______ _____ _____    ______ ____
ROOT
ATOM      1  C   UNL     1       3.275   3.972  17.436  0.00  0.00    +0.000 C 
ATOM      2  O   UNL     1       2.516   3.354  16.686  0.00  0.00    +0.000 OA
ATOM      3  N   UNL     1       4.483   4.510  16.948  0.00  0.00    +0.000 N 
ATOM      4  C   UNL     1       4.731   4.560  15.511  0.00  0.00    +0.000 C 
ATOM      5  C   UNL     1       6.040   3.858  15.166  0.00  0.00    +0.000 C 
ATOM      6  C   UNL     1       7.209   4.425  15.974  0.00  0.00    +0.000 C 
ATOM      7  C   UNL     1       6.915   4.397  17.478  0.00  0.00    +0.000 C 
ATOM      8  C   UNL     1       5.558   5.053  17.779  0.00  0.00    +0.000 C 
ENDROOT
BRANCH   1  14
ATOM      9  C   UNL     1       2.502   6.662  19.219  0.00  0.00    +0.000 C 
ATOM     10  C   UNL     1       2.642   5.243  19.608  0.00  0.00    +0.000 A 
ATOM     11  N   UNL     1       2.373   4.847  20.908  0.00  0.00    +0.000 NA
ATOM     12  C   UNL     1       2.608   3.559  20.891  0.00  0.00    +0.000 A 
ATOM     13  O   UNL     1       3.038   3.066  19.703  0.00  0.00    +0.000 OA
ATOM     14  C   UNL     1       2.976   4.138  18.841  0.00  0.00    +0.000 A 
ENDBRANCH   1  14
BRANCH   7  15
ATOM     15  C   UNL     1       7.992   5.104  18.322  0.00  0.00    +0.000 C 
BRANCH  15  16
ATOM     16  C   UNL     1       7.569   6.468  18.863  0.00  0.00    +0.000 C 
BRANCH  16  17
ATOM     17  C   UNL     1       7.951   7.591  17.915  0.00  0.00    +0.000 C 
ATOM     18  O   UNL     1       7.931   7.480  16.693  0.00  0.00    +0.000 OA
ATOM     19  N   UNL     1       8.317   8.743  18.570  0.00  0.00    +0.000 N 
ATOM     20  H   UNL     1       8.351   8.755  19.581  0.00  0.00    +0.000 HD
BRANCH  19  21
ATOM     21  C   UNL     1       8.743   9.934  17.866  0.00  0.00    +0.000 C 
BRANCH  21  22
ATOM     22  C   UNL     1       9.303  10.963  18.808  0.00  0.00    +0.000 A 
ATOM     23  C   UNL     1       9.533  10.653  20.157  0.00  0.00    +0.000 A 
ATOM     24  C   UNL     1      10.033  11.620  21.034  0.00  0.00    +0.000 A 
ATOM     25  C   UNL     1      10.302  12.909  20.576  0.00  0.00    +0.000 A 
ATOM     26  C   UNL     1      10.066  13.234  19.241  0.00  0.00    +0.000 A 
ATOM     27  C   UNL     1       9.568  12.264  18.373  0.00  0.00    +0.000 A 
ATOM     28  F   UNL     1       9.340  12.604  17.097  0.00  0.00    +0.000 F 
ENDBRANCH  21  22
ENDBRANCH  19  21
ENDBRANCH  16  17
ENDBRANCH  15  16
ENDBRANCH   7  15
TORSDOF 6
ENDMDL
MODEL 7
REMARK VINA RESULT:      -8.1      4.655      8.495
REMARK  Name = 
REMARK  7 active torsions:
REMARK  status: ('A' for Active; 'I' for Inactive)
REMARK    1  A    between atoms: C_1  and  C_2
REMARK    2  A    between atoms: C_6  and  C_7
REMARK    3  A    between atoms: C_13  and  C_14
REMARK    4  A    between atoms: C_14  and  C_15
REMARK    5  A    between atoms: C_15  and  C_16
REMARK    6  A    between atoms: N_18  and  C_19
REMARK    7  A    between atoms: C_19  and  C_20
REMARK                            x       y       z     vdW  Elec       q    Type
REMARK                         _______ _______ _______ _____ _____    ______ ____
ROOT
ATOM      1  C   UNL     1       4.376   3.697  18.069  0.00  0.00    +0.000 C 
ATOM      2  O   UNL     1       4.274   2.486  17.864  0.00  0.00    +0.000 OA
ATOM      3  N   UNL     1       3.731   4.293  19.172  0.00  0.00    +0.000 N 
ATOM      4  C   UNL     1       3.145   3.458  20.214  0.00  0.00    +0.000 C 
ATOM      5  C   UNL     1       1.672   3.797  20.413  0.00  0.00    +0.000 C 
ATOM      6  C   UNL     1       1.474   5.289  20.689  0.00  0.00    +0.000 C 
ATOM      7  C   UNL     1       2.126   6.151  19.603  0.00  0.00    +0.000 C 
ATOM      8  C   UNL     1       3.590   5.734  19.384  0.00  0.00    +0.000 C 
ENDROOT
BRANCH   1  14
ATOM      9  C   UNL     1       7.274   5.270  18.448  0.00  0.00    +0.000 C 
ATOM     10  C   UNL     1       6.339   5.213  17.305  0.00  0.00    +0.000 A 
ATOM     11  N   UNL     1       6.656   5.845  16.114  0.00  0.00    +0.000 NA
ATOM     12  C   UNL     1       5.620   5.599  15.351  0.00  0.00    +0.000 A 
ATOM     13  O   UNL     1       4.627   4.884  15.938  0.00  0.00    +0.000 OA
ATOM     14  C   UNL     1       5.127   4.553  17.178  0.00  0.00    +0.000 A 
ENDBRANCH   1  14
BRANCH   7  15
ATOM     15  C   UNL     1       2.094   7.657  19.920  0.00  0.00    +0.000 C 
BRANCH  15  16
ATOM     16  C   UNL     1       1.215   8.029  21.111  0.00  0.00    +0.000 C 
BRANCH  16  17
ATOM     17  C   UNL     1       0.551   9.381  20.920  0.00  0.00    +0.000 C 
ATOM     18  O   UNL     1      -0.126   9.930  21.784  0.00  0.00    +0.000 OA
ATOM     19  N   UNL     1       0.792   9.925  19.680  0.00  0.00    +0.000 N 
ATOM     20  H   UNL     1       1.325   9.402  18.999  0.00  0.00    +0.000 HD
BRANCH  19  21
ATOM     21  C   UNL     1       0.237  11.199  19.271  0.00  0.00    +0.000 C 
BRANCH  21  22
ATOM     22  C   UNL     1      -1.130  11.037  18.666  0.00  0.00    +0.000 A 
ATOM     23  C   UNL     1      -2.214  11.803  19.123  0.00  0.00    +0.000 A 
ATOM     24  C   UNL     1      -3.487  11.633  18.571  0.00  0.00    +0.000 A 
ATOM     25  C   UNL     1      -3.695  10.692  17.564  0.00  0.00    +0.000 A 
ATOM     26  C   UNL     1      -2.629   9.916  17.110  0.00  0.00    +0.000 A 
ATOM     27  C   UNL     1      -1.363  10.092  17.664  0.00  0.00    +0.000 A 
ATOM     28  F   UNL     1      -0.357   9.327  17.217  0.00  0.00    +0.000 F 
ENDBRANCH  21  22
ENDBRANCH  19  21
ENDBRANCH  16  17
ENDBRANCH  15  16
ENDBRANCH   7  15
TORSDOF 6
ENDMDL
MODEL 8
REMARK VINA RESULT:      -8.0      4.938      7.856
REMARK  Name = 
REMARK  7 active torsions:
REMARK  status: ('A' for Active; 'I' for Inactive)
REMARK    1  A    between atoms: C_1  and  C_2
REMARK    2  A    between atoms: C_6  and  C_7
REMARK    3  A    between atoms: C_13  and  C_14
REMARK    4  A    between atoms: C_14  and  C_15
REMARK    5  A    between atoms: C_15  and  C_16
REMARK    6  A    between atoms: N_18  and  C_19
REMARK    7  A    between atoms: C_19  and  C_20
REMARK                            x       y       z     vdW  Elec       q    Type
REMARK                         _______ _______ _______ _____ _____    ______ ____
ROOT
ATOM      1  C   UNL     1       4.676   3.351  17.385  0.00  0.00    +0.000 C 
ATOM      2  O   UNL     1       4.514   2.145  17.190  0.00  0.00    +0.000 OA
ATOM      3  N   UNL     1       4.004   4.003  18.438  0.00  0.00    +0.000 N 
ATOM      4  C   UNL     1       3.308   3.220  19.454  0.00  0.00    +0.000 C 
ATOM      5  C   UNL     1       1.848   3.649  19.559  0.00  0.00    +0.000 C 
ATOM      6  C   UNL     1       1.724   5.155  19.803  0.00  0.00    +0.000 C 
ATOM      7  C   UNL     1       2.490   5.959  18.747  0.00  0.00    +0.000 C 
ATOM      8  C   UNL     1       3.937   5.452  18.623  0.00  0.00    +0.000 C 
ENDROOT
BRANCH   1  14
ATOM      9  C   UNL     1       7.677   4.678  17.886  0.00  0.00    +0.000 C 
ATOM     10  C   UNL     1       6.786   4.703  16.708  0.00  0.00    +0.000 A 
ATOM     11  N   UNL     1       7.199   5.312  15.534  0.00  0.00    +0.000 NA
ATOM     12  C   UNL     1       6.177   5.156  14.731  0.00  0.00    +0.000 A 
ATOM     13  O   UNL     1       5.107   4.523  15.273  0.00  0.00    +0.000 OA
ATOM     14  C   UNL     1       5.529   4.146  16.529  0.00  0.00    +0.000 A 
ENDBRANCH   1  14
BRANCH   7  15
ATOM     15  C   UNL     1       2.530   7.469  19.042  0.00  0.00    +0.000 C 
BRANCH  15  16
ATOM     16  C   UNL     1       2.612   8.350  17.798  0.00  0.00    +0.000 C 
BRANCH  16  17
ATOM     17  C   UNL     1       1.858   9.655  17.982  0.00  0.00    +0.000 C 
ATOM     18  O   UNL     1       2.240  10.727  17.523  0.00  0.00    +0.000 OA
ATOM     19  N   UNL     1       0.703   9.507  18.713  0.00  0.00    +0.000 N 
ATOM     20  H   UNL     1       0.466   8.603  19.098  0.00  0.00    +0.000 HD
BRANCH  19  21
ATOM     21  C   UNL     1      -0.162  10.624  19.032  0.00  0.00    +0.000 C 
BRANCH  21  22
ATOM     22  C   UNL     1      -0.490  10.668  20.499  0.00  0.00    +0.000 A 
ATOM     23  C   UNL     1      -0.179   9.587  21.338  0.00  0.00    +0.000 A 
ATOM     24  C   UNL     1      -0.507   9.624  22.696  0.00  0.00    +0.000 A 
ATOM     25  C   UNL     1      -1.156  10.736  23.231  0.00  0.00    +0.000 A 
ATOM     26  C   UNL     1      -1.482  11.811  22.405  0.00  0.00    +0.000 A 
ATOM     27  C   UNL     1      -1.151  11.767  21.053  0.00  0.00    +0.000 A 
ATOM     28  F   UNL     1      -1.484  12.809  20.278  0.00  0.00    +0.000 F 
ENDBRANCH  21  22
ENDBRANCH  19  21
ENDBRANCH  16  17
ENDBRANCH  15  16
ENDBRANCH   7  15
TORSDOF 6
ENDMDL
MODEL 9
REMARK VINA RESULT:      -8.0      1.437      1.766
REMARK  Name = 
REMARK  7 active torsions:
REMARK  status: ('A' for Active; 'I' for Inactive)
REMARK    1  A    between atoms: C_1  and  C_2
REMARK    2  A    between atoms: C_6  and  C_7
REMARK    3  A    between atoms: C_13  and  C_14
REMARK    4  A    between atoms: C_14  and  C_15
REMARK    5  A    between atoms: C_15  and  C_16
REMARK    6  A    between atoms: N_18  and  C_19
REMARK    7  A    between atoms: C_19  and  C_20
REMARK                            x       y       z     vdW  Elec       q    Type
REMARK                         _______ _______ _______ _____ _____    ______ ____
ROOT
ATOM      1  C   UNL     1       3.235   3.495  17.684  0.00  0.00    +0.000 C 
ATOM      2  O   UNL     1       2.486   2.853  16.945  0.00  0.00    +0.000 OA
ATOM      3  N   UNL     1       4.340   4.191  17.154  0.00  0.00    +0.000 N 
ATOM      4  C   UNL     1       4.468   4.366  15.711  0.00  0.00    +0.000 C 
ATOM      5  C   UNL     1       5.809   3.834  15.220  0.00  0.00    +0.000 C 
ATOM      6  C   UNL     1       6.975   4.465  15.984  0.00  0.00    +0.000 C 
ATOM      7  C   UNL     1       6.806   4.303  17.499  0.00  0.00    +0.000 C 
ATOM      8  C   UNL     1       5.416   4.787  17.945  0.00  0.00    +0.000 C 
ENDROOT
BRANCH   1  14
ATOM      9  C   UNL     1       4.595   1.732  20.145  0.00  0.00    +0.000 C 
ATOM     10  C   UNL     1       3.592   2.817  20.164  0.00  0.00    +0.000 A 
ATOM     11  N   UNL     1       3.108   3.298  21.369  0.00  0.00    +0.000 NA
ATOM     12  C   UNL     1       2.251   4.221  21.010  0.00  0.00    +0.000 A 
ATOM     13  O   UNL     1       2.099   4.378  19.671  0.00  0.00    +0.000 OA
ATOM     14  C   UNL     1       3.033   3.531  19.116  0.00  0.00    +0.000 A 
ENDBRANCH   1  14
BRANCH   7  15
ATOM     15  C   UNL     1       7.868   5.061  18.315  0.00  0.00    +0.000 C 
BRANCH  15  16
ATOM     16  C   UNL     1       7.397   6.406  18.862  0.00  0.00    +0.000 C 
BRANCH  16  17
ATOM     17  C   UNL     1       7.793   7.554  17.950  0.00  0.00    +0.000 C 
ATOM     18  O   UNL     1       7.641   7.532  16.732  0.00  0.00    +0.000 OA
ATOM     19  N   UNL     1       8.337   8.617  18.631  0.00  0.00    +0.000 N 
ATOM     20  H   UNL     1       8.472   8.554  19.631  0.00  0.00    +0.000 HD
BRANCH  19  21
ATOM     21  C   UNL     1       8.807   9.810  17.960  0.00  0.00    +0.000 C 
BRANCH  21  22
ATOM     22  C   UNL     1       9.554  10.715  18.900  0.00  0.00    +0.000 A 
ATOM     23  C   UNL     1       9.245  10.743  20.269  0.00  0.00    +0.000 A 
ATOM     24  C   UNL     1       9.927  11.602  21.135  0.00  0.00    +0.000 A 
ATOM     25  C   UNL     1      10.918  12.451  20.644  0.00  0.00    +0.000 A 
ATOM     26  C   UNL     1      11.225  12.443  19.284  0.00  0.00    +0.000 A 
ATOM     27  C   UNL     1      10.542  11.582  18.427  0.00  0.00    +0.000 A 
ATOM     28  F   UNL     1      10.849  11.601  17.123  0.00  0.00    +0.000 F 
ENDBRANCH  21  22
ENDBRANCH  19  21
ENDBRANCH  16  17
ENDBRANCH  15  16
ENDBRANCH   7  15
TORSDOF 6
ENDMDL
