MODEL 1
REMARK VINA RESULT:      -7.2      0.000      0.000
REMARK  Name = 
REMARK  8 active torsions:
REMARK  status: ('A' for Active; 'I' for Inactive)
REMARK    1  A    between atoms: C_1  and  O_2
REMARK    2  A    between atoms: O_2  and  C_3
REMARK    3  A    between atoms: C_7  and  N_8
REMARK    4  A    between atoms: C_13  and  C_14
REMARK    5  A    between atoms: C_16  and  C_17
REMARK    6  A    between atoms: C_17  and  O_18
REMARK    7  A    between atoms: C_19  and  O_20
REMARK    8  A    between atoms: C_21  and  O_22
REMARK                            x       y       z     vdW  Elec       q    Type
REMARK                         _______ _______ _______ _____ _____    ______ ____
ROOT
ATOM      1  N   UNL     1       2.809   4.102  18.663  0.00  0.00    +0.000 N 
ATOM      2  C   UNL     1       1.772   3.331  18.107  0.00  0.00    +0.000 C 
ATOM      3  O   UNL     1       0.665   3.735  17.779  0.00  0.00    +0.000 OA
ATOM      4  C   UNL     1       2.128   1.882  17.963  0.00  0.00    +0.000 C 
ATOM      5  S   UNL     1       3.774   1.639  18.614  0.00  0.00    +0.000 S 
ATOM      6  C   UNL     1       4.030   3.394  19.054  0.00  0.00    +0.000 C 
ENDROOT
BRANCH   1  11
ATOM      7  C   UNL     1       2.310   7.790  18.272  0.00  0.00    +0.000 A 
ATOM      8  C   UNL     1       1.919   8.139  19.565  0.00  0.00    +0.000 A 
ATOM      9  C   UNL     1       1.887   7.179  20.574  0.00  0.00    +0.000 A 
ATOM     10  C   UNL     1       2.230   5.851  20.306  0.00  0.00    +0.000 A 
ATOM     11  C   UNL     1       2.569   5.468  19.004  0.00  0.00    +0.000 A 
ATOM     12  C   UNL     1       2.603   6.453  17.996  0.00  0.00    +0.000 A 
BRANCH   7  14
ATOM     13  C   UNL     1       1.955  10.113  17.858  0.00  0.00    +0.000 C 
ATOM     14  O   UNL     1       2.357   8.830  17.385  0.00  0.00    +0.000 OA
ENDBRANCH   7  14
ENDBRANCH   1  11
BRANCH   6  15
ATOM     15  C   UNL     1       5.379   3.941  18.455  0.00  0.00    +0.000 C 
ATOM     16  O   UNL     1       5.402   3.881  16.990  0.00  0.00    +0.000 OA
ATOM     17  C   UNL     1       5.477   5.241  16.492  0.00  0.00    +0.000 C 
ATOM     18  C   UNL     1       6.281   5.978  17.543  0.00  0.00    +0.000 C 
ATOM     19  C   UNL     1       5.737   5.382  18.837  0.00  0.00    +0.000 C 
BRANCH  18  20
ATOM     20  O   UNL     1       6.152   7.394  17.500  0.00  0.00    +0.000 OA
ATOM     21  H   UNL     1       5.332   7.634  17.033  0.00  0.00    +0.000 HD
ENDBRANCH  18  20
BRANCH  19  22
ATOM     22  O   UNL     1       6.731   5.414  19.859  0.00  0.00    +0.000 OA
ATOM     23  H   UNL     1       6.288   5.438  20.727  0.00  0.00    +0.000 HD
ENDBRANCH  19  22
BRANCH  17  24
ATOM     24  C   UNL     1       6.127   5.284  15.107  0.00  0.00    +0.000 C 
BRANCH  24  25
ATOM     25  O   UNL     1       7.508   5.634  15.209  0.00  0.00    +0.000 OA
ATOM     26  H   UNL     1       7.718   6.158  14.414  0.00  0.00    +0.000 HD
ENDBRANCH  24  25
ENDBRANCH  17  24
ENDBRANCH   6  15
TORSDOF 7
ENDMDL
MODEL 2
REMARK VINA RESULT:      -7.2      1.015      1.539
REMARK  Name = 
REMARK  8 active torsions:
REMARK  status: ('A' for Active; 'I' for Inactive)
REMARK    1  A    between atoms: C_1  and  O_2
REMARK    2  A    between atoms: O_2  and  C_3
REMARK    3  A    between atoms: C_7  and  N_8
REMARK    4  A    between atoms: C_13  and  C_14
REMARK    5  A    between atoms: C_16  and  C_17
REMARK    6  A    between atoms: C_17  and  O_18
REMARK    7  A    between atoms: C_19  and  O_20
REMARK    8  A    between atoms: C_21  and  O_22
REMARK                            x       y       z     vdW  Elec       q    Type
REMARK                         _______ _______ _______ _____ _____    ______ ____
ROOT
ATOM      1  N   UNL     1       2.869   4.167  18.753  0.00  0.00    +0.000 N 
ATOM      2  C   UNL     1       1.867   3.258  18.364  0.00  0.00    +0.000 C 
ATOM      3  O   UNL     1       0.756   3.543  17.941  0.00  0.00    +0.000 OA
ATOM      4  C   UNL     1       2.269   1.825  18.546  0.00  0.00    +0.000 C 
ATOM      5  S   UNL     1       3.908   1.786  19.257  0.00  0.00    +0.000 S 
ATOM      6  C   UNL     1       4.102   3.603  19.307  0.00  0.00    +0.000 C 
ENDROOT
BRANCH   1  11
ATOM      7  C   UNL     1       1.971   7.546  20.087  0.00  0.00    +0.000 A 
ATOM      8  C   UNL     1       2.184   8.337  18.958  0.00  0.00    +0.000 A 
ATOM      9  C   UNL     1       2.553   7.753  17.748  0.00  0.00    +0.000 A 
ATOM     10  C   UNL     1       2.731   6.370  17.649  0.00  0.00    +0.000 A 
ATOM     11  C   UNL     1       2.580   5.565  18.783  0.00  0.00    +0.000 A 
ATOM     12  C   UNL     1       2.199   6.172  19.997  0.00  0.00    +0.000 A 
BRANCH   7  14
ATOM     13  C   UNL     1       0.513   9.184  21.027  0.00  0.00    +0.000 C 
ATOM     14  O   UNL     1       1.556   8.229  21.197  0.00  0.00    +0.000 OA
ENDBRANCH   7  14
ENDBRANCH   1  11
BRANCH   6  15
ATOM     15  C   UNL     1       5.446   4.051  18.621  0.00  0.00    +0.000 C 
ATOM     16  O   UNL     1       5.392   3.935  17.160  0.00  0.00    +0.000 OA
ATOM     17  C   UNL     1       5.514   5.269  16.605  0.00  0.00    +0.000 C 
ATOM     18  C   UNL     1       6.408   6.000  17.585  0.00  0.00    +0.000 C 
ATOM     19  C   UNL     1       5.899   5.484  18.927  0.00  0.00    +0.000 C 
BRANCH  18  20
ATOM     20  O   UNL     1       6.354   7.418  17.492  0.00  0.00    +0.000 OA
ATOM     21  H   UNL     1       6.550   7.811  18.360  0.00  0.00    +0.000 HD
ENDBRANCH  18  20
BRANCH  19  22
ATOM     22  O   UNL     1       6.944   5.499  19.897  0.00  0.00    +0.000 OA
ATOM     23  H   UNL     1       7.352   4.614  19.933  0.00  0.00    +0.000 HD
ENDBRANCH  19  22
BRANCH  17  24
ATOM     24  C   UNL     1       6.095   5.225  15.190  0.00  0.00    +0.000 C 
BRANCH  24  25
ATOM     25  O   UNL     1       7.461   5.640  15.192  0.00  0.00    +0.000 OA
ATOM     26  H   UNL     1       7.698   5.801  16.123  0.00  0.00    +0.000 HD
ENDBRANCH  24  25
ENDBRANCH  17  24
ENDBRANCH   6  15
TORSDOF 7
ENDMDL
MODEL 3
REMARK VINA RESULT:      -7.0      1.448      2.087
REMARK  Name = 
REMARK  8 active torsions:
REMARK  status: ('A' for Active; 'I' for Inactive)
REMARK    1  A    between atoms: C_1  and  O_2
REMARK    2  A    between atoms: O_2  and  C_3
REMARK    3  A    between atoms: C_7  and  N_8
REMARK    4  A    between atoms: C_13  and  C_14
REMARK    5  A    between atoms: C_16  and  C_17
REMARK    6  A    between atoms: C_17  and  O_18
REMARK    7  A    between atoms: C_19  and  O_20
REMARK    8  A    between atoms: C_21  and  O_22
REMARK                            x       y       z     vdW  Elec       q    Type
REMARK                         _______ _______ _______ _____ _____    ______ ____
ROOT
ATOM      1  N   UNL     1       2.673   4.943  19.655  0.00  0.00    +0.000 N 
ATOM      2  C   UNL     1       1.726   3.921  19.852  0.00  0.00    +0.000 C 
ATOM      3  O   UNL     1       0.521   4.069  20.000  0.00  0.00    +0.000 OA
ATOM      4  C   UNL     1       2.337   2.553  19.904  0.00  0.00    +0.000 C 
ATOM      5  S   UNL     1       4.109   2.721  19.740  0.00  0.00    +0.000 S 
ATOM      6  C   UNL     1       4.080   4.542  19.580  0.00  0.00    +0.000 C 
ENDROOT
BRANCH   1  11
ATOM      7  C   UNL     1       1.896   8.450  18.608  0.00  0.00    +0.000 A 
ATOM      8  C   UNL     1       1.303   8.944  19.771  0.00  0.00    +0.000 A 
ATOM      9  C   UNL     1       1.223   8.150  20.913  0.00  0.00    +0.000 A 
ATOM     10  C   UNL     1       1.719   6.843  20.908  0.00  0.00    +0.000 A 
ATOM     11  C   UNL     1       2.265   6.308  19.736  0.00  0.00    +0.000 A 
ATOM     12  C   UNL     1       2.344   7.128  18.592  0.00  0.00    +0.000 A 
BRANCH   7  14
ATOM     13  C   UNL     1       2.094  10.723  17.909  0.00  0.00    +0.000 C 
ATOM     14  O   UNL     1       1.967   9.344  17.575  0.00  0.00    +0.000 OA
ENDBRANCH   7  14
ENDBRANCH   1  11
BRANCH   6  15
ATOM     15  C   UNL     1       4.874   5.015  18.307  0.00  0.00    +0.000 C 
ATOM     16  O   UNL     1       5.639   6.242  18.551  0.00  0.00    +0.000 OA
ATOM     17  C   UNL     1       7.047   5.923  18.413  0.00  0.00    +0.000 C 
ATOM     18  C   UNL     1       7.080   4.837  17.358  0.00  0.00    +0.000 C 
ATOM     19  C   UNL     1       5.863   3.996  17.726  0.00  0.00    +0.000 C 
BRANCH  18  20
ATOM     20  O   UNL     1       8.280   4.074  17.332  0.00  0.00    +0.000 OA
ATOM     21  H   UNL     1       8.228   3.408  16.624  0.00  0.00    +0.000 HD
ENDBRANCH  18  20
BRANCH  19  22
ATOM     22  O   UNL     1       5.326   3.358  16.569  0.00  0.00    +0.000 OA
ATOM     23  H   UNL     1       6.013   3.334  15.877  0.00  0.00    +0.000 HD
ENDBRANCH  19  22
BRANCH  17  24
ATOM     24  C   UNL     1       7.856   7.160  18.020  0.00  0.00    +0.000 C 
BRANCH  24  25
ATOM     25  O   UNL     1       7.941   7.276  16.599  0.00  0.00    +0.000 OA
ATOM     26  H   UNL     1       7.143   6.848  16.240  0.00  0.00    +0.000 HD
ENDBRANCH  24  25
ENDBRANCH  17  24
ENDBRANCH   6  15
TORSDOF 7
ENDMDL
MODEL 4
REMARK VINA RESULT:      -6.9      1.901      2.752
REMARK  Name = 
REMARK  8 active torsions:
REMARK  status: ('A' for Active; 'I' for Inactive)
REMARK    1  A    between atoms: C_1  and  O_2
REMARK    2  A    between atoms: O_2  and  C_3
REMARK    3  A    between atoms: C_7  and  N_8
REMARK    4  A    between atoms: C_13  and  C_14
REMARK    5  A    between atoms: C_16  and  C_17
REMARK    6  A    between atoms: C_17  and  O_18
REMARK    7  A    between atoms: C_19  and  O_20
REMARK    8  A    between atoms: C_21  and  O_22
REMARK                            x       y       z     vdW  Elec       q    Type
REMARK                         _______ _______ _______ _____ _____    ______ ____
ROOT
ATOM      1  N   UNL     1       2.689   4.958  19.549  0.00  0.00    +0.000 N 
ATOM      2  C   UNL     1       1.788   3.912  19.819  0.00  0.00    +0.000 C 
ATOM      3  O   UNL     1       0.577   4.017  19.957  0.00  0.00    +0.000 OA
ATOM      4  C   UNL     1       2.459   2.580  19.968  0.00  0.00    +0.000 C 
ATOM      5  S   UNL     1       4.221   2.814  19.790  0.00  0.00    +0.000 S 
ATOM      6  C   UNL     1       4.112   4.615  19.501  0.00  0.00    +0.000 C 
ENDROOT
BRANCH   1  11
ATOM      7  C   UNL     1       1.393   8.247  20.775  0.00  0.00    +0.000 A 
ATOM      8  C   UNL     1       1.469   9.008  19.609  0.00  0.00    +0.000 A 
ATOM      9  C   UNL     1       1.878   8.424  18.412  0.00  0.00    +0.000 A 
ATOM     10  C   UNL     1       2.234   7.074  18.363  0.00  0.00    +0.000 A 
ATOM     11  C   UNL     1       2.220   6.306  19.532  0.00  0.00    +0.000 A 
ATOM     12  C   UNL     1       1.797   6.911  20.733  0.00  0.00    +0.000 A 
BRANCH   7  14
ATOM     13  C   UNL     1       0.077  10.041  21.637  0.00  0.00    +0.000 C 
ATOM     14  O   UNL     1       0.922   8.918  21.870  0.00  0.00    +0.000 OA
ENDBRANCH   7  14
ENDBRANCH   1  11
BRANCH   6  15
ATOM     15  C   UNL     1       4.888   5.031  18.196  0.00  0.00    +0.000 C 
ATOM     16  O   UNL     1       5.630   6.285  18.365  0.00  0.00    +0.000 OA
ATOM     17  C   UNL     1       7.043   5.985  18.233  0.00  0.00    +0.000 C 
ATOM     18  C   UNL     1       7.090   4.842  17.240  0.00  0.00    +0.000 C 
ATOM     19  C   UNL     1       5.892   4.000  17.665  0.00  0.00    +0.000 C 
BRANCH  18  20
ATOM     20  O   UNL     1       8.304   4.102  17.246  0.00  0.00    +0.000 OA
ATOM     21  H   UNL     1       8.948   4.537  17.833  0.00  0.00    +0.000 HD
ENDBRANCH  18  20
BRANCH  19  22
ATOM     22  O   UNL     1       5.359   3.288  16.551  0.00  0.00    +0.000 OA
ATOM     23  H   UNL     1       6.028   3.271  15.840  0.00  0.00    +0.000 HD
ENDBRANCH  19  22
BRANCH  17  24
ATOM     24  C   UNL     1       7.824   7.214  17.763  0.00  0.00    +0.000 C 
BRANCH  24  25
ATOM     25  O   UNL     1       8.571   7.779  18.840  0.00  0.00    +0.000 OA
ATOM     26  H   UNL     1       9.433   8.043  18.468  0.00  0.00    +0.000 HD
ENDBRANCH  24  25
ENDBRANCH  17  24
ENDBRANCH   6  15
TORSDOF 7
ENDMDL
MODEL 5
REMARK VINA RESULT:      -6.8      2.257      4.886
REMARK  Name = 
REMARK  8 active torsions:
REMARK  status: ('A' for Active; 'I' for Inactive)
REMARK    1  A    between atoms: C_1  and  O_2
REMARK    2  A    between atoms: O_2  and  C_3
REMARK    3  A    between atoms: C_7  and  N_8
REMARK    4  A    between atoms: C_13  and  C_14
REMARK    5  A    between atoms: C_16  and  C_17
REMARK    6  A    between atoms: C_17  and  O_18
REMARK    7  A    between atoms: C_19  and  O_20
REMARK    8  A    between atoms: C_21  and  O_22
REMARK                            x       y       z     vdW  Elec       q    Type
REMARK                         _______ _______ _______ _____ _____    ______ ____
ROOT
ATOM      1  N   UNL     1       2.977   5.854  18.603  0.00  0.00    +0.000 N 
ATOM      2  C   UNL     1       2.266   6.410  19.682  0.00  0.00    +0.000 C 
ATOM      3  O   UNL     1       1.850   5.808  20.662  0.00  0.00    +0.000 OA
ATOM      4  C   UNL     1       2.008   7.878  19.524  0.00  0.00    +0.000 C 
ATOM      5  S   UNL     1       2.675   8.401  17.951  0.00  0.00    +0.000 S 
ATOM      6  C   UNL     1       3.311   6.749  17.493  0.00  0.00    +0.000 C 
ENDROOT
BRANCH   1  11
ATOM      7  C   UNL     1       4.285   2.438  19.391  0.00  0.00    +0.000 A 
ATOM      8  C   UNL     1       3.455   1.650  18.593  0.00  0.00    +0.000 A 
ATOM      9  C   UNL     1       2.518   2.244  17.750  0.00  0.00    +0.000 A 
ATOM     10  C   UNL     1       2.384   3.634  17.701  0.00  0.00    +0.000 A 
ATOM     11  C   UNL     1       3.166   4.440  18.535  0.00  0.00    +0.000 A 
ATOM     12  C   UNL     1       4.114   3.823  19.377  0.00  0.00    +0.000 A 
BRANCH   7  14
ATOM     13  C   UNL     1       4.804   1.309  21.428  0.00  0.00    +0.000 C 
ATOM     14  O   UNL     1       5.201   1.741  20.130  0.00  0.00    +0.000 OA
ENDBRANCH   7  14
ENDBRANCH   1  11
BRANCH   6  15
ATOM     15  C   UNL     1       4.828   6.817  17.081  0.00  0.00    +0.000 C 
ATOM     16  O   UNL     1       5.716   6.950  18.241  0.00  0.00    +0.000 OA
ATOM     17  C   UNL     1       6.540   5.759  18.307  0.00  0.00    +0.000 C 
ATOM     18  C   UNL     1       6.730   5.356  16.859  0.00  0.00    +0.000 C 
ATOM     19  C   UNL     1       5.349   5.623  16.271  0.00  0.00    +0.000 C 
BRANCH  18  20
ATOM     20  O   UNL     1       7.151   4.012  16.670  0.00  0.00    +0.000 OA
ATOM     21  H   UNL     1       8.073   3.999  16.358  0.00  0.00    +0.000 HD
ENDBRANCH  18  20
BRANCH  19  22
ATOM     22  O   UNL     1       5.449   5.944  14.885  0.00  0.00    +0.000 OA
ATOM     23  H   UNL     1       6.269   5.553  14.530  0.00  0.00    +0.000 HD
ENDBRANCH  19  22
BRANCH  17  24
ATOM     24  C   UNL     1       7.862   6.045  19.022  0.00  0.00    +0.000 C 
BRANCH  24  25
ATOM     25  O   UNL     1       7.875   5.444  20.318  0.00  0.00    +0.000 OA
ATOM     26  H   UNL     1       7.550   6.122  20.938  0.00  0.00    +0.000 HD
ENDBRANCH  24  25
ENDBRANCH  17  24
ENDBRANCH   6  15
TORSDOF 7
ENDMDL
MODEL 6
REMARK VINA RESULT:      -6.7      2.068      5.188
REMARK  Name = 
REMARK  8 active torsions:
REMARK  status: ('A' for Active; 'I' for Inactive)
REMARK    1  A    between atoms: C_1  and  O_2
REMARK    2  A    between atoms: O_2  and  C_3
REMARK    3  A    between atoms: C_7  and  N_8
REMARK    4  A    between atoms: C_13  and  C_14
REMARK    5  A    between atoms: C_16  and  C_17
REMARK    6  A    between atoms: C_17  and  O_18
REMARK    7  A    between atoms: C_19  and  O_20
REMARK    8  A    between atoms: C_21  and  O_22
REMARK                            x       y       z     vdW  Elec       q    Type
REMARK                         _______ _______ _______ _____ _____    ______ ____
ROOT
ATOM      1  N   UNL     1       3.649   4.706  19.082  0.00  0.00    +0.000 N 
ATOM      2  C   UNL     1       3.794   3.530  19.841  0.00  0.00    +0.000 C 
ATOM      3  O   UNL     1       4.716   2.730  19.767  0.00  0.00    +0.000 OA
ATOM      4  C   UNL     1       2.653   3.293  20.784  0.00  0.00    +0.000 C 
ATOM      5  S   UNL     1       1.459   4.605  20.564  0.00  0.00    +0.000 S 
ATOM      6  C   UNL     1       2.421   5.480  19.280  0.00  0.00    +0.000 C 
ENDROOT
BRANCH   1  11
ATOM      7  C   UNL     1       6.713   5.959  17.338  0.00  0.00    +0.000 A 
ATOM      8  C   UNL     1       6.531   5.414  16.066  0.00  0.00    +0.000 A 
ATOM      9  C   UNL     1       5.374   4.698  15.766  0.00  0.00    +0.000 A 
ATOM     10  C   UNL     1       4.387   4.500  16.735  0.00  0.00    +0.000 A 
ATOM     11  C   UNL     1       4.576   4.988  18.033  0.00  0.00    +0.000 A 
ATOM     12  C   UNL     1       5.748   5.717  18.317  0.00  0.00    +0.000 A 
BRANCH   7  14
ATOM     13  C   UNL     1       7.724   8.099  17.636  0.00  0.00    +0.000 C 
ATOM     14  O   UNL     1       7.860   6.688  17.491  0.00  0.00    +0.000 OA
ENDBRANCH   7  14
ENDBRANCH   1  11
BRANCH   6  15
ATOM     15  C   UNL     1       2.603   7.000  19.641  0.00  0.00    +0.000 C 
ATOM     16  O   UNL     1       2.825   7.833  18.454  0.00  0.00    +0.000 OA
ATOM     17  C   UNL     1       1.705   8.746  18.338  0.00  0.00    +0.000 C 
ATOM     18  C   UNL     1       1.296   9.018  19.771  0.00  0.00    +0.000 C 
ATOM     19  C   UNL     1       1.442   7.642  20.411  0.00  0.00    +0.000 C 
BRANCH  18  20
ATOM     20  O   UNL     1      -0.014   9.551  19.921  0.00  0.00    +0.000 OA
ATOM     21  H   UNL     1      -0.092   9.988  20.787  0.00  0.00    +0.000 HD
ENDBRANCH  18  20
BRANCH  19  22
ATOM     22  O   UNL     1       1.748   7.766  21.798  0.00  0.00    +0.000 OA
ATOM     23  H   UNL     1       2.707   7.633  21.922  0.00  0.00    +0.000 HD
ENDBRANCH  19  22
BRANCH  17  24
ATOM     24  C   UNL     1       2.106  10.015  17.583  0.00  0.00    +0.000 C 
BRANCH  24  25
ATOM     25  O   UNL     1       1.483  11.163  18.158  0.00  0.00    +0.000 OA
ATOM     26  H   UNL     1       1.574  11.071  19.124  0.00  0.00    +0.000 HD
ENDBRANCH  24  25
ENDBRANCH  17  24
ENDBRANCH   6  15
TORSDOF 7
ENDMDL
MODEL 7
REMARK VINA RESULT:      -6.7      2.138      5.222
REMARK  Name = 
REMARK  8 active torsions:
REMARK  status: ('A' for Active; 'I' for Inactive)
REMARK    1  A    between atoms: C_1  and  O_2
REMARK    2  A    between atoms: O_2  and  C_3
REMARK    3  A    between atoms: C_7  and  N_8
REMARK    4  A    between atoms: C_13  and  C_14
REMARK    5  A    between atoms: C_16  and  C_17
REMARK    6  A    between atoms: C_17  and  O_18
REMARK    7  A    between atoms: C_19  and  O_20
REMARK    8  A    between atoms: C_21  and  O_22
REMARK                            x       y       z     vdW  Elec       q    Type
REMARK                         _______ _______ _______ _____ _____    ______ ____
ROOT
ATOM      1  N   UNL     1       3.613   4.335  19.382  0.00  0.00    +0.000 N 
ATOM      2  C   UNL     1       3.442   3.178  20.165  0.00  0.00    +0.000 C 
ATOM      3  O   UNL     1       4.271   2.299  20.348  0.00  0.00    +0.000 OA
ATOM      4  C   UNL     1       2.075   3.075  20.773  0.00  0.00    +0.000 C 
ATOM      5  S   UNL     1       1.110   4.478  20.230  0.00  0.00    +0.000 S 
ATOM      6  C   UNL     1       2.455   5.220  19.239  0.00  0.00    +0.000 C 
ENDROOT
BRANCH   1  11
ATOM      7  C   UNL     1       5.961   4.256  16.470  0.00  0.00    +0.000 A 
ATOM      8  C   UNL     1       7.049   4.956  16.993  0.00  0.00    +0.000 A 
ATOM      9  C   UNL     1       7.036   5.391  18.317  0.00  0.00    +0.000 A 
ATOM     10  C   UNL     1       5.931   5.147  19.136  0.00  0.00    +0.000 A 
ATOM     11  C   UNL     1       4.806   4.498  18.615  0.00  0.00    +0.000 A 
ATOM     12  C   UNL     1       4.839   4.059  17.276  0.00  0.00    +0.000 A 
BRANCH   7  14
ATOM     13  C   UNL     1       6.826   4.691  14.289  0.00  0.00    +0.000 C 
ATOM     14  O   UNL     1       6.117   3.833  15.179  0.00  0.00    +0.000 OA
ENDBRANCH   7  14
ENDBRANCH   1  11
BRANCH   6  15
ATOM     15  C   UNL     1       2.677   6.730  19.620  0.00  0.00    +0.000 C 
ATOM     16  O   UNL     1       2.964   7.565  18.448  0.00  0.00    +0.000 OA
ATOM     17  C   UNL     1       1.880   8.517  18.306  0.00  0.00    +0.000 C 
ATOM     18  C   UNL     1       1.435   8.791  19.728  0.00  0.00    +0.000 C 
ATOM     19  C   UNL     1       1.515   7.405  20.359  0.00  0.00    +0.000 C 
BRANCH  18  20
ATOM     20  O   UNL     1       0.141   9.367  19.842  0.00  0.00    +0.000 OA
ATOM     21  H   UNL     1      -0.416   8.810  20.414  0.00  0.00    +0.000 HD
ENDBRANCH  18  20
BRANCH  19  22
ATOM     22  O   UNL     1       1.781   7.507  21.756  0.00  0.00    +0.000 OA
ATOM     23  H   UNL     1       1.162   8.150  22.148  0.00  0.00    +0.000 HD
ENDBRANCH  19  22
BRANCH  17  24
ATOM     24  C   UNL     1       2.348   9.778  17.576  0.00  0.00    +0.000 C 
BRANCH  24  25
ATOM     25  O   UNL     1       1.552  10.902  17.950  0.00  0.00    +0.000 OA
ATOM     26  H   UNL     1       0.641  10.572  18.055  0.00  0.00    +0.000 HD
ENDBRANCH  24  25
ENDBRANCH  17  24
ENDBRANCH   6  15
TORSDOF 7
ENDMDL
MODEL 8
REMARK VINA RESULT:      -6.6      2.410      4.250
REMARK  Name = 
REMARK  8 active torsions:
REMARK  status: ('A' for Active; 'I' for Inactive)
REMARK    1  A    between atoms: C_1  and  O_2
REMARK    2  A    between atoms: O_2  and  C_3
REMARK    3  A    between atoms: C_7  and  N_8
REMARK    4  A    between atoms: C_13  and  C_14
REMARK    5  A    between atoms: C_16  and  C_17
REMARK    6  A    between atoms: C_17  and  O_18
REMARK    7  A    between atoms: C_19  and  O_20
REMARK    8  A    between atoms: C_21  and  O_22
REMARK                            x       y       z     vdW  Elec       q    Type
REMARK                         _______ _______ _______ _____ _____    ______ ____
ROOT
ATOM      1  N   UNL     1       2.643   5.796  19.107  0.00  0.00    +0.000 N 
ATOM      2  C   UNL     1       2.230   7.028  19.646  0.00  0.00    +0.000 C 
ATOM      3  O   UNL     1       1.692   7.201  20.730  0.00  0.00    +0.000 OA
ATOM      4  C   UNL     1       2.482   8.186  18.727  0.00  0.00    +0.000 C 
ATOM      5  S   UNL     1       3.194   7.559  17.213  0.00  0.00    +0.000 S 
ATOM      6  C   UNL     1       3.197   5.812  17.752  0.00  0.00    +0.000 C 
ENDROOT
BRANCH   1  11
ATOM      7  C   UNL     1       3.106   2.664  21.102  0.00  0.00    +0.000 A 
ATOM      8  C   UNL     1       1.778   2.299  21.326  0.00  0.00    +0.000 A 
ATOM      9  C   UNL     1       0.740   3.040  20.767  0.00  0.00    +0.000 A 
ATOM     10  C   UNL     1       1.009   4.167  19.987  0.00  0.00    +0.000 A 
ATOM     11  C   UNL     1       2.331   4.585  19.797  0.00  0.00    +0.000 A 
ATOM     12  C   UNL     1       3.369   3.819  20.364  0.00  0.00    +0.000 A 
BRANCH   7  14
ATOM     13  C   UNL     1       5.113   1.403  20.826  0.00  0.00    +0.000 C 
ATOM     14  O   UNL     1       4.034   1.825  21.655  0.00  0.00    +0.000 OA
ENDBRANCH   7  14
ENDBRANCH   1  11
BRANCH   6  15
ATOM     15  C   UNL     1       4.618   5.162  17.569  0.00  0.00    +0.000 C 
ATOM     16  O   UNL     1       4.859   4.727  16.189  0.00  0.00    +0.000 OA
ATOM     17  C   UNL     1       5.956   5.515  15.662  0.00  0.00    +0.000 C 
ATOM     18  C   UNL     1       6.836   5.782  16.865  0.00  0.00    +0.000 C 
ATOM     19  C   UNL     1       5.808   6.048  17.959  0.00  0.00    +0.000 C 
BRANCH  18  20
ATOM     20  O   UNL     1       7.749   6.860  16.703  0.00  0.00    +0.000 OA
ATOM     21  H   UNL     1       7.694   7.454  17.473  0.00  0.00    +0.000 HD
ENDBRANCH  18  20
BRANCH  19  22
ATOM     22  O   UNL     1       6.328   5.682  19.235  0.00  0.00    +0.000 OA
ATOM     23  H   UNL     1       6.891   4.892  19.130  0.00  0.00    +0.000 HD
ENDBRANCH  19  22
BRANCH  17  24
ATOM     24  C   UNL     1       6.686   4.764  14.546  0.00  0.00    +0.000 C 
BRANCH  24  25
ATOM     25  O   UNL     1       7.826   5.501  14.103  0.00  0.00    +0.000 OA
ATOM     26  H   UNL     1       8.492   5.429  14.812  0.00  0.00    +0.000 HD
ENDBRANCH  24  25
ENDBRANCH  17  24
ENDBRANCH   6  15
TORSDOF 7
ENDMDL
MODEL 9
REMARK VINA RESULT:      -6.6      1.997      5.191
REMARK  Name = 
REMARK  8 active torsions:
REMARK  status: ('A' for Active; 'I' for Inactive)
REMARK    1  A    between atoms: C_1  and  O_2
REMARK    2  A    between atoms: O_2  and  C_3
REMARK    3  A    between atoms: C_7  and  N_8
REMARK    4  A    between atoms: C_13  and  C_14
REMARK    5  A    between atoms: C_16  and  C_17
REMARK    6  A    between atoms: C_17  and  O_18
REMARK    7  A    between atoms: C_19  and  O_20
REMARK    8  A    between atoms: C_21  and  O_22
REMARK                            x       y       z     vdW  Elec       q    Type
REMARK                         _______ _______ _______ _____ _____    ______ ____
ROOT
ATOM      1  N   UNL     1       3.634   3.737  17.834  0.00  0.00    +0.000 N 
ATOM      2  C   UNL     1       3.232   2.404  18.035  0.00  0.00    +0.000 C 
ATOM      3  O   UNL     1       3.935   1.410  17.921  0.00  0.00    +0.000 OA
ATOM      4  C   UNL     1       1.781   2.274  18.390  0.00  0.00    +0.000 C 
ATOM      5  S   UNL     1       1.052   3.905  18.384  0.00  0.00    +0.000 S 
ATOM      6  C   UNL     1       2.602   4.770  17.949  0.00  0.00    +0.000 C 
ENDROOT
BRANCH   1  11
ATOM      7  C   UNL     1       6.436   4.321  15.423  0.00  0.00    +0.000 A 
ATOM      8  C   UNL     1       7.449   4.726  16.293  0.00  0.00    +0.000 A 
ATOM      9  C   UNL     1       7.231   4.741  17.669  0.00  0.00    +0.000 A 
ATOM     10  C   UNL     1       5.993   4.366  18.199  0.00  0.00    +0.000 A 
ATOM     11  C   UNL     1       4.946   4.011  17.341  0.00  0.00    +0.000 A 
ATOM     12  C   UNL     1       5.186   3.995  15.952  0.00  0.00    +0.000 A 
BRANCH   7  14
ATOM     13  C   UNL     1       5.872   3.699  13.189  0.00  0.00    +0.000 C 
ATOM     14  O   UNL     1       6.790   4.294  14.102  0.00  0.00    +0.000 OA
ENDBRANCH   7  14
ENDBRANCH   1  11
BRANCH   6  15
ATOM     15  C   UNL     1       2.898   5.947  18.950  0.00  0.00    +0.000 C 
ATOM     16  O   UNL     1       2.864   7.258  18.294  0.00  0.00    +0.000 OA
ATOM     17  C   UNL     1       1.770   8.014  18.872  0.00  0.00    +0.000 C 
ATOM     18  C   UNL     1       1.704   7.537  20.308  0.00  0.00    +0.000 C 
ATOM     19  C   UNL     1       1.959   6.041  20.159  0.00  0.00    +0.000 C 
BRANCH  18  20
ATOM     20  O   UNL     1       0.477   7.816  20.968  0.00  0.00    +0.000 OA
ATOM     21  H   UNL     1       0.309   7.139  21.647  0.00  0.00    +0.000 HD
ENDBRANCH  18  20
BRANCH  19  22
ATOM     22  O   UNL     1       2.576   5.519  21.334  0.00  0.00    +0.000 OA
ATOM     23  H   UNL     1       3.181   4.798  21.077  0.00  0.00    +0.000 HD
ENDBRANCH  19  22
BRANCH  17  24
ATOM     24  C   UNL     1       2.019   9.519  18.756  0.00  0.00    +0.000 C 
BRANCH  24  25
ATOM     25  O   UNL     1       1.971   9.935  17.391  0.00  0.00    +0.000 OA
ATOM     26  H   UNL     1       1.042  10.162  17.205  0.00  0.00    +0.000 HD
ENDBRANCH  24  25
ENDBRANCH  17  24
ENDBRANCH   6  15
TORSDOF 7
ENDMDL
