MODEL 1
REMARK VINA RESULT:      -7.7      0.000      0.000
REMARK  Name = 
REMARK  8 active torsions:
REMARK  status: ('A' for Active; 'I' for Inactive)
REMARK    1  A    between atoms: C_1  and  C_2
REMARK    2  A    between atoms: C_2  and  S_3
REMARK    3  A    between atoms: S_3  and  N_6
REMARK    4  A    between atoms: N_6  and  C_7
REMARK    5  A    between atoms: C_10  and  O_11
REMARK    6  A    between atoms: O_11  and  C_12
REMARK    7  A    between atoms: C_20  and  C_21
REMARK    8  A    between atoms: N_23  and  C_24
REMARK                            x       y       z     vdW  Elec       q    Type
REMARK                         _______ _______ _______ _____ _____    ______ ____
ROOT
ATOM      1  C   UNL     1       2.162   7.445  19.768  0.00  0.00    +0.000 A 
ATOM      2  C   UNL     1       2.277   7.585  18.394  0.00  0.00    +0.000 A 
ATOM      3  C   UNL     1       1.752   8.718  17.772  0.00  0.00    +0.000 A 
ATOM      4  C   UNL     1       1.026   9.680  18.499  0.00  0.00    +0.000 A 
ATOM      5  C   UNL     1       0.947   9.570  19.906  0.00  0.00    +0.000 A 
ATOM      6  C   UNL     1       1.509   8.424  20.518  0.00  0.00    +0.000 A 
ENDROOT
BRANCH   5   7
ATOM      7  C   UNL     1       0.332  10.581  20.780  0.00  0.00    +0.000 A 
ATOM      8  C   UNL     1      -0.711  10.284  21.652  0.00  0.00    +0.000 A 
ATOM      9  N   UNL     1      -1.057  11.416  22.355  0.00  0.00    +0.000 N 
ATOM     10  C   UNL     1      -2.134  11.502  23.316  0.00  0.00    +0.000 C 
ATOM     11  C   UNL     1      -0.228  12.441  21.989  0.00  0.00    +0.000 A 
ATOM     12  C   UNL     1      -0.208  13.808  22.465  0.00  0.00    +0.000 A 
ATOM     13  O   UNL     1      -0.962  14.276  23.314  0.00  0.00    +0.000 OA
ATOM     14  N   UNL     1       0.774  14.588  21.865  0.00  0.00    +0.000 N 
ATOM     15  C   UNL     1       1.674  14.110  20.932  0.00  0.00    +0.000 A 
ATOM     16  C   UNL     1       1.643  12.826  20.524  0.00  0.00    +0.000 A 
ATOM     17  C   UNL     1       0.646  11.943  21.036  0.00  0.00    +0.000 A 
ATOM     18  H   UNL     1       0.809  15.552  22.165  0.00  0.00    +0.000 HD
ENDBRANCH   5   7
BRANCH   1  19
ATOM     19  N   UNL     1       2.703   6.282  20.408  0.00  0.00    +0.000 N 
ATOM     20  H   UNL     1       2.158   6.023  21.233  0.00  0.00    +0.000 HD
BRANCH  19  21
ATOM     21  S   UNL     1       2.822   4.893  19.425  0.00  0.00    +0.000 S 
ATOM     22  O   UNL     1       4.124   4.840  18.801  0.00  0.00    +0.000 OA
ATOM     23  O   UNL     1       1.596   4.851  18.657  0.00  0.00    +0.000 OA
BRANCH  21  25
ATOM     24  C   UNL     1       1.318   3.238  21.011  0.00  0.00    +0.000 C 
ATOM     25  C   UNL     1       2.748   3.620  20.678  0.00  0.00    +0.000 C 
ENDBRANCH  21  25
ENDBRANCH  19  21
ENDBRANCH   1  19
BRANCH   4  26
ATOM     26  O   UNL     1       0.398  10.744  17.862  0.00  0.00    +0.000 OA
BRANCH  26  27
ATOM     27  C   UNL     1      -0.982  10.792  17.832  0.00  0.00    +0.000 A 
ATOM     28  C   UNL     1      -1.656   9.661  17.356  0.00  0.00    +0.000 A 
ATOM     29  C   UNL     1      -3.056   9.629  17.362  0.00  0.00    +0.000 A 
ATOM     30  C   UNL     1      -3.770  10.724  17.840  0.00  0.00    +0.000 A 
ATOM     31  F   UNL     1      -5.109  10.673  17.880  0.00  0.00    +0.000 F 
ATOM     32  C   UNL     1      -3.117  11.869  18.272  0.00  0.00    +0.000 A 
ATOM     33  C   UNL     1      -1.728  11.909  18.231  0.00  0.00    +0.000 A 
ATOM     34  F   UNL     1      -1.116  13.035  18.626  0.00  0.00    +0.000 F 
ENDBRANCH  26  27
ENDBRANCH   4  26
TORSDOF 6
ENDMDL
MODEL 2
REMARK VINA RESULT:      -7.6      4.386      8.902
REMARK  Name = 
REMARK  8 active torsions:
REMARK  status: ('A' for Active; 'I' for Inactive)
REMARK    1  A    between atoms: C_1  and  C_2
REMARK    2  A    between atoms: C_2  and  S_3
REMARK    3  A    between atoms: S_3  and  N_6
REMARK    4  A    between atoms: N_6  and  C_7
REMARK    5  A    between atoms: C_10  and  O_11
REMARK    6  A    between atoms: O_11  and  C_12
REMARK    7  A    between atoms: C_20  and  C_21
REMARK    8  A    between atoms: N_23  and  C_24
REMARK                            x       y       z     vdW  Elec       q    Type
REMARK                         _______ _______ _______ _____ _____    ______ ____
ROOT
ATOM      1  C   UNL     1       1.718   9.100  18.687  0.00  0.00    +0.000 A 
ATOM      2  C   UNL     1       1.243   8.679  19.918  0.00  0.00    +0.000 A 
ATOM      3  C   UNL     1       1.738   7.502  20.481  0.00  0.00    +0.000 A 
ATOM      4  C   UNL     1       2.645   6.683  19.781  0.00  0.00    +0.000 A 
ATOM      5  C   UNL     1       3.171   7.130  18.548  0.00  0.00    +0.000 A 
ATOM      6  C   UNL     1       2.672   8.339  18.008  0.00  0.00    +0.000 A 
ENDROOT
BRANCH   5   7
ATOM      7  C   UNL     1       4.219   6.425  17.795  0.00  0.00    +0.000 A 
ATOM      8  C   UNL     1       4.140   6.208  16.422  0.00  0.00    +0.000 A 
ATOM      9  N   UNL     1       5.274   5.553  15.996  0.00  0.00    +0.000 N 
ATOM     10  C   UNL     1       5.522   5.115  14.640  0.00  0.00    +0.000 C 
ATOM     11  C   UNL     1       6.116   5.376  17.060  0.00  0.00    +0.000 A 
ATOM     12  C   UNL     1       7.420   4.749  17.092  0.00  0.00    +0.000 A 
ATOM     13  O   UNL     1       8.001   4.264  16.124  0.00  0.00    +0.000 OA
ATOM     14  N   UNL     1       7.996   4.737  18.358  0.00  0.00    +0.000 N 
ATOM     15  C   UNL     1       7.410   5.298  19.477  0.00  0.00    +0.000 A 
ATOM     16  C   UNL     1       6.203   5.893  19.409  0.00  0.00    +0.000 A 
ATOM     17  C   UNL     1       5.494   5.923  18.172  0.00  0.00    +0.000 A 
ATOM     18  H   UNL     1       8.903   4.296  18.419  0.00  0.00    +0.000 HD
ENDBRANCH   5   7
BRANCH   1  19
ATOM     19  N   UNL     1       1.211  10.310  18.108  0.00  0.00    +0.000 N 
ATOM     20  H   UNL     1       0.572  10.114  17.334  0.00  0.00    +0.000 HD
BRANCH  19  21
ATOM     21  S   UNL     1       0.394  11.351  19.185  0.00  0.00    +0.000 S 
ATOM     22  O   UNL     1       1.194  11.561  20.370  0.00  0.00    +0.000 OA
ATOM     23  O   UNL     1      -0.965  10.859  19.250  0.00  0.00    +0.000 OA
BRANCH  21  25
ATOM     24  C   UNL     1       1.521  13.792  18.651  0.00  0.00    +0.000 C 
ATOM     25  C   UNL     1       0.404  12.859  18.225  0.00  0.00    +0.000 C 
ENDBRANCH  21  25
ENDBRANCH  19  21
ENDBRANCH   1  19
BRANCH   4  26
ATOM     26  O   UNL     1       3.043   5.452  20.287  0.00  0.00    +0.000 OA
BRANCH  26  27
ATOM     27  C   UNL     1       2.417   4.305  19.839  0.00  0.00    +0.000 A 
ATOM     28  C   UNL     1       1.032   4.212  20.024  0.00  0.00    +0.000 A 
ATOM     29  C   UNL     1       0.336   3.101  19.534  0.00  0.00    +0.000 A 
ATOM     30  C   UNL     1       1.026   2.093  18.866  0.00  0.00    +0.000 A 
ATOM     31  F   UNL     1       0.350   1.050  18.364  0.00  0.00    +0.000 F 
ATOM     32  C   UNL     1       2.403   2.148  18.716  0.00  0.00    +0.000 A 
ATOM     33  C   UNL     1       3.095   3.238  19.236  0.00  0.00    +0.000 A 
ATOM     34  F   UNL     1       4.429   3.259  19.106  0.00  0.00    +0.000 F 
ENDBRANCH  26  27
ENDBRANCH   4  26
TORSDOF 6
ENDMDL
MODEL 3
REMARK VINA RESULT:      -7.5      0.940      1.172
REMARK  Name = 
REMARK  8 active torsions:
REMARK  status: ('A' for Active; 'I' for Inactive)
REMARK    1  A    between atoms: C_1  and  C_2
REMARK    2  A    between atoms: C_2  and  S_3
REMARK    3  A    between atoms: S_3  and  N_6
REMARK    4  A    between atoms: N_6  and  C_7
REMARK    5  A    between atoms: C_10  and  O_11
REMARK    6  A    between atoms: O_11  and  C_12
REMARK    7  A    between atoms: C_20  and  C_21
REMARK    8  A    between atoms: N_23  and  C_24
REMARK                            x       y       z     vdW  Elec       q    Type
REMARK                         _______ _______ _______ _____ _____    ______ ____
ROOT
ATOM      1  C   UNL     1       2.192   7.465  19.732  0.00  0.00    +0.000 A 
ATOM      2  C   UNL     1       2.268   7.590  18.354  0.00  0.00    +0.000 A 
ATOM      3  C   UNL     1       1.710   8.709  17.734  0.00  0.00    +0.000 A 
ATOM      4  C   UNL     1       0.992   9.670  18.470  0.00  0.00    +0.000 A 
ATOM      5  C   UNL     1       0.953   9.576  19.879  0.00  0.00    +0.000 A 
ATOM      6  C   UNL     1       1.546   8.445  20.489  0.00  0.00    +0.000 A 
ENDROOT
BRANCH   5   7
ATOM      7  C   UNL     1       0.348  10.589  20.757  0.00  0.00    +0.000 A 
ATOM      8  C   UNL     1      -0.674  10.291  21.654  0.00  0.00    +0.000 A 
ATOM      9  N   UNL     1      -1.014  11.426  22.355  0.00  0.00    +0.000 N 
ATOM     10  C   UNL     1      -2.071  11.512  23.338  0.00  0.00    +0.000 C 
ATOM     11  C   UNL     1      -0.202  12.455  21.963  0.00  0.00    +0.000 A 
ATOM     12  C   UNL     1      -0.182  13.826  22.427  0.00  0.00    +0.000 A 
ATOM     13  O   UNL     1      -0.922  14.296  23.288  0.00  0.00    +0.000 OA
ATOM     14  N   UNL     1       0.780  14.608  21.799  0.00  0.00    +0.000 N 
ATOM     15  C   UNL     1       1.664  14.130  20.851  0.00  0.00    +0.000 A 
ATOM     16  C   UNL     1       1.634  12.842  20.455  0.00  0.00    +0.000 A 
ATOM     17  C   UNL     1       0.656  11.956  20.995  0.00  0.00    +0.000 A 
ATOM     18  H   UNL     1       0.814  15.575  22.091  0.00  0.00    +0.000 HD
ENDBRANCH   5   7
BRANCH   1  19
ATOM     19  N   UNL     1       2.765   6.317  20.372  0.00  0.00    +0.000 N 
ATOM     20  H   UNL     1       3.068   6.532  21.323  0.00  0.00    +0.000 HD
BRANCH  19  21
ATOM     21  S   UNL     1       1.753   4.947  20.462  0.00  0.00    +0.000 S 
ATOM     22  O   UNL     1       0.368   5.351  20.393  0.00  0.00    +0.000 OA
ATOM     23  O   UNL     1       2.270   4.149  21.552  0.00  0.00    +0.000 OA
BRANCH  21  25
ATOM     24  C   UNL     1       3.681   4.101  18.706  0.00  0.00    +0.000 C 
ATOM     25  C   UNL     1       2.181   4.145  18.922  0.00  0.00    +0.000 C 
ENDBRANCH  21  25
ENDBRANCH  19  21
ENDBRANCH   1  19
BRANCH   4  26
ATOM     26  O   UNL     1       0.333  10.718  17.837  0.00  0.00    +0.000 OA
BRANCH  26  27
ATOM     27  C   UNL     1      -1.048  10.744  17.839  0.00  0.00    +0.000 A 
ATOM     28  C   UNL     1      -1.715   9.608  17.364  0.00  0.00    +0.000 A 
ATOM     29  C   UNL     1      -3.113   9.554  17.400  0.00  0.00    +0.000 A 
ATOM     30  C   UNL     1      -3.834  10.632  17.908  0.00  0.00    +0.000 A 
ATOM     31  F   UNL     1      -5.171  10.559  17.977  0.00  0.00    +0.000 F 
ATOM     32  C   UNL     1      -3.190  11.781  18.339  0.00  0.00    +0.000 A 
ATOM     33  C   UNL     1      -1.802  11.844  18.268  0.00  0.00    +0.000 A 
ATOM     34  F   UNL     1      -1.200  12.975  18.663  0.00  0.00    +0.000 F 
ENDBRANCH  26  27
ENDBRANCH   4  26
TORSDOF 6
ENDMDL
MODEL 4
REMARK VINA RESULT:      -7.5      4.240      8.735
REMARK  Name = 
REMARK  8 active torsions:
REMARK  status: ('A' for Active; 'I' for Inactive)
REMARK    1  A    between atoms: C_1  and  C_2
REMARK    2  A    between atoms: C_2  and  S_3
REMARK    3  A    between atoms: S_3  and  N_6
REMARK    4  A    between atoms: N_6  and  C_7
REMARK    5  A    between atoms: C_10  and  O_11
REMARK    6  A    between atoms: O_11  and  C_12
REMARK    7  A    between atoms: C_20  and  C_21
REMARK    8  A    between atoms: N_23  and  C_24
REMARK                            x       y       z     vdW  Elec       q    Type
REMARK                         _______ _______ _______ _____ _____    ______ ____
ROOT
ATOM      1  C   UNL     1       1.571   9.356  18.682  0.00  0.00    +0.000 A 
ATOM      2  C   UNL     1       1.130   8.912  19.919  0.00  0.00    +0.000 A 
ATOM      3  C   UNL     1       1.660   7.738  20.457  0.00  0.00    +0.000 A 
ATOM      4  C   UNL     1       2.568   6.946  19.729  0.00  0.00    +0.000 A 
ATOM      5  C   UNL     1       3.060   7.417  18.491  0.00  0.00    +0.000 A 
ATOM      6  C   UNL     1       2.526   8.622  17.976  0.00  0.00    +0.000 A 
ENDROOT
BRANCH   5   7
ATOM      7  C   UNL     1       4.106   6.742  17.708  0.00  0.00    +0.000 A 
ATOM      8  C   UNL     1       4.105   6.720  16.316  0.00  0.00    +0.000 A 
ATOM      9  N   UNL     1       5.217   6.044  15.868  0.00  0.00    +0.000 N 
ATOM     10  C   UNL     1       5.525   5.776  14.480  0.00  0.00    +0.000 C 
ATOM     11  C   UNL     1       5.971   5.659  16.943  0.00  0.00    +0.000 A 
ATOM     12  C   UNL     1       7.224   4.935  16.962  0.00  0.00    +0.000 A 
ATOM     13  O   UNL     1       7.834   4.543  15.970  0.00  0.00    +0.000 OA
ATOM     14  N   UNL     1       7.711   4.707  18.244  0.00  0.00    +0.000 N 
ATOM     15  C   UNL     1       7.091   5.154  19.395  0.00  0.00    +0.000 A 
ATOM     16  C   UNL     1       5.935   5.844  19.342  0.00  0.00    +0.000 A 
ATOM     17  C   UNL     1       5.315   6.096  18.082  0.00  0.00    +0.000 A 
ATOM     18  H   UNL     1       8.579   4.193  18.295  0.00  0.00    +0.000 HD
ENDBRANCH   5   7
BRANCH   1  19
ATOM     19  N   UNL     1       1.028  10.562  18.129  0.00  0.00    +0.000 N 
ATOM     20  H   UNL     1       1.191  10.617  17.122  0.00  0.00    +0.000 HD
BRANCH  19  21
ATOM     21  S   UNL     1      -0.642  10.798  18.384  0.00  0.00    +0.000 S 
ATOM     22  O   UNL     1      -0.930  10.801  19.799  0.00  0.00    +0.000 OA
ATOM     23  O   UNL     1      -1.308   9.903  17.463  0.00  0.00    +0.000 OA
BRANCH  21  25
ATOM     24  C   UNL     1      -0.117  13.474  18.668  0.00  0.00    +0.000 C 
ATOM     25  C   UNL     1      -0.815  12.469  17.772  0.00  0.00    +0.000 C 
ENDBRANCH  21  25
ENDBRANCH  19  21
ENDBRANCH   1  19
BRANCH   4  26
ATOM     26  O   UNL     1       3.001   5.717  20.212  0.00  0.00    +0.000 OA
BRANCH  26  27
ATOM     27  C   UNL     1       2.293   4.577  19.884  0.00  0.00    +0.000 A 
ATOM     28  C   UNL     1       1.893   4.427  18.551  0.00  0.00    +0.000 A 
ATOM     29  C   UNL     1       1.227   3.263  18.149  0.00  0.00    +0.000 A 
ATOM     30  C   UNL     1       0.966   2.260  19.079  0.00  0.00    +0.000 A 
ATOM     31  F   UNL     1       0.363   1.131  18.681  0.00  0.00    +0.000 F 
ATOM     32  C   UNL     1       1.315   2.414  20.412  0.00  0.00    +0.000 A 
ATOM     33  C   UNL     1       1.944   3.588  20.814  0.00  0.00    +0.000 A 
ATOM     34  F   UNL     1       2.248   3.730  22.111  0.00  0.00    +0.000 F 
ENDBRANCH  26  27
ENDBRANCH   4  26
TORSDOF 6
ENDMDL
MODEL 5
REMARK VINA RESULT:      -7.5      4.220      8.636
REMARK  Name = 
REMARK  8 active torsions:
REMARK  status: ('A' for Active; 'I' for Inactive)
REMARK    1  A    between atoms: C_1  and  C_2
REMARK    2  A    between atoms: C_2  and  S_3
REMARK    3  A    between atoms: S_3  and  N_6
REMARK    4  A    between atoms: N_6  and  C_7
REMARK    5  A    between atoms: C_10  and  O_11
REMARK    6  A    between atoms: O_11  and  C_12
REMARK    7  A    between atoms: C_20  and  C_21
REMARK    8  A    between atoms: N_23  and  C_24
REMARK                            x       y       z     vdW  Elec       q    Type
REMARK                         _______ _______ _______ _____ _____    ______ ____
ROOT
ATOM      1  C   UNL     1       1.595   9.396  18.568  0.00  0.00    +0.000 A 
ATOM      2  C   UNL     1       1.132   8.979  19.806  0.00  0.00    +0.000 A 
ATOM      3  C   UNL     1       1.642   7.810  20.372  0.00  0.00    +0.000 A 
ATOM      4  C   UNL     1       2.552   6.996  19.672  0.00  0.00    +0.000 A 
ATOM      5  C   UNL     1       3.066   7.440  18.433  0.00  0.00    +0.000 A 
ATOM      6  C   UNL     1       2.552   8.641  17.889  0.00  0.00    +0.000 A 
ENDROOT
BRANCH   5   7
ATOM      7  C   UNL     1       4.116   6.740  17.677  0.00  0.00    +0.000 A 
ATOM      8  C   UNL     1       4.128   6.682  16.286  0.00  0.00    +0.000 A 
ATOM      9  N   UNL     1       5.241   5.990  15.866  0.00  0.00    +0.000 N 
ATOM     10  C   UNL     1       5.561   5.685  14.489  0.00  0.00    +0.000 C 
ATOM     11  C   UNL     1       5.983   5.629  16.958  0.00  0.00    +0.000 A 
ATOM     12  C   UNL     1       7.233   4.900  17.007  0.00  0.00    +0.000 A 
ATOM     13  O   UNL     1       7.850   4.480  16.032  0.00  0.00    +0.000 OA
ATOM     14  N   UNL     1       7.706   4.703  18.299  0.00  0.00    +0.000 N 
ATOM     15  C   UNL     1       7.078   5.182  19.432  0.00  0.00    +0.000 A 
ATOM     16  C   UNL     1       5.925   5.876  19.351  0.00  0.00    +0.000 A 
ATOM     17  C   UNL     1       5.318   6.099  18.080  0.00  0.00    +0.000 A 
ATOM     18  H   UNL     1       8.572   4.186  18.371  0.00  0.00    +0.000 HD
ENDBRANCH   5   7
BRANCH   1  19
ATOM     19  N   UNL     1       1.073  10.598  17.986  0.00  0.00    +0.000 N 
ATOM     20  H   UNL     1       1.109  10.564  16.965  0.00  0.00    +0.000 HD
BRANCH  19  21
ATOM     21  S   UNL     1      -0.530  10.986  18.421  0.00  0.00    +0.000 S 
ATOM     22  O   UNL     1      -0.831  12.346  18.037  0.00  0.00    +0.000 OA
ATOM     23  O   UNL     1      -0.692  10.515  19.779  0.00  0.00    +0.000 OA
BRANCH  21  25
ATOM     24  C   UNL     1      -2.895   9.812  17.682  0.00  0.00    +0.000 C 
ATOM     25  C   UNL     1      -1.421   9.884  17.331  0.00  0.00    +0.000 C 
ENDBRANCH  21  25
ENDBRANCH  19  21
ENDBRANCH   1  19
BRANCH   4  26
ATOM     26  O   UNL     1       2.965   5.772  20.183  0.00  0.00    +0.000 OA
BRANCH  26  27
ATOM     27  C   UNL     1       2.259   4.631  19.853  0.00  0.00    +0.000 A 
ATOM     28  C   UNL     1       1.867   4.478  18.518  0.00  0.00    +0.000 A 
ATOM     29  C   UNL     1       1.203   3.314  18.114  0.00  0.00    +0.000 A 
ATOM     30  C   UNL     1       0.936   2.313  19.044  0.00  0.00    +0.000 A 
ATOM     31  F   UNL     1       0.336   1.183  18.644  0.00  0.00    +0.000 F 
ATOM     32  C   UNL     1       1.277   2.469  20.379  0.00  0.00    +0.000 A 
ATOM     33  C   UNL     1       1.904   3.644  20.782  0.00  0.00    +0.000 A 
ATOM     34  F   UNL     1       2.199   3.788  22.082  0.00  0.00    +0.000 F 
ENDBRANCH  26  27
ENDBRANCH   4  26
TORSDOF 6
ENDMDL
MODEL 6
REMARK VINA RESULT:      -7.4      4.531      8.744
REMARK  Name = 
REMARK  8 active torsions:
REMARK  status: ('A' for Active; 'I' for Inactive)
REMARK    1  A    between atoms: C_1  and  C_2
REMARK    2  A    between atoms: C_2  and  S_3
REMARK    3  A    between atoms: S_3  and  N_6
REMARK    4  A    between atoms: N_6  and  C_7
REMARK    5  A    between atoms: C_10  and  O_11
REMARK    6  A    between atoms: O_11  and  C_12
REMARK    7  A    between atoms: C_20  and  C_21
REMARK    8  A    between atoms: N_23  and  C_24
REMARK                            x       y       z     vdW  Elec       q    Type
REMARK                         _______ _______ _______ _____ _____    ______ ____
ROOT
ATOM      1  C   UNL     1       1.416   9.162  18.673  0.00  0.00    +0.000 A 
ATOM      2  C   UNL     1       1.078   8.860  19.982  0.00  0.00    +0.000 A 
ATOM      3  C   UNL     1       1.669   7.762  20.609  0.00  0.00    +0.000 A 
ATOM      4  C   UNL     1       2.535   6.900  19.908  0.00  0.00    +0.000 A 
ATOM      5  C   UNL     1       2.923   7.230  18.590  0.00  0.00    +0.000 A 
ATOM      6  C   UNL     1       2.329   8.362  17.983  0.00  0.00    +0.000 A 
ENDROOT
BRANCH   5   7
ATOM      7  C   UNL     1       3.920   6.480  17.812  0.00  0.00    +0.000 A 
ATOM      8  C   UNL     1       3.614   5.301  17.137  0.00  0.00    +0.000 A 
ATOM      9  N   UNL     1       4.734   4.847  16.478  0.00  0.00    +0.000 N 
ATOM     10  C   UNL     1       4.810   3.622  15.713  0.00  0.00    +0.000 C 
ATOM     11  C   UNL     1       5.759   5.731  16.675  0.00  0.00    +0.000 A 
ATOM     12  C   UNL     1       7.115   5.677  16.171  0.00  0.00    +0.000 A 
ATOM     13  O   UNL     1       7.573   4.792  15.453  0.00  0.00    +0.000 OA
ATOM     14  N   UNL     1       7.899   6.750  16.578  0.00  0.00    +0.000 N 
ATOM     15  C   UNL     1       7.433   7.795  17.354  0.00  0.00    +0.000 A 
ATOM     16  C   UNL     1       6.159   7.826  17.790  0.00  0.00    +0.000 A 
ATOM     17  C   UNL     1       5.274   6.752  17.476  0.00  0.00    +0.000 A 
ATOM     18  H   UNL     1       8.856   6.739  16.254  0.00  0.00    +0.000 HD
ENDBRANCH   5   7
BRANCH   1  19
ATOM     19  N   UNL     1       0.810  10.291  18.028  0.00  0.00    +0.000 N 
ATOM     20  H   UNL     1      -0.191  10.144  17.884  0.00  0.00    +0.000 HD
BRANCH  19  21
ATOM     21  S   UNL     1       0.991  11.781  18.838  0.00  0.00    +0.000 S 
ATOM     22  O   UNL     1       1.207  11.554  20.248  0.00  0.00    +0.000 OA
ATOM     23  O   UNL     1      -0.076  12.625  18.347  0.00  0.00    +0.000 OA
BRANCH  21  25
ATOM     24  C   UNL     1       2.647  13.851  18.136  0.00  0.00    +0.000 C 
ATOM     25  C   UNL     1       2.530  12.339  18.117  0.00  0.00    +0.000 C 
ENDBRANCH  21  25
ENDBRANCH  19  21
ENDBRANCH   1  19
BRANCH   4  26
ATOM     26  O   UNL     1       3.026   5.740  20.494  0.00  0.00    +0.000 OA
BRANCH  26  27
ATOM     27  C   UNL     1       2.511   4.518  20.106  0.00  0.00    +0.000 A 
ATOM     28  C   UNL     1       1.119   4.368  20.131  0.00  0.00    +0.000 A 
ATOM     29  C   UNL     1       0.539   3.173  19.689  0.00  0.00    +0.000 A 
ATOM     30  C   UNL     1       1.350   2.141  19.227  0.00  0.00    +0.000 A 
ATOM     31  F   UNL     1       0.786   1.014  18.768  0.00  0.00    +0.000 F 
ATOM     32  C   UNL     1       2.731   2.257  19.239  0.00  0.00    +0.000 A 
ATOM     33  C   UNL     1       3.305   3.433  19.712  0.00  0.00    +0.000 A 
ATOM     34  F   UNL     1       4.642   3.515  19.743  0.00  0.00    +0.000 F 
ENDBRANCH  26  27
ENDBRANCH   4  26
TORSDOF 6
ENDMDL
MODEL 7
REMARK VINA RESULT:      -7.4      4.311      8.693
REMARK  Name = 
REMARK  8 active torsions:
REMARK  status: ('A' for Active; 'I' for Inactive)
REMARK    1  A    between atoms: C_1  and  C_2
REMARK    2  A    between atoms: C_2  and  S_3
REMARK    3  A    between atoms: S_3  and  N_6
REMARK    4  A    between atoms: N_6  and  C_7
REMARK    5  A    between atoms: C_10  and  O_11
REMARK    6  A    between atoms: O_11  and  C_12
REMARK    7  A    between atoms: C_20  and  C_21
REMARK    8  A    between atoms: N_23  and  C_24
REMARK                            x       y       z     vdW  Elec       q    Type
REMARK                         _______ _______ _______ _____ _____    ______ ____
ROOT
ATOM      1  C   UNL     1       1.389   9.163  18.577  0.00  0.00    +0.000 A 
ATOM      2  C   UNL     1       1.080   8.906  19.903  0.00  0.00    +0.000 A 
ATOM      3  C   UNL     1       1.698   7.841  20.560  0.00  0.00    +0.000 A 
ATOM      4  C   UNL     1       2.562   6.964  19.876  0.00  0.00    +0.000 A 
ATOM      5  C   UNL     1       2.921   7.249  18.540  0.00  0.00    +0.000 A 
ATOM      6  C   UNL     1       2.300   8.349  17.901  0.00  0.00    +0.000 A 
ENDROOT
BRANCH   5   7
ATOM      7  C   UNL     1       3.914   6.483  17.771  0.00  0.00    +0.000 A 
ATOM      8  C   UNL     1       3.598   5.304  17.101  0.00  0.00    +0.000 A 
ATOM      9  N   UNL     1       4.717   4.833  16.452  0.00  0.00    +0.000 N 
ATOM     10  C   UNL     1       4.782   3.602  15.694  0.00  0.00    +0.000 C 
ATOM     11  C   UNL     1       5.751   5.706  16.649  0.00  0.00    +0.000 A 
ATOM     12  C   UNL     1       7.109   5.633  16.154  0.00  0.00    +0.000 A 
ATOM     13  O   UNL     1       7.560   4.739  15.443  0.00  0.00    +0.000 OA
ATOM     14  N   UNL     1       7.903   6.700  16.559  0.00  0.00    +0.000 N 
ATOM     15  C   UNL     1       7.445   7.754  17.327  0.00  0.00    +0.000 A 
ATOM     16  C   UNL     1       6.168   7.803  17.755  0.00  0.00    +0.000 A 
ATOM     17  C   UNL     1       5.272   6.737  17.442  0.00  0.00    +0.000 A 
ATOM     18  H   UNL     1       8.862   6.676  16.241  0.00  0.00    +0.000 HD
ENDBRANCH   5   7
BRANCH   1  19
ATOM     19  N   UNL     1       0.756  10.258  17.902  0.00  0.00    +0.000 N 
ATOM     20  H   UNL     1       0.874  10.190  16.889  0.00  0.00    +0.000 HD
BRANCH  19  21
ATOM     21  S   UNL     1      -0.913  10.438  18.204  0.00  0.00    +0.000 S 
ATOM     22  O   UNL     1      -1.212  10.057  19.565  0.00  0.00    +0.000 OA
ATOM     23  O   UNL     1      -1.583   9.838  17.071  0.00  0.00    +0.000 OA
BRANCH  21  25
ATOM     24  C   UNL     1      -1.365  12.857  19.412  0.00  0.00    +0.000 C 
ATOM     25  C   UNL     1      -1.061  12.215  18.073  0.00  0.00    +0.000 C 
ENDBRANCH  21  25
ENDBRANCH  19  21
ENDBRANCH   1  19
BRANCH   4  26
ATOM     26  O   UNL     1       3.081   5.834  20.496  0.00  0.00    +0.000 OA
BRANCH  26  27
ATOM     27  C   UNL     1       2.590   4.590  20.150  0.00  0.00    +0.000 A 
ATOM     28  C   UNL     1       1.205   4.399  20.226  0.00  0.00    +0.000 A 
ATOM     29  C   UNL     1       0.646   3.180  19.828  0.00  0.00    +0.000 A 
ATOM     30  C   UNL     1       1.471   2.162  19.357  0.00  0.00    +0.000 A 
ATOM     31  F   UNL     1       0.927   1.010  18.940  0.00  0.00    +0.000 F 
ATOM     32  C   UNL     1       2.848   2.320  19.319  0.00  0.00    +0.000 A 
ATOM     33  C   UNL     1       3.402   3.521  19.750  0.00  0.00    +0.000 A 
ATOM     34  F   UNL     1       4.736   3.643  19.732  0.00  0.00    +0.000 F 
ENDBRANCH  26  27
ENDBRANCH   4  26
TORSDOF 6
ENDMDL
MODEL 8
REMARK VINA RESULT:      -7.4      3.621      6.607
REMARK  Name = 
REMARK  8 active torsions:
REMARK  status: ('A' for Active; 'I' for Inactive)
REMARK    1  A    between atoms: C_1  and  C_2
REMARK    2  A    between atoms: C_2  and  S_3
REMARK    3  A    between atoms: S_3  and  N_6
REMARK    4  A    between atoms: N_6  and  C_7
REMARK    5  A    between atoms: C_10  and  O_11
REMARK    6  A    between atoms: O_11  and  C_12
REMARK    7  A    between atoms: C_20  and  C_21
REMARK    8  A    between atoms: N_23  and  C_24
REMARK                            x       y       z     vdW  Elec       q    Type
REMARK                         _______ _______ _______ _____ _____    ______ ____
ROOT
ATOM      1  C   UNL     1      -3.767  10.993  17.599  0.00  0.00    +0.000 A 
ATOM      2  C   UNL     1      -3.025   9.968  17.034  0.00  0.00    +0.000 A 
ATOM      3  C   UNL     1      -1.665   9.860  17.329  0.00  0.00    +0.000 A 
ATOM      4  C   UNL     1      -1.010  10.826  18.116  0.00  0.00    +0.000 A 
ATOM      5  C   UNL     1      -1.768  11.845  18.736  0.00  0.00    +0.000 A 
ATOM      6  C   UNL     1      -3.150  11.920  18.441  0.00  0.00    +0.000 A 
ENDROOT
BRANCH   5   7
ATOM      7  C   UNL     1      -1.215  12.825  19.682  0.00  0.00    +0.000 A 
ATOM      8  C   UNL     1      -0.420  13.894  19.276  0.00  0.00    +0.000 A 
ATOM      9  N   UNL     1      -0.077  14.652  20.374  0.00  0.00    +0.000 N 
ATOM     10  C   UNL     1       0.784  15.813  20.346  0.00  0.00    +0.000 C 
ATOM     11  C   UNL     1      -0.670  14.122  21.487  0.00  0.00    +0.000 A 
ATOM     12  C   UNL     1      -0.606  14.583  22.858  0.00  0.00    +0.000 A 
ATOM     13  O   UNL     1       0.015  15.569  23.248  0.00  0.00    +0.000 OA
ATOM     14  N   UNL     1      -1.332  13.793  23.741  0.00  0.00    +0.000 N 
ATOM     15  C   UNL     1      -2.079  12.695  23.358  0.00  0.00    +0.000 A 
ATOM     16  C   UNL     1      -2.136  12.304  22.070  0.00  0.00    +0.000 A 
ATOM     17  C   UNL     1      -1.390  13.010  21.079  0.00  0.00    +0.000 A 
ATOM     18  H   UNL     1      -1.300  14.079  24.709  0.00  0.00    +0.000 HD
ENDBRANCH   5   7
BRANCH   1  19
ATOM     19  N   UNL     1      -5.164  11.104  17.298  0.00  0.00    +0.000 N 
ATOM     20  H   UNL     1      -5.486  10.319  16.728  0.00  0.00    +0.000 HD
BRANCH  19  21
ATOM     21  S   UNL     1      -6.199  11.205  18.650  0.00  0.00    +0.000 S 
ATOM     22  O   UNL     1      -5.487  11.765  19.776  0.00  0.00    +0.000 OA
ATOM     23  O   UNL     1      -6.873   9.927  18.723  0.00  0.00    +0.000 OA
BRANCH  21  25
ATOM     24  C   UNL     1      -7.672  13.470  19.114  0.00  0.00    +0.000 C 
ATOM     25  C   UNL     1      -7.363  12.425  18.059  0.00  0.00    +0.000 C 
ENDBRANCH  21  25
ENDBRANCH  19  21
ENDBRANCH   1  19
BRANCH   4  26
ATOM     26  O   UNL     1       0.366  10.787  18.308  0.00  0.00    +0.000 OA
BRANCH  26  27
ATOM     27  C   UNL     1       0.948   9.624  18.774  0.00  0.00    +0.000 A 
ATOM     28  C   UNL     1       1.687   8.862  17.860  0.00  0.00    +0.000 A 
ATOM     29  C   UNL     1       2.351   7.708  18.291  0.00  0.00    +0.000 A 
ATOM     30  C   UNL     1       2.272   7.323  19.626  0.00  0.00    +0.000 A 
ATOM     31  F   UNL     1       2.942   6.238  20.041  0.00  0.00    +0.000 F 
ATOM     32  C   UNL     1       1.508   8.041  20.532  0.00  0.00    +0.000 A 
ATOM     33  C   UNL     1       0.821   9.167  20.092  0.00  0.00    +0.000 A 
ATOM     34  F   UNL     1       0.064   9.832  20.977  0.00  0.00    +0.000 F 
ENDBRANCH  26  27
ENDBRANCH   4  26
TORSDOF 6
ENDMDL
MODEL 9
REMARK VINA RESULT:      -7.3      3.621      6.392
REMARK  Name = 
REMARK  8 active torsions:
REMARK  status: ('A' for Active; 'I' for Inactive)
REMARK    1  A    between atoms: C_1  and  C_2
REMARK    2  A    between atoms: C_2  and  S_3
REMARK    3  A    between atoms: S_3  and  N_6
REMARK    4  A    between atoms: N_6  and  C_7
REMARK    5  A    between atoms: C_10  and  O_11
REMARK    6  A    between atoms: O_11  and  C_12
REMARK    7  A    between atoms: C_20  and  C_21
REMARK    8  A    between atoms: N_23  and  C_24
REMARK                            x       y       z     vdW  Elec       q    Type
REMARK                         _______ _______ _______ _____ _____    ______ ____
ROOT
ATOM      1  C   UNL     1      -3.767  11.097  17.783  0.00  0.00    +0.000 A 
ATOM      2  C   UNL     1      -2.994  10.164  17.111  0.00  0.00    +0.000 A 
ATOM      3  C   UNL     1      -1.636  10.051  17.414  0.00  0.00    +0.000 A 
ATOM      4  C   UNL     1      -1.015  10.927  18.324  0.00  0.00    +0.000 A 
ATOM      5  C   UNL     1      -1.806  11.847  19.050  0.00  0.00    +0.000 A 
ATOM      6  C   UNL     1      -3.186  11.927  18.742  0.00  0.00    +0.000 A 
ENDROOT
BRANCH   5   7
ATOM      7  C   UNL     1      -1.291  12.716  20.117  0.00  0.00    +0.000 A 
ATOM      8  C   UNL     1      -1.724  12.621  21.437  0.00  0.00    +0.000 A 
ATOM      9  N   UNL     1      -1.046  13.539  22.208  0.00  0.00    +0.000 N 
ATOM     10  C   UNL     1      -1.268  13.765  23.619  0.00  0.00    +0.000 C 
ATOM     11  C   UNL     1      -0.144  14.205  21.424  0.00  0.00    +0.000 A 
ATOM     12  C   UNL     1       0.791  15.245  21.797  0.00  0.00    +0.000 A 
ATOM     13  O   UNL     1       0.928  15.707  22.926  0.00  0.00    +0.000 OA
ATOM     14  N   UNL     1       1.558  15.705  20.733  0.00  0.00    +0.000 N 
ATOM     15  C   UNL     1       1.476  15.201  19.448  0.00  0.00    +0.000 A 
ATOM     16  C   UNL     1       0.610  14.217  19.138  0.00  0.00    +0.000 A 
ATOM     17  C   UNL     1      -0.265  13.699  20.139  0.00  0.00    +0.000 A 
ATOM     18  H   UNL     1       2.214  16.441  20.954  0.00  0.00    +0.000 HD
ENDBRANCH   5   7
BRANCH   1  19
ATOM     19  N   UNL     1      -5.163  11.214  17.473  0.00  0.00    +0.000 N 
ATOM     20  H   UNL     1      -5.470  10.464  16.851  0.00  0.00    +0.000 HD
BRANCH  19  21
ATOM     21  S   UNL     1      -6.213  11.218  18.817  0.00  0.00    +0.000 S 
ATOM     22  O   UNL     1      -5.509  11.673  19.993  0.00  0.00    +0.000 OA
ATOM     23  O   UNL     1      -6.906   9.948  18.776  0.00  0.00    +0.000 OA
BRANCH  21  25
ATOM     24  C   UNL     1      -6.968  13.106  16.978  0.00  0.00    +0.000 C 
ATOM     25  C   UNL     1      -7.353  12.500  18.314  0.00  0.00    +0.000 C 
ENDBRANCH  21  25
ENDBRANCH  19  21
ENDBRANCH   1  19
BRANCH   4  26
ATOM     26  O   UNL     1       0.358  10.895  18.534  0.00  0.00    +0.000 OA
BRANCH  26  27
ATOM     27  C   UNL     1       0.953   9.708  18.916  0.00  0.00    +0.000 A 
ATOM     28  C   UNL     1       1.659   8.996  17.938  0.00  0.00    +0.000 A 
ATOM     29  C   UNL     1       2.334   7.820  18.283  0.00  0.00    +0.000 A 
ATOM     30  C   UNL     1       2.300   7.363  19.597  0.00  0.00    +0.000 A 
ATOM     31  F   UNL     1       2.981   6.258  19.930  0.00  0.00    +0.000 F 
ATOM     32  C   UNL     1       1.568   8.032  20.566  0.00  0.00    +0.000 A 
ATOM     33  C   UNL     1       0.869   9.181  20.211  0.00  0.00    +0.000 A 
ATOM     34  F   UNL     1       0.144   9.797  21.156  0.00  0.00    +0.000 F 
ENDBRANCH  26  27
ENDBRANCH   4  26
TORSDOF 6
ENDMDL
