MODEL 1
REMARK VINA RESULT:      -8.6      0.000      0.000
REMARK  Name = 
REMARK  6 active torsions:
REMARK  status: ('A' for Active; 'I' for Inactive)
REMARK    1  A    between atoms: C_1  and  N_2
REMARK    2  A    between atoms: N_2  and  C_3
REMARK    3  A    between atoms: C_4  and  C_6
REMARK    4  A    between atoms: N_13  and  C_14
REMARK    5  A    between atoms: C_18  and  C_19
REMARK    6  A    between atoms: N_27  and  C_28
REMARK                            x       y       z     vdW  Elec       q    Type
REMARK                         _______ _______ _______ _____ _____    ______ ____
ROOT
ATOM      1  C   UNL     1       1.742   7.710  20.177  0.00  0.00    +0.000 A 
ATOM      2  C   UNL     1       1.159   6.755  21.021  0.00  0.00    +0.000 A 
ATOM      3  C   UNL     1       1.468   5.390  20.913  0.00  0.00    +0.000 A 
ATOM      4  C   UNL     1       2.385   4.948  19.958  0.00  0.00    +0.000 A 
ATOM      5  C   UNL     1       2.981   5.872  19.098  0.00  0.00    +0.000 A 
ATOM      6  C   UNL     1       2.625   7.224  19.209  0.00  0.00    +0.000 A 
ENDROOT
BRANCH   5   7
ATOM      7  C   UNL     1       3.929   5.524  18.032  0.00  0.00    +0.000 A 
ATOM      8  N   UNL     1       5.130   6.069  17.938  0.00  0.00    +0.000 NA
ATOM      9  C   UNL     1       5.731   5.495  16.856  0.00  0.00    +0.000 A 
ATOM     10  C   UNL     1       7.017   5.707  16.354  0.00  0.00    +0.000 A 
ATOM     11  C   UNL     1       7.395   5.042  15.185  0.00  0.00    +0.000 A 
ATOM     12  C   UNL     1       6.506   4.183  14.538  0.00  0.00    +0.000 A 
ATOM     13  C   UNL     1       5.232   3.919  15.061  0.00  0.00    +0.000 A 
ATOM     14  C   UNL     1       4.879   4.582  16.242  0.00  0.00    +0.000 A 
ATOM     15  N   UNL     1       3.789   4.525  17.085  0.00  0.00    +0.000 N 
ATOM     16  C   UNL     1       2.829   3.448  17.130  0.00  0.00    +0.000 C 
ENDBRANCH   5   7
BRANCH   1  24
ATOM     17  C   UNL     1      -1.877  11.855  22.316  0.00  0.00    +0.000 A 
ATOM     18  C   UNL     1      -0.756  11.127  22.697  0.00  0.00    +0.000 A 
ATOM     19  C   UNL     1      -0.079  10.528  21.594  0.00  0.00    +0.000 A 
ATOM     20  C   UNL     1      -0.704  10.849  20.406  0.00  0.00    +0.000 A 
ATOM     21  S   UNL     1      -1.998  11.919  20.607  0.00  0.00    +0.000 S 
ATOM     22  C   UNL     1      -0.276  10.321  19.073  0.00  0.00    +0.000 C 
ATOM     23  C   UNL     1       1.210   9.920  19.139  0.00  0.00    +0.000 C 
ATOM     24  N   UNL     1       1.498   9.067  20.315  0.00  0.00    +0.000 N 
ATOM     25  C   UNL     1       1.155   9.655  21.625  0.00  0.00    +0.000 C 
BRANCH  17  29
ATOM     26  C   UNL     1      -3.293  14.475  24.671  0.00  0.00    +0.000 C 
ATOM     27  N   UNL     1      -2.326  13.789  23.830  0.00  0.00    +0.000 N 
ATOM     28  C   UNL     1      -1.134  14.534  23.453  0.00  0.00    +0.000 C 
ATOM     29  C   UNL     1      -2.755  12.594  23.221  0.00  0.00    +0.000 C 
ATOM     30  O   UNL     1      -3.906  12.196  23.418  0.00  0.00    +0.000 OA
ENDBRANCH  17  29
ENDBRANCH   1  24
TORSDOF 3
ENDMDL
MODEL 2
REMARK VINA RESULT:      -8.4      5.384      7.392
REMARK  Name = 
REMARK  6 active torsions:
REMARK  status: ('A' for Active; 'I' for Inactive)
REMARK    1  A    between atoms: C_1  and  N_2
REMARK    2  A    between atoms: N_2  and  C_3
REMARK    3  A    between atoms: C_4  and  C_6
REMARK    4  A    between atoms: N_13  and  C_14
REMARK    5  A    between atoms: C_18  and  C_19
REMARK    6  A    between atoms: N_27  and  C_28
REMARK                            x       y       z     vdW  Elec       q    Type
REMARK                         _______ _______ _______ _____ _____    ______ ____
ROOT
ATOM      1  C   UNL     1       0.804  12.729  18.794  0.00  0.00    +0.000 A 
ATOM      2  C   UNL     1      -0.573  12.715  18.538  0.00  0.00    +0.000 A 
ATOM      3  C   UNL     1      -1.264  11.520  18.282  0.00  0.00    +0.000 A 
ATOM      4  C   UNL     1      -0.586  10.299  18.290  0.00  0.00    +0.000 A 
ATOM      5  C   UNL     1       0.787  10.277  18.537  0.00  0.00    +0.000 A 
ATOM      6  C   UNL     1       1.453  11.492  18.755  0.00  0.00    +0.000 A 
ENDROOT
BRANCH   5   7
ATOM      7  C   UNL     1       1.612   9.063  18.534  0.00  0.00    +0.000 A 
ATOM      8  N   UNL     1       2.461   8.777  17.561  0.00  0.00    +0.000 NA
ATOM      9  C   UNL     1       3.061   7.601  17.903  0.00  0.00    +0.000 A 
ATOM     10  C   UNL     1       4.054   6.895  17.222  0.00  0.00    +0.000 A 
ATOM     11  C   UNL     1       4.476   5.668  17.742  0.00  0.00    +0.000 A 
ATOM     12  C   UNL     1       3.917   5.166  18.918  0.00  0.00    +0.000 A 
ATOM     13  C   UNL     1       2.959   5.889  19.640  0.00  0.00    +0.000 A 
ATOM     14  C   UNL     1       2.561   7.124  19.111  0.00  0.00    +0.000 A 
ATOM     15  N   UNL     1       1.737   8.136  19.554  0.00  0.00    +0.000 N 
ATOM     16  C   UNL     1       1.311   8.324  20.921  0.00  0.00    +0.000 C 
ENDBRANCH   5   7
BRANCH   1  24
ATOM     17  C   UNL     1       6.025  15.481  18.907  0.00  0.00    +0.000 A 
ATOM     18  C   UNL     1       4.932  15.315  18.064  0.00  0.00    +0.000 A 
ATOM     19  C   UNL     1       3.772  14.838  18.744  0.00  0.00    +0.000 A 
ATOM     20  C   UNL     1       4.025  14.684  20.091  0.00  0.00    +0.000 A 
ATOM     21  S   UNL     1       5.575  15.196  20.536  0.00  0.00    +0.000 S 
ATOM     22  C   UNL     1       3.031  14.137  21.067  0.00  0.00    +0.000 C 
ATOM     23  C   UNL     1       1.609  14.351  20.516  0.00  0.00    +0.000 C 
ATOM     24  N   UNL     1       1.486  13.891  19.114  0.00  0.00    +0.000 N 
ATOM     25  C   UNL     1       2.416  14.522  18.155  0.00  0.00    +0.000 C 
BRANCH  17  29
ATOM     26  C   UNL     1       9.643  15.673  17.771  0.00  0.00    +0.000 C 
ATOM     27  N   UNL     1       8.391  15.084  18.215  0.00  0.00    +0.000 N 
ATOM     28  C   UNL     1       8.238  13.647  18.036  0.00  0.00    +0.000 C 
ATOM     29  C   UNL     1       7.339  15.975  18.502  0.00  0.00    +0.000 C 
ATOM     30  O   UNL     1       7.521  17.188  18.360  0.00  0.00    +0.000 OA
ENDBRANCH  17  29
ENDBRANCH   1  24
TORSDOF 3
ENDMDL
MODEL 3
REMARK VINA RESULT:      -8.2      2.757      3.554
REMARK  Name = 
REMARK  6 active torsions:
REMARK  status: ('A' for Active; 'I' for Inactive)
REMARK    1  A    between atoms: C_1  and  N_2
REMARK    2  A    between atoms: N_2  and  C_3
REMARK    3  A    between atoms: C_4  and  C_6
REMARK    4  A    between atoms: N_13  and  C_14
REMARK    5  A    between atoms: C_18  and  C_19
REMARK    6  A    between atoms: N_27  and  C_28
REMARK                            x       y       z     vdW  Elec       q    Type
REMARK                         _______ _______ _______ _____ _____    ______ ____
ROOT
ATOM      1  C   UNL     1       0.004   9.921  19.792  0.00  0.00    +0.000 A 
ATOM      2  C   UNL     1       0.017   9.813  21.189  0.00  0.00    +0.000 A 
ATOM      3  C   UNL     1       0.839   8.887  21.850  0.00  0.00    +0.000 A 
ATOM      4  C   UNL     1       1.684   8.048  21.121  0.00  0.00    +0.000 A 
ATOM      5  C   UNL     1       1.694   8.125  19.728  0.00  0.00    +0.000 A 
ATOM      6  C   UNL     1       0.835   9.037  19.097  0.00  0.00    +0.000 A 
ENDROOT
BRANCH   5   7
ATOM      7  C   UNL     1       2.509   7.272  18.855  0.00  0.00    +0.000 A 
ATOM      8  N   UNL     1       3.384   7.761  17.992  0.00  0.00    +0.000 NA
ATOM      9  C   UNL     1       3.965   6.690  17.380  0.00  0.00    +0.000 A 
ATOM     10  C   UNL     1       4.973   6.674  16.415  0.00  0.00    +0.000 A 
ATOM     11  C   UNL     1       5.372   5.444  15.886  0.00  0.00    +0.000 A 
ATOM     12  C   UNL     1       4.775   4.259  16.319  0.00  0.00    +0.000 A 
ATOM     13  C   UNL     1       3.801   4.255  17.326  0.00  0.00    +0.000 A 
ATOM     14  C   UNL     1       3.428   5.497  17.855  0.00  0.00    +0.000 A 
ATOM     15  N   UNL     1       2.598   5.892  18.883  0.00  0.00    +0.000 N 
ATOM     16  C   UNL     1       2.134   5.039  19.952  0.00  0.00    +0.000 C 
ENDBRANCH   5   7
BRANCH   1  24
ATOM     17  C   UNL     1      -5.005  13.043  19.732  0.00  0.00    +0.000 A 
ATOM     18  C   UNL     1      -3.703  13.137  20.208  0.00  0.00    +0.000 A 
ATOM     19  C   UNL     1      -2.811  12.220  19.576  0.00  0.00    +0.000 A 
ATOM     20  C   UNL     1      -3.473  11.476  18.621  0.00  0.00    +0.000 A 
ATOM     21  S   UNL     1      -5.087  11.942  18.421  0.00  0.00    +0.000 S 
ATOM     22  C   UNL     1      -2.831  10.381  17.828  0.00  0.00    +0.000 C 
ATOM     23  C   UNL     1      -1.309  10.613  17.783  0.00  0.00    +0.000 C 
ATOM     24  N   UNL     1      -0.750  10.873  19.129  0.00  0.00    +0.000 N 
ATOM     25  C   UNL     1      -1.337  12.023  19.847  0.00  0.00    +0.000 C 
BRANCH  17  29
ATOM     26  C   UNL     1      -7.910  14.461  21.723  0.00  0.00    +0.000 C 
ATOM     27  N   UNL     1      -6.843  13.551  21.345  0.00  0.00    +0.000 N 
ATOM     28  C   UNL     1      -6.412  12.586  22.346  0.00  0.00    +0.000 C 
ATOM     29  C   UNL     1      -6.129  13.866  20.172  0.00  0.00    +0.000 C 
ATOM     30  O   UNL     1      -6.430  14.881  19.537  0.00  0.00    +0.000 OA
ENDBRANCH  17  29
ENDBRANCH   1  24
TORSDOF 3
ENDMDL
MODEL 4
REMARK VINA RESULT:      -8.2      2.266      3.957
REMARK  Name = 
REMARK  6 active torsions:
REMARK  status: ('A' for Active; 'I' for Inactive)
REMARK    1  A    between atoms: C_1  and  N_2
REMARK    2  A    between atoms: N_2  and  C_3
REMARK    3  A    between atoms: C_4  and  C_6
REMARK    4  A    between atoms: N_13  and  C_14
REMARK    5  A    between atoms: C_18  and  C_19
REMARK    6  A    between atoms: N_27  and  C_28
REMARK                            x       y       z     vdW  Elec       q    Type
REMARK                         _______ _______ _______ _____ _____    ______ ____
ROOT
ATOM      1  C   UNL     1       1.227  10.258  20.109  0.00  0.00    +0.000 A 
ATOM      2  C   UNL     1       1.164  10.695  18.780  0.00  0.00    +0.000 A 
ATOM      3  C   UNL     1       1.460   9.839  17.707  0.00  0.00    +0.000 A 
ATOM      4  C   UNL     1       1.816   8.510  17.943  0.00  0.00    +0.000 A 
ATOM      5  C   UNL     1       1.893   8.042  19.256  0.00  0.00    +0.000 A 
ATOM      6  C   UNL     1       1.625   8.932  20.306  0.00  0.00    +0.000 A 
ENDROOT
BRANCH   5   7
ATOM      7  C   UNL     1       2.292   6.680  19.630  0.00  0.00    +0.000 A 
ATOM      8  N   UNL     1       1.670   5.985  20.568  0.00  0.00    +0.000 NA
ATOM      9  C   UNL     1       2.290   4.771  20.625  0.00  0.00    +0.000 A 
ATOM     10  C   UNL     1       1.989   3.672  21.431  0.00  0.00    +0.000 A 
ATOM     11  C   UNL     1       2.811   2.544  21.356  0.00  0.00    +0.000 A 
ATOM     12  C   UNL     1       3.905   2.520  20.491  0.00  0.00    +0.000 A 
ATOM     13  C   UNL     1       4.187   3.595  19.637  0.00  0.00    +0.000 A 
ATOM     14  C   UNL     1       3.342   4.709  19.715  0.00  0.00    +0.000 A 
ATOM     15  N   UNL     1       3.238   5.887  19.006  0.00  0.00    +0.000 N 
ATOM     16  C   UNL     1       3.813   6.126  17.703  0.00  0.00    +0.000 C 
ENDBRANCH   5   7
BRANCH   1  24
ATOM     17  C   UNL     1      -3.193  12.535  23.291  0.00  0.00    +0.000 A 
ATOM     18  C   UNL     1      -2.358  11.424  23.280  0.00  0.00    +0.000 A 
ATOM     19  C   UNL     1      -1.201  11.606  22.465  0.00  0.00    +0.000 A 
ATOM     20  C   UNL     1      -1.192  12.867  21.905  0.00  0.00    +0.000 A 
ATOM     21  S   UNL     1      -2.479  13.832  22.427  0.00  0.00    +0.000 S 
ATOM     22  C   UNL     1      -0.146  13.343  20.946  0.00  0.00    +0.000 C 
ATOM     23  C   UNL     1       1.142  12.526  21.154  0.00  0.00    +0.000 C 
ATOM     24  N   UNL     1       0.874  11.070  21.174  0.00  0.00    +0.000 N 
ATOM     25  C   UNL     1      -0.090  10.617  22.197  0.00  0.00    +0.000 C 
BRANCH  17  29
ATOM     26  C   UNL     1      -6.841  12.989  24.242  0.00  0.00    +0.000 C 
ATOM     27  N   UNL     1      -5.654  12.946  23.405  0.00  0.00    +0.000 N 
ATOM     28  C   UNL     1      -5.862  12.909  21.965  0.00  0.00    +0.000 C 
ATOM     29  C   UNL     1      -4.437  12.651  24.050  0.00  0.00    +0.000 C 
ATOM     30  O   UNL     1      -4.434  12.440  25.266  0.00  0.00    +0.000 OA
ENDBRANCH  17  29
ENDBRANCH   1  24
TORSDOF 3
ENDMDL
MODEL 5
REMARK VINA RESULT:      -8.1      1.220      1.363
REMARK  Name = 
REMARK  6 active torsions:
REMARK  status: ('A' for Active; 'I' for Inactive)
REMARK    1  A    between atoms: C_1  and  N_2
REMARK    2  A    between atoms: N_2  and  C_3
REMARK    3  A    between atoms: C_4  and  C_6
REMARK    4  A    between atoms: N_13  and  C_14
REMARK    5  A    between atoms: C_18  and  C_19
REMARK    6  A    between atoms: N_27  and  C_28
REMARK                            x       y       z     vdW  Elec       q    Type
REMARK                         _______ _______ _______ _____ _____    ______ ____
ROOT
ATOM      1  C   UNL     1       1.477   8.486  19.560  0.00  0.00    +0.000 A 
ATOM      2  C   UNL     1       1.097   7.796  20.719  0.00  0.00    +0.000 A 
ATOM      3  C   UNL     1       1.597   6.518  21.015  0.00  0.00    +0.000 A 
ATOM      4  C   UNL     1       2.508   5.901  20.155  0.00  0.00    +0.000 A 
ATOM      5  C   UNL     1       2.905   6.558  18.989  0.00  0.00    +0.000 A 
ATOM      6  C   UNL     1       2.361   7.819  18.706  0.00  0.00    +0.000 A 
ENDROOT
BRANCH   5   7
ATOM      7  C   UNL     1       3.826   5.997  17.994  0.00  0.00    +0.000 A 
ATOM      8  N   UNL     1       5.037   6.484  17.784  0.00  0.00    +0.000 NA
ATOM      9  C   UNL     1       5.606   5.708  16.818  0.00  0.00    +0.000 A 
ATOM     10  C   UNL     1       6.887   5.791  16.269  0.00  0.00    +0.000 A 
ATOM     11  C   UNL     1       7.230   4.914  15.237  0.00  0.00    +0.000 A 
ATOM     12  C   UNL     1       6.310   3.973  14.771  0.00  0.00    +0.000 A 
ATOM     13  C   UNL     1       5.040   3.842  15.350  0.00  0.00    +0.000 A 
ATOM     14  C   UNL     1       4.723   4.719  16.394  0.00  0.00    +0.000 A 
ATOM     15  N   UNL     1       3.648   4.845  17.248  0.00  0.00    +0.000 N 
ATOM     16  C   UNL     1       2.664   3.819  17.503  0.00  0.00    +0.000 C 
ENDBRANCH   5   7
BRANCH   1  24
ATOM     17  C   UNL     1      -1.850  13.024  21.340  0.00  0.00    +0.000 A 
ATOM     18  C   UNL     1      -0.551  12.549  21.467  0.00  0.00    +0.000 A 
ATOM     19  C   UNL     1      -0.214  11.577  20.479  0.00  0.00    +0.000 A 
ATOM     20  C   UNL     1      -1.273  11.368  19.619  0.00  0.00    +0.000 A 
ATOM     21  S   UNL     1      -2.588  12.387  19.929  0.00  0.00    +0.000 S 
ATOM     22  C   UNL     1      -1.261  10.360  18.513  0.00  0.00    +0.000 C 
ATOM     23  C   UNL     1       0.197  10.067  18.111  0.00  0.00    +0.000 C 
ATOM     24  N   UNL     1       1.045   9.773  19.288  0.00  0.00    +0.000 N 
ATOM     25  C   UNL     1       1.090  10.830  20.318  0.00  0.00    +0.000 C 
BRANCH  17  29
ATOM     26  C   UNL     1      -3.850  14.756  24.064  0.00  0.00    +0.000 C 
ATOM     27  N   UNL     1      -3.328  13.675  23.245  0.00  0.00    +0.000 N 
ATOM     28  C   UNL     1      -3.490  12.322  23.757  0.00  0.00    +0.000 C 
ATOM     29  C   UNL     1      -2.468  14.039  22.191  0.00  0.00    +0.000 C 
ATOM     30  O   UNL     1      -2.196  15.231  22.019  0.00  0.00    +0.000 OA
ENDBRANCH  17  29
ENDBRANCH   1  24
TORSDOF 3
ENDMDL
MODEL 6
REMARK VINA RESULT:      -8.1      3.378     10.870
REMARK  Name = 
REMARK  6 active torsions:
REMARK  status: ('A' for Active; 'I' for Inactive)
REMARK    1  A    between atoms: C_1  and  N_2
REMARK    2  A    between atoms: N_2  and  C_3
REMARK    3  A    between atoms: C_4  and  C_6
REMARK    4  A    between atoms: N_13  and  C_14
REMARK    5  A    between atoms: C_18  and  C_19
REMARK    6  A    between atoms: N_27  and  C_28
REMARK                            x       y       z     vdW  Elec       q    Type
REMARK                         _______ _______ _______ _____ _____    ______ ____
ROOT
ATOM      1  C   UNL     1      -0.342  10.354  18.980  0.00  0.00    +0.000 A 
ATOM      2  C   UNL     1      -1.050   9.990  17.827  0.00  0.00    +0.000 A 
ATOM      3  C   UNL     1      -2.299  10.553  17.519  0.00  0.00    +0.000 A 
ATOM      4  C   UNL     1      -2.866  11.512  18.361  0.00  0.00    +0.000 A 
ATOM      5  C   UNL     1      -2.190  11.895  19.521  0.00  0.00    +0.000 A 
ATOM      6  C   UNL     1      -0.961  11.287  19.816  0.00  0.00    +0.000 A 
ENDROOT
BRANCH   5   7
ATOM      7  C   UNL     1      -2.701  12.863  20.499  0.00  0.00    +0.000 A 
ATOM      8  N   UNL     1      -3.546  12.529  21.460  0.00  0.00    +0.000 NA
ATOM      9  C   UNL     1      -3.779  13.663  22.181  0.00  0.00    +0.000 A 
ATOM     10  C   UNL     1      -4.575  13.831  23.316  0.00  0.00    +0.000 A 
ATOM     11  C   UNL     1      -4.710  15.114  23.853  0.00  0.00    +0.000 A 
ATOM     12  C   UNL     1      -4.060  16.200  23.266  0.00  0.00    +0.000 A 
ATOM     13  C   UNL     1      -3.215  16.038  22.160  0.00  0.00    +0.000 A 
ATOM     14  C   UNL     1      -3.080  14.742  21.647  0.00  0.00    +0.000 A 
ATOM     15  N   UNL     1      -2.302  14.178  20.658  0.00  0.00    +0.000 N 
ATOM     16  C   UNL     1      -1.114  14.773  20.094  0.00  0.00    +0.000 C 
ENDBRANCH   5   7
BRANCH   1  24
ATOM     17  C   UNL     1       3.623   6.120  17.886  0.00  0.00    +0.000 A 
ATOM     18  C   UNL     1       3.265   7.381  17.426  0.00  0.00    +0.000 A 
ATOM     19  C   UNL     1       2.447   8.100  18.348  0.00  0.00    +0.000 A 
ATOM     20  C   UNL     1       2.234   7.357  19.491  0.00  0.00    +0.000 A 
ATOM     21  S   UNL     1       3.079   5.891  19.496  0.00  0.00    +0.000 S 
ATOM     22  C   UNL     1       1.362   7.804  20.623  0.00  0.00    +0.000 C 
ATOM     23  C   UNL     1       1.260   9.340  20.608  0.00  0.00    +0.000 C 
ATOM     24  N   UNL     1       0.919   9.857  19.262  0.00  0.00    +0.000 N 
ATOM     25  C   UNL     1       1.854   9.480  18.183  0.00  0.00    +0.000 C 
BRANCH  17  29
ATOM     26  C   UNL     1       6.613   4.369  16.333  0.00  0.00    +0.000 C 
ATOM     27  N   UNL     1       5.849   5.402  17.012  0.00  0.00    +0.000 N 
ATOM     28  C   UNL     1       6.607   6.423  17.721  0.00  0.00    +0.000 C 
ATOM     29  C   UNL     1       4.471   5.167  17.172  0.00  0.00    +0.000 C 
ATOM     30  O   UNL     1       3.984   4.116  16.745  0.00  0.00    +0.000 OA
ENDBRANCH  17  29
ENDBRANCH   1  24
TORSDOF 3
ENDMDL
MODEL 7
REMARK VINA RESULT:      -8.1      4.136      4.896
REMARK  Name = 
REMARK  6 active torsions:
REMARK  status: ('A' for Active; 'I' for Inactive)
REMARK    1  A    between atoms: C_1  and  N_2
REMARK    2  A    between atoms: N_2  and  C_3
REMARK    3  A    between atoms: C_4  and  C_6
REMARK    4  A    between atoms: N_13  and  C_14
REMARK    5  A    between atoms: C_18  and  C_19
REMARK    6  A    between atoms: N_27  and  C_28
REMARK                            x       y       z     vdW  Elec       q    Type
REMARK                         _______ _______ _______ _____ _____    ______ ____
ROOT
ATOM      1  C   UNL     1       1.104   9.721  19.584  0.00  0.00    +0.000 A 
ATOM      2  C   UNL     1       0.582   9.242  20.793  0.00  0.00    +0.000 A 
ATOM      3  C   UNL     1       0.858   7.944  21.253  0.00  0.00    +0.000 A 
ATOM      4  C   UNL     1       1.680   7.094  20.511  0.00  0.00    +0.000 A 
ATOM      5  C   UNL     1       2.213   7.537  19.300  0.00  0.00    +0.000 A 
ATOM      6  C   UNL     1       1.890   8.826  18.853  0.00  0.00    +0.000 A 
ENDROOT
BRANCH   5   7
ATOM      7  C   UNL     1       3.058   6.723  18.417  0.00  0.00    +0.000 A 
ATOM      8  N   UNL     1       3.811   7.248  17.465  0.00  0.00    +0.000 NA
ATOM      9  C   UNL     1       4.465   6.208  16.872  0.00  0.00    +0.000 A 
ATOM     10  C   UNL     1       5.400   6.239  15.836  0.00  0.00    +0.000 A 
ATOM     11  C   UNL     1       5.897   5.028  15.348  0.00  0.00    +0.000 A 
ATOM     12  C   UNL     1       5.468   3.815  15.891  0.00  0.00    +0.000 A 
ATOM     13  C   UNL     1       4.572   3.771  16.968  0.00  0.00    +0.000 A 
ATOM     14  C   UNL     1       4.099   4.997  17.452  0.00  0.00    +0.000 A 
ATOM     15  N   UNL     1       3.303   5.365  18.516  0.00  0.00    +0.000 N 
ATOM     16  C   UNL     1       3.012   4.537  19.662  0.00  0.00    +0.000 C 
ENDBRANCH   5   7
BRANCH   1  24
ATOM     17  C   UNL     1       3.309  15.183  19.211  0.00  0.00    +0.000 A 
ATOM     18  C   UNL     1       3.274  14.003  18.480  0.00  0.00    +0.000 A 
ATOM     19  C   UNL     1       2.245  13.112  18.908  0.00  0.00    +0.000 A 
ATOM     20  C   UNL     1       1.519  13.668  19.942  0.00  0.00    +0.000 A 
ATOM     21  S   UNL     1       1.994  15.249  20.309  0.00  0.00    +0.000 S 
ATOM     22  C   UNL     1       0.412  12.958  20.657  0.00  0.00    +0.000 C 
ATOM     23  C   UNL     1      -0.167  11.867  19.737  0.00  0.00    +0.000 C 
ATOM     24  N   UNL     1       0.896  11.019  19.150  0.00  0.00    +0.000 N 
ATOM     25  C   UNL     1       1.920  11.739  18.367  0.00  0.00    +0.000 C 
BRANCH  17  29
ATOM     26  C   UNL     1       6.318  17.493  19.379  0.00  0.00    +0.000 C 
ATOM     27  N   UNL     1       5.441  16.383  19.712  0.00  0.00    +0.000 N 
ATOM     28  C   UNL     1       6.007  15.317  20.526  0.00  0.00    +0.000 C 
ATOM     29  C   UNL     1       4.237  16.291  18.988  0.00  0.00    +0.000 C 
ATOM     30  O   UNL     1       3.989  17.132  18.119  0.00  0.00    +0.000 OA
ENDBRANCH  17  29
ENDBRANCH   1  24
TORSDOF 3
ENDMDL
MODEL 8
REMARK VINA RESULT:      -8.1      3.557      4.287
REMARK  Name = 
REMARK  6 active torsions:
REMARK  status: ('A' for Active; 'I' for Inactive)
REMARK    1  A    between atoms: C_1  and  N_2
REMARK    2  A    between atoms: N_2  and  C_3
REMARK    3  A    between atoms: C_4  and  C_6
REMARK    4  A    between atoms: N_13  and  C_14
REMARK    5  A    between atoms: C_18  and  C_19
REMARK    6  A    between atoms: N_27  and  C_28
REMARK                            x       y       z     vdW  Elec       q    Type
REMARK                         _______ _______ _______ _____ _____    ______ ____
ROOT
ATOM      1  C   UNL     1       1.478   8.458  19.466  0.00  0.00    +0.000 A 
ATOM      2  C   UNL     1       1.121   7.788  20.643  0.00  0.00    +0.000 A 
ATOM      3  C   UNL     1       1.651   6.529  20.966  0.00  0.00    +0.000 A 
ATOM      4  C   UNL     1       2.569   5.911  20.114  0.00  0.00    +0.000 A 
ATOM      5  C   UNL     1       2.943   6.548  18.930  0.00  0.00    +0.000 A 
ATOM      6  C   UNL     1       2.369   7.790  18.621  0.00  0.00    +0.000 A 
ENDROOT
BRANCH   5   7
ATOM      7  C   UNL     1       3.868   5.983  17.940  0.00  0.00    +0.000 A 
ATOM      8  N   UNL     1       5.080   6.471  17.734  0.00  0.00    +0.000 NA
ATOM      9  C   UNL     1       5.653   5.690  16.773  0.00  0.00    +0.000 A 
ATOM     10  C   UNL     1       6.936   5.773  16.229  0.00  0.00    +0.000 A 
ATOM     11  C   UNL     1       7.284   4.891  15.202  0.00  0.00    +0.000 A 
ATOM     12  C   UNL     1       6.367   3.948  14.737  0.00  0.00    +0.000 A 
ATOM     13  C   UNL     1       5.095   3.817  15.311  0.00  0.00    +0.000 A 
ATOM     14  C   UNL     1       4.772   4.699  16.350  0.00  0.00    +0.000 A 
ATOM     15  N   UNL     1       3.694   4.828  17.199  0.00  0.00    +0.000 N 
ATOM     16  C   UNL     1       2.710   3.802  17.454  0.00  0.00    +0.000 C 
ENDBRANCH   5   7
BRANCH   1  24
ATOM     17  C   UNL     1       2.827  14.184  18.985  0.00  0.00    +0.000 A 
ATOM     18  C   UNL     1       2.789  13.035  18.205  0.00  0.00    +0.000 A 
ATOM     19  C   UNL     1       2.000  11.996  18.781  0.00  0.00    +0.000 A 
ATOM     20  C   UNL     1       1.446  12.410  19.976  0.00  0.00    +0.000 A 
ATOM     21  S   UNL     1       1.781  14.029  20.335  0.00  0.00    +0.000 S 
ATOM     22  C   UNL     1       0.620  11.528  20.859  0.00  0.00    +0.000 C 
ATOM     23  C   UNL     1       0.003  10.399  20.013  0.00  0.00    +0.000 C 
ATOM     24  N   UNL     1       1.016   9.728  19.166  0.00  0.00    +0.000 N 
ATOM     25  C   UNL     1       1.747  10.610  18.234  0.00  0.00    +0.000 C 
BRANCH  17  29
ATOM     26  C   UNL     1       5.330  17.038  18.919  0.00  0.00    +0.000 C 
ATOM     27  N   UNL     1       4.669  15.826  19.371  0.00  0.00    +0.000 N 
ATOM     28  C   UNL     1       5.394  14.993  20.319  0.00  0.00    +0.000 C 
ATOM     29  C   UNL     1       3.535  15.416  18.644  0.00  0.00    +0.000 C 
ATOM     30  O   UNL     1       3.166  16.086  17.674  0.00  0.00    +0.000 OA
ENDBRANCH  17  29
ENDBRANCH   1  24
TORSDOF 3
ENDMDL
MODEL 9
REMARK VINA RESULT:      -8.1      0.746      1.237
REMARK  Name = 
REMARK  6 active torsions:
REMARK  status: ('A' for Active; 'I' for Inactive)
REMARK    1  A    between atoms: C_1  and  N_2
REMARK    2  A    between atoms: N_2  and  C_3
REMARK    3  A    between atoms: C_4  and  C_6
REMARK    4  A    between atoms: N_13  and  C_14
REMARK    5  A    between atoms: C_18  and  C_19
REMARK    6  A    between atoms: N_27  and  C_28
REMARK                            x       y       z     vdW  Elec       q    Type
REMARK                         _______ _______ _______ _____ _____    ______ ____
ROOT
ATOM      1  C   UNL     1       1.772   7.784  20.193  0.00  0.00    +0.000 A 
ATOM      2  C   UNL     1       1.164   6.812  20.997  0.00  0.00    +0.000 A 
ATOM      3  C   UNL     1       1.492   5.451  20.886  0.00  0.00    +0.000 A 
ATOM      4  C   UNL     1       2.457   5.032  19.967  0.00  0.00    +0.000 A 
ATOM      5  C   UNL     1       3.080   5.974  19.147  0.00  0.00    +0.000 A 
ATOM      6  C   UNL     1       2.704   7.320  19.260  0.00  0.00    +0.000 A 
ENDROOT
BRANCH   5   7
ATOM      7  C   UNL     1       4.079   5.650  18.122  0.00  0.00    +0.000 A 
ATOM      8  N   UNL     1       3.867   5.844  16.831  0.00  0.00    +0.000 NA
ATOM      9  C   UNL     1       5.006   5.457  16.189  0.00  0.00    +0.000 A 
ATOM     10  C   UNL     1       5.298   5.496  14.824  0.00  0.00    +0.000 A 
ATOM     11  C   UNL     1       6.523   4.984  14.389  0.00  0.00    +0.000 A 
ATOM     12  C   UNL     1       7.434   4.450  15.302  0.00  0.00    +0.000 A 
ATOM     13  C   UNL     1       7.177   4.455  16.680  0.00  0.00    +0.000 A 
ATOM     14  C   UNL     1       5.951   4.988  17.096  0.00  0.00    +0.000 A 
ATOM     15  N   UNL     1       5.385   5.242  18.328  0.00  0.00    +0.000 N 
ATOM     16  C   UNL     1       6.109   5.330  19.574  0.00  0.00    +0.000 C 
ENDBRANCH   5   7
BRANCH   1  24
ATOM     17  C   UNL     1      -1.925  11.861  22.327  0.00  0.00    +0.000 A 
ATOM     18  C   UNL     1      -0.797  11.147  22.713  0.00  0.00    +0.000 A 
ATOM     19  C   UNL     1      -0.101  10.566  21.612  0.00  0.00    +0.000 A 
ATOM     20  C   UNL     1      -0.721  10.884  20.420  0.00  0.00    +0.000 A 
ATOM     21  S   UNL     1      -2.034  11.934  20.617  0.00  0.00    +0.000 S 
ATOM     22  C   UNL     1      -0.275  10.371  19.087  0.00  0.00    +0.000 C 
ATOM     23  C   UNL     1       1.216   9.992  19.164  0.00  0.00    +0.000 C 
ATOM     24  N   UNL     1       1.507   9.136  20.336  0.00  0.00    +0.000 N 
ATOM     25  C   UNL     1       1.145   9.711  21.647  0.00  0.00    +0.000 C 
BRANCH  17  29
ATOM     26  C   UNL     1      -3.397  14.443  24.690  0.00  0.00    +0.000 C 
ATOM     27  N   UNL     1      -2.414  13.776  23.853  0.00  0.00    +0.000 N 
ATOM     28  C   UNL     1      -1.227  14.539  23.495  0.00  0.00    +0.000 C 
ATOM     29  C   UNL     1      -2.821  12.582  23.228  0.00  0.00    +0.000 C 
ATOM     30  O   UNL     1      -3.970  12.168  23.410  0.00  0.00    +0.000 OA
ENDBRANCH  17  29
ENDBRANCH   1  24
TORSDOF 3
ENDMDL
