MODEL 1
REMARK VINA RESULT:      -7.3      0.000      0.000
REMARK  Name = 
REMARK  7 active torsions:
REMARK  status: ('A' for Active; 'I' for Inactive)
REMARK    1  A    between atoms: C_1  and  N_2
REMARK    2  A    between atoms: N_2  and  C_3
REMARK    3  A    between atoms: N_2  and  C_4
REMARK    4  A    between atoms: C_4  and  C_5
REMARK    5  A    between atoms: C_5  and  C_6
REMARK    6  A    between atoms: C_9  and  C_11
REMARK    7  A    between atoms: C_20  and  O_21
REMARK                            x       y       z     vdW  Elec       q    Type
REMARK                         _______ _______ _______ _____ _____    ______ ____
ROOT
ATOM      1  C   UNL     1       2.343   6.117  19.873  0.00  0.00    +0.000 A 
ATOM      2  C   UNL     1       1.897   7.413  19.766  0.00  0.00    +0.000 A 
ATOM      3  N   UNL     1       2.391   7.993  18.611  0.00  0.00    +0.000 N 
ATOM      4  C   UNL     1       1.977   9.251  18.105  0.00  0.00    +0.000 C 
ATOM      5  O   UNL     1       2.747   9.869  17.374  0.00  0.00    +0.000 OA
ATOM      6  C   UNL     1       3.301   7.099  18.044  0.00  0.00    +0.000 A 
ATOM      7  C   UNL     1       4.117   7.201  16.902  0.00  0.00    +0.000 A 
ATOM      8  C   UNL     1       4.865   6.087  16.505  0.00  0.00    +0.000 A 
ATOM      9  C   UNL     1       4.799   4.904  17.231  0.00  0.00    +0.000 A 
ATOM     10  C   UNL     1       4.007   4.802  18.368  0.00  0.00    +0.000 A 
ATOM     11  C   UNL     1       3.241   5.910  18.787  0.00  0.00    +0.000 A 
ENDROOT
BRANCH   4  12
ATOM     12  C   UNL     1       0.642   9.839  18.422  0.00  0.00    +0.000 A 
ATOM     13  C   UNL     1      -0.464   9.549  17.618  0.00  0.00    +0.000 A 
ATOM     14  C   UNL     1      -1.692  10.160  17.884  0.00  0.00    +0.000 A 
ATOM     15  C   UNL     1      -1.823  11.041  18.959  0.00  0.00    +0.000 A 
ATOM     16  C   UNL     1      -0.738  11.287  19.797  0.00  0.00    +0.000 A 
ATOM     17  C   UNL     1       0.486  10.673  19.541  0.00  0.00    +0.000 A 
ENDBRANCH   4  12
BRANCH   9  18
ATOM     18  O   UNL     1       5.505   3.799  16.856  0.00  0.00    +0.000 OA
ATOM     19  H   UNL     1       5.882   3.959  15.978  0.00  0.00    +0.000 HD
ENDBRANCH   9  18
BRANCH   1  20
ATOM     20  C   UNL     1       1.943   5.133  20.927  0.00  0.00    +0.000 C 
BRANCH  20  21
ATOM     21  C   UNL     1       0.962   4.080  20.374  0.00  0.00    +0.000 C 
BRANCH  21  23
ATOM     22  C   UNL     1       1.726   2.074  19.301  0.00  0.00    +0.000 C 
ATOM     23  N   UNL     1       1.364   2.678  20.588  0.00  0.00    +0.000 NA
ATOM     24  C   UNL     1       2.487   2.562  21.520  0.00  0.00    +0.000 C 
ENDBRANCH  21  23
ENDBRANCH  20  21
ENDBRANCH   1  20
TORSDOF 5
ENDMDL
MODEL 2
REMARK VINA RESULT:      -7.2      0.084      1.012
REMARK  Name = 
REMARK  7 active torsions:
REMARK  status: ('A' for Active; 'I' for Inactive)
REMARK    1  A    between atoms: C_1  and  N_2
REMARK    2  A    between atoms: N_2  and  C_3
REMARK    3  A    between atoms: N_2  and  C_4
REMARK    4  A    between atoms: C_4  and  C_5
REMARK    5  A    between atoms: C_5  and  C_6
REMARK    6  A    between atoms: C_9  and  C_11
REMARK    7  A    between atoms: C_20  and  O_21
REMARK                            x       y       z     vdW  Elec       q    Type
REMARK                         _______ _______ _______ _____ _____    ______ ____
ROOT
ATOM      1  C   UNL     1       2.305   6.119  19.904  0.00  0.00    +0.000 A 
ATOM      2  C   UNL     1       1.891   7.425  19.792  0.00  0.00    +0.000 A 
ATOM      3  N   UNL     1       2.402   7.988  18.636  0.00  0.00    +0.000 N 
ATOM      4  C   UNL     1       2.020   9.254  18.124  0.00  0.00    +0.000 C 
ATOM      5  O   UNL     1       2.806   9.850  17.392  0.00  0.00    +0.000 OA
ATOM      6  C   UNL     1       3.291   7.070  18.075  0.00  0.00    +0.000 A 
ATOM      7  C   UNL     1       4.111   7.148  16.934  0.00  0.00    +0.000 A 
ATOM      8  C   UNL     1       4.832   6.013  16.542  0.00  0.00    +0.000 A 
ATOM      9  C   UNL     1       4.736   4.836  17.273  0.00  0.00    +0.000 A 
ATOM     10  C   UNL     1       3.939   4.757  18.409  0.00  0.00    +0.000 A 
ATOM     11  C   UNL     1       3.200   5.885  18.821  0.00  0.00    +0.000 A 
ENDROOT
BRANCH   4  12
ATOM     12  C   UNL     1       0.699   9.876  18.435  0.00  0.00    +0.000 A 
ATOM     13  C   UNL     1       0.564  10.728  19.535  0.00  0.00    +0.000 A 
ATOM     14  C   UNL     1      -0.692  11.250  19.856  0.00  0.00    +0.000 A 
ATOM     15  C   UNL     1      -1.806  10.938  19.074  0.00  0.00    +0.000 A 
ATOM     16  C   UNL     1      -1.664  10.136  17.944  0.00  0.00    +0.000 A 
ATOM     17  C   UNL     1      -0.412   9.622  17.614  0.00  0.00    +0.000 A 
ENDBRANCH   4  12
BRANCH   9  18
ATOM     18  O   UNL     1       5.415   3.712  16.904  0.00  0.00    +0.000 OA
ATOM     19  H   UNL     1       5.762   3.288  17.703  0.00  0.00    +0.000 HD
ENDBRANCH   9  18
BRANCH   1  20
ATOM     20  C   UNL     1       1.878   5.149  20.962  0.00  0.00    +0.000 C 
BRANCH  20  21
ATOM     21  C   UNL     1       0.943   4.065  20.389  0.00  0.00    +0.000 C 
BRANCH  21  23
ATOM     22  C   UNL     1       1.649   2.046  19.300  0.00  0.00    +0.000 C 
ATOM     23  N   UNL     1       1.393   2.677  20.600  0.00  0.00    +0.000 NA
ATOM     24  C   UNL     1       2.600   2.607  21.426  0.00  0.00    +0.000 C 
ENDBRANCH  21  23
ENDBRANCH  20  21
ENDBRANCH   1  20
TORSDOF 5
ENDMDL
MODEL 3
REMARK VINA RESULT:      -7.0      2.411      6.058
REMARK  Name = 
REMARK  7 active torsions:
REMARK  status: ('A' for Active; 'I' for Inactive)
REMARK    1  A    between atoms: C_1  and  N_2
REMARK    2  A    between atoms: N_2  and  C_3
REMARK    3  A    between atoms: N_2  and  C_4
REMARK    4  A    between atoms: C_4  and  C_5
REMARK    5  A    between atoms: C_5  and  C_6
REMARK    6  A    between atoms: C_9  and  C_11
REMARK    7  A    between atoms: C_20  and  O_21
REMARK                            x       y       z     vdW  Elec       q    Type
REMARK                         _______ _______ _______ _____ _____    ______ ____
ROOT
ATOM      1  C   UNL     1       4.033   6.302  17.200  0.00  0.00    +0.000 A 
ATOM      2  C   UNL     1       3.230   5.325  17.739  0.00  0.00    +0.000 A 
ATOM      3  N   UNL     1       3.706   4.073  17.393  0.00  0.00    +0.000 N 
ATOM      4  C   UNL     1       3.225   2.854  17.934  0.00  0.00    +0.000 C 
ATOM      5  O   UNL     1       3.369   1.826  17.278  0.00  0.00    +0.000 OA
ATOM      6  C   UNL     1       4.747   4.253  16.481  0.00  0.00    +0.000 A 
ATOM      7  C   UNL     1       5.542   3.326  15.782  0.00  0.00    +0.000 A 
ATOM      8  C   UNL     1       6.603   3.800  15.000  0.00  0.00    +0.000 A 
ATOM      9  C   UNL     1       6.859   5.162  14.920  0.00  0.00    +0.000 A 
ATOM     10  C   UNL     1       6.068   6.084  15.597  0.00  0.00    +0.000 A 
ATOM     11  C   UNL     1       4.997   5.631  16.393  0.00  0.00    +0.000 A 
ENDROOT
BRANCH   4  12
ATOM     12  C   UNL     1       2.565   2.780  19.272  0.00  0.00    +0.000 A 
ATOM     13  C   UNL     1       1.175   2.879  19.376  0.00  0.00    +0.000 A 
ATOM     14  C   UNL     1       0.574   2.877  20.638  0.00  0.00    +0.000 A 
ATOM     15  C   UNL     1       1.353   2.758  21.790  0.00  0.00    +0.000 A 
ATOM     16  C   UNL     1       2.734   2.600  21.686  0.00  0.00    +0.000 A 
ATOM     17  C   UNL     1       3.336   2.592  20.430  0.00  0.00    +0.000 A 
ENDBRANCH   4  12
BRANCH   9  18
ATOM     18  O   UNL     1       7.896   5.649  14.179  0.00  0.00    +0.000 OA
ATOM     19  H   UNL     1       7.590   6.437  13.705  0.00  0.00    +0.000 HD
ENDBRANCH   9  18
BRANCH   1  20
ATOM     20  C   UNL     1       3.906   7.774  17.435  0.00  0.00    +0.000 C 
BRANCH  20  21
ATOM     21  C   UNL     1       2.435   8.187  17.647  0.00  0.00    +0.000 C 
BRANCH  21  23
ATOM     22  C   UNL     1       1.118   9.892  18.704  0.00  0.00    +0.000 C 
ATOM     23  N   UNL     1       2.157   8.880  18.919  0.00  0.00    +0.000 NA
ATOM     24  C   UNL     1       1.733   7.954  19.970  0.00  0.00    +0.000 C 
ENDBRANCH  21  23
ENDBRANCH  20  21
ENDBRANCH   1  20
TORSDOF 5
ENDMDL
MODEL 4
REMARK VINA RESULT:      -7.0      1.767      5.651
REMARK  Name = 
REMARK  7 active torsions:
REMARK  status: ('A' for Active; 'I' for Inactive)
REMARK    1  A    between atoms: C_1  and  N_2
REMARK    2  A    between atoms: N_2  and  C_3
REMARK    3  A    between atoms: N_2  and  C_4
REMARK    4  A    between atoms: C_4  and  C_5
REMARK    5  A    between atoms: C_5  and  C_6
REMARK    6  A    between atoms: C_9  and  C_11
REMARK    7  A    between atoms: C_20  and  O_21
REMARK                            x       y       z     vdW  Elec       q    Type
REMARK                         _______ _______ _______ _____ _____    ______ ____
ROOT
ATOM      1  C   UNL     1       2.263   5.812  20.120  0.00  0.00    +0.000 A 
ATOM      2  C   UNL     1       3.029   5.594  18.999  0.00  0.00    +0.000 A 
ATOM      3  N   UNL     1       3.150   6.765  18.271  0.00  0.00    +0.000 N 
ATOM      4  C   UNL     1       4.022   6.935  17.166  0.00  0.00    +0.000 C 
ATOM      5  O   UNL     1       3.752   7.799  16.336  0.00  0.00    +0.000 OA
ATOM      6  C   UNL     1       2.313   7.716  18.856  0.00  0.00    +0.000 A 
ATOM      7  C   UNL     1       2.020   9.044  18.495  0.00  0.00    +0.000 A 
ATOM      8  C   UNL     1       1.212   9.811  19.343  0.00  0.00    +0.000 A 
ATOM      9  C   UNL     1       0.709   9.263  20.516  0.00  0.00    +0.000 A 
ATOM     10  C   UNL     1       0.983   7.947  20.870  0.00  0.00    +0.000 A 
ATOM     11  C   UNL     1       1.798   7.156  20.035  0.00  0.00    +0.000 A 
ENDROOT
BRANCH   4  12
ATOM     12  C   UNL     1       5.255   6.111  16.987  0.00  0.00    +0.000 A 
ATOM     13  C   UNL     1       5.316   5.147  15.977  0.00  0.00    +0.000 A 
ATOM     14  C   UNL     1       6.447   4.335  15.862  0.00  0.00    +0.000 A 
ATOM     15  C   UNL     1       7.522   4.496  16.739  0.00  0.00    +0.000 A 
ATOM     16  C   UNL     1       7.488   5.494  17.710  0.00  0.00    +0.000 A 
ATOM     17  C   UNL     1       6.366   6.312  17.821  0.00  0.00    +0.000 A 
ENDBRANCH   4  12
BRANCH   9  18
ATOM     18  O   UNL     1      -0.067   9.993  21.367  0.00  0.00    +0.000 OA
ATOM     19  H   UNL     1       0.502  10.371  22.054  0.00  0.00    +0.000 HD
ENDBRANCH   9  18
BRANCH   1  20
ATOM     20  C   UNL     1       1.993   4.819  21.207  0.00  0.00    +0.000 C 
BRANCH  20  21
ATOM     21  C   UNL     1       1.096   3.668  20.709  0.00  0.00    +0.000 C 
BRANCH  21  23
ATOM     22  C   UNL     1       1.779   2.053  19.070  0.00  0.00    +0.000 C 
ATOM     23  N   UNL     1       1.789   2.383  20.499  0.00  0.00    +0.000 NA
ATOM     24  C   UNL     1       3.168   2.413  20.989  0.00  0.00    +0.000 C 
ENDBRANCH  21  23
ENDBRANCH  20  21
ENDBRANCH   1  20
TORSDOF 5
ENDMDL
MODEL 5
REMARK VINA RESULT:      -7.0      2.391      6.111
REMARK  Name = 
REMARK  7 active torsions:
REMARK  status: ('A' for Active; 'I' for Inactive)
REMARK    1  A    between atoms: C_1  and  N_2
REMARK    2  A    between atoms: N_2  and  C_3
REMARK    3  A    between atoms: N_2  and  C_4
REMARK    4  A    between atoms: C_4  and  C_5
REMARK    5  A    between atoms: C_5  and  C_6
REMARK    6  A    between atoms: C_9  and  C_11
REMARK    7  A    between atoms: C_20  and  O_21
REMARK                            x       y       z     vdW  Elec       q    Type
REMARK                         _______ _______ _______ _____ _____    ______ ____
ROOT
ATOM      1  C   UNL     1       4.012   6.326  17.195  0.00  0.00    +0.000 A 
ATOM      2  C   UNL     1       3.215   5.359  17.761  0.00  0.00    +0.000 A 
ATOM      3  N   UNL     1       3.689   4.100  17.435  0.00  0.00    +0.000 N 
ATOM      4  C   UNL     1       3.215   2.892  18.005  0.00  0.00    +0.000 C 
ATOM      5  O   UNL     1       3.353   1.852  17.368  0.00  0.00    +0.000 OA
ATOM      6  C   UNL     1       4.722   4.264  16.510  0.00  0.00    +0.000 A 
ATOM      7  C   UNL     1       5.511   3.324  15.822  0.00  0.00    +0.000 A 
ATOM      8  C   UNL     1       6.564   3.784  15.022  0.00  0.00    +0.000 A 
ATOM      9  C   UNL     1       6.817   5.145  14.912  0.00  0.00    +0.000 A 
ATOM     10  C   UNL     1       6.032   6.079  15.578  0.00  0.00    +0.000 A 
ATOM     11  C   UNL     1       4.968   5.641  16.393  0.00  0.00    +0.000 A 
ENDROOT
BRANCH   4  12
ATOM     12  C   UNL     1       2.567   2.844  19.350  0.00  0.00    +0.000 A 
ATOM     13  C   UNL     1       3.331   2.582  20.490  0.00  0.00    +0.000 A 
ATOM     14  C   UNL     1       2.703   2.470  21.734  0.00  0.00    +0.000 A 
ATOM     15  C   UNL     1       1.322   2.638  21.843  0.00  0.00    +0.000 A 
ATOM     16  C   UNL     1       0.565   2.957  20.718  0.00  0.00    +0.000 A 
ATOM     17  C   UNL     1       1.189   3.078  19.477  0.00  0.00    +0.000 A 
ENDBRANCH   4  12
BRANCH   9  18
ATOM     18  O   UNL     1       7.846   5.618  14.152  0.00  0.00    +0.000 OA
ATOM     19  H   UNL     1       7.521   6.364  13.626  0.00  0.00    +0.000 HD
ENDBRANCH   9  18
BRANCH   1  20
ATOM     20  C   UNL     1       3.884   7.803  17.403  0.00  0.00    +0.000 C 
BRANCH  20  21
ATOM     21  C   UNL     1       2.411   8.224  17.573  0.00  0.00    +0.000 C 
BRANCH  21  23
ATOM     22  C   UNL     1       0.976   9.856  18.592  0.00  0.00    +0.000 C 
ATOM     23  N   UNL     1       2.109   8.953  18.819  0.00  0.00    +0.000 NA
ATOM     24  C   UNL     1       1.802   8.047  19.927  0.00  0.00    +0.000 C 
ENDBRANCH  21  23
ENDBRANCH  20  21
ENDBRANCH   1  20
TORSDOF 5
ENDMDL
MODEL 6
REMARK VINA RESULT:      -6.9      1.773      5.752
REMARK  Name = 
REMARK  7 active torsions:
REMARK  status: ('A' for Active; 'I' for Inactive)
REMARK    1  A    between atoms: C_1  and  N_2
REMARK    2  A    between atoms: N_2  and  C_3
REMARK    3  A    between atoms: N_2  and  C_4
REMARK    4  A    between atoms: C_4  and  C_5
REMARK    5  A    between atoms: C_5  and  C_6
REMARK    6  A    between atoms: C_9  and  C_11
REMARK    7  A    between atoms: C_20  and  O_21
REMARK                            x       y       z     vdW  Elec       q    Type
REMARK                         _______ _______ _______ _____ _____    ______ ____
ROOT
ATOM      1  C   UNL     1       2.225   5.815  20.114  0.00  0.00    +0.000 A 
ATOM      2  C   UNL     1       2.990   5.575  18.997  0.00  0.00    +0.000 A 
ATOM      3  N   UNL     1       3.141   6.741  18.266  0.00  0.00    +0.000 N 
ATOM      4  C   UNL     1       4.022   6.887  17.165  0.00  0.00    +0.000 C 
ATOM      5  O   UNL     1       3.775   7.755  16.331  0.00  0.00    +0.000 OA
ATOM      6  C   UNL     1       2.324   7.713  18.845  0.00  0.00    +0.000 A 
ATOM      7  C   UNL     1       2.064   9.047  18.480  0.00  0.00    +0.000 A 
ATOM      8  C   UNL     1       1.270   9.835  19.322  0.00  0.00    +0.000 A 
ATOM      9  C   UNL     1       0.750   9.302  20.495  0.00  0.00    +0.000 A 
ATOM     10  C   UNL     1       0.992   7.981  20.853  0.00  0.00    +0.000 A 
ATOM     11  C   UNL     1       1.791   7.168  20.024  0.00  0.00    +0.000 A 
ENDROOT
BRANCH   4  12
ATOM     12  C   UNL     1       5.235   6.034  16.993  0.00  0.00    +0.000 A 
ATOM     13  C   UNL     1       6.312   6.156  17.875  0.00  0.00    +0.000 A 
ATOM     14  C   UNL     1       7.469   5.401  17.663  0.00  0.00    +0.000 A 
ATOM     15  C   UNL     1       7.545   4.515  16.587  0.00  0.00    +0.000 A 
ATOM     16  C   UNL     1       6.452   4.349  15.740  0.00  0.00    +0.000 A 
ATOM     17  C   UNL     1       5.293   5.092  15.953  0.00  0.00    +0.000 A 
ENDBRANCH   4  12
BRANCH   9  18
ATOM     18  O   UNL     1      -0.013  10.052  21.340  0.00  0.00    +0.000 OA
ATOM     19  H   UNL     1       0.414  10.063  22.210  0.00  0.00    +0.000 HD
ENDBRANCH   9  18
BRANCH   1  20
ATOM     20  C   UNL     1       1.926   4.831  21.203  0.00  0.00    +0.000 C 
BRANCH  20  21
ATOM     21  C   UNL     1       1.060   3.665  20.688  0.00  0.00    +0.000 C 
BRANCH  21  23
ATOM     22  C   UNL     1       1.833   2.017  19.123  0.00  0.00    +0.000 C 
ATOM     23  N   UNL     1       1.766   2.378  20.543  0.00  0.00    +0.000 NA
ATOM     24  C   UNL     1       3.118   2.425  21.104  0.00  0.00    +0.000 C 
ENDBRANCH  21  23
ENDBRANCH  20  21
ENDBRANCH   1  20
TORSDOF 5
ENDMDL
MODEL 7
REMARK VINA RESULT:      -6.7      2.644      6.200
REMARK  Name = 
REMARK  7 active torsions:
REMARK  status: ('A' for Active; 'I' for Inactive)
REMARK    1  A    between atoms: C_1  and  N_2
REMARK    2  A    between atoms: N_2  and  C_3
REMARK    3  A    between atoms: N_2  and  C_4
REMARK    4  A    between atoms: C_4  and  C_5
REMARK    5  A    between atoms: C_5  and  C_6
REMARK    6  A    between atoms: C_9  and  C_11
REMARK    7  A    between atoms: C_20  and  O_21
REMARK                            x       y       z     vdW  Elec       q    Type
REMARK                         _______ _______ _______ _____ _____    ______ ____
ROOT
ATOM      1  C   UNL     1       2.742   5.582  19.892  0.00  0.00    +0.000 A 
ATOM      2  C   UNL     1       4.087   5.808  19.715  0.00  0.00    +0.000 A 
ATOM      3  N   UNL     1       4.635   4.816  18.922  0.00  0.00    +0.000 N 
ATOM      4  C   UNL     1       5.950   4.848  18.392  0.00  0.00    +0.000 C 
ATOM      5  O   UNL     1       6.489   3.784  18.101  0.00  0.00    +0.000 OA
ATOM      6  C   UNL     1       3.652   3.847  18.716  0.00  0.00    +0.000 A 
ATOM      7  C   UNL     1       3.687   2.619  18.029  0.00  0.00    +0.000 A 
ATOM      8  C   UNL     1       2.500   1.889  17.891  0.00  0.00    +0.000 A 
ATOM      9  C   UNL     1       1.313   2.375  18.426  0.00  0.00    +0.000 A 
ATOM     10  C   UNL     1       1.276   3.580  19.117  0.00  0.00    +0.000 A 
ATOM     11  C   UNL     1       2.457   4.335  19.267  0.00  0.00    +0.000 A 
ENDROOT
BRANCH   4  12
ATOM     12  C   UNL     1       6.691   6.125  18.170  0.00  0.00    +0.000 A 
ATOM     13  C   UNL     1       7.857   6.397  18.891  0.00  0.00    +0.000 A 
ATOM     14  C   UNL     1       8.504   7.625  18.725  0.00  0.00    +0.000 A 
ATOM     15  C   UNL     1       8.001   8.570  17.830  0.00  0.00    +0.000 A 
ATOM     16  C   UNL     1       6.872   8.280  17.067  0.00  0.00    +0.000 A 
ATOM     17  C   UNL     1       6.229   7.053  17.223  0.00  0.00    +0.000 A 
ENDBRANCH   4  12
BRANCH   9  18
ATOM     18  O   UNL     1       0.140   1.692  18.291  0.00  0.00    +0.000 OA
ATOM     19  H   UNL     1      -0.190   1.824  17.390  0.00  0.00    +0.000 HD
ENDBRANCH   9  18
BRANCH   1  20
ATOM     20  C   UNL     1       1.784   6.489  20.600  0.00  0.00    +0.000 C 
BRANCH  20  21
ATOM     21  C   UNL     1       1.809   7.912  20.008  0.00  0.00    +0.000 C 
BRANCH  21  23
ATOM     22  C   UNL     1       1.225   9.047  22.040  0.00  0.00    +0.000 C 
ATOM     23  N   UNL     1       0.870   8.864  20.629  0.00  0.00    +0.000 NA
ATOM     24  C   UNL     1       0.870  10.161  19.949  0.00  0.00    +0.000 C 
ENDBRANCH  21  23
ENDBRANCH  20  21
ENDBRANCH   1  20
TORSDOF 5
ENDMDL
MODEL 8
REMARK VINA RESULT:      -6.6      3.819      7.228
REMARK  Name = 
REMARK  7 active torsions:
REMARK  status: ('A' for Active; 'I' for Inactive)
REMARK    1  A    between atoms: C_1  and  N_2
REMARK    2  A    between atoms: N_2  and  C_3
REMARK    3  A    between atoms: N_2  and  C_4
REMARK    4  A    between atoms: C_4  and  C_5
REMARK    5  A    between atoms: C_5  and  C_6
REMARK    6  A    between atoms: C_9  and  C_11
REMARK    7  A    between atoms: C_20  and  O_21
REMARK                            x       y       z     vdW  Elec       q    Type
REMARK                         _______ _______ _______ _____ _____    ______ ____
ROOT
ATOM      1  C   UNL     1       4.379   3.956  16.946  0.00  0.00    +0.000 A 
ATOM      2  C   UNL     1       4.548   4.065  15.586  0.00  0.00    +0.000 A 
ATOM      3  N   UNL     1       5.774   4.643  15.305  0.00  0.00    +0.000 N 
ATOM      4  C   UNL     1       6.340   4.729  14.008  0.00  0.00    +0.000 C 
ATOM      5  O   UNL     1       7.165   5.612  13.788  0.00  0.00    +0.000 OA
ATOM      6  C   UNL     1       6.335   5.056  16.514  0.00  0.00    +0.000 A 
ATOM      7  C   UNL     1       7.535   5.734  16.798  0.00  0.00    +0.000 A 
ATOM      8  C   UNL     1       7.900   5.927  18.136  0.00  0.00    +0.000 A 
ATOM      9  C   UNL     1       7.088   5.455  19.159  0.00  0.00    +0.000 A 
ATOM     10  C   UNL     1       5.894   4.797  18.884  0.00  0.00    +0.000 A 
ATOM     11  C   UNL     1       5.506   4.588  17.545  0.00  0.00    +0.000 A 
ENDROOT
BRANCH   4  12
ATOM     12  C   UNL     1       5.976   3.782  12.912  0.00  0.00    +0.000 A 
ATOM     13  C   UNL     1       4.698   3.818  12.346  0.00  0.00    +0.000 A 
ATOM     14  C   UNL     1       4.347   2.882  11.370  0.00  0.00    +0.000 A 
ATOM     15  C   UNL     1       5.272   1.925  10.946  0.00  0.00    +0.000 A 
ATOM     16  C   UNL     1       6.564   1.924  11.466  0.00  0.00    +0.000 A 
ATOM     17  C   UNL     1       6.921   2.861  12.433  0.00  0.00    +0.000 A 
ENDBRANCH   4  12
BRANCH   9  18
ATOM     18  O   UNL     1       7.429   5.614  20.470  0.00  0.00    +0.000 OA
ATOM     19  H   UNL     1       6.634   5.865  20.965  0.00  0.00    +0.000 HD
ENDBRANCH   9  18
BRANCH   1  20
ATOM     20  C   UNL     1       3.231   3.290  17.639  0.00  0.00    +0.000 C 
BRANCH  20  21
ATOM     21  C   UNL     1       2.222   4.323  18.180  0.00  0.00    +0.000 C 
BRANCH  21  23
ATOM     22  C   UNL     1       2.434   6.022  19.862  0.00  0.00    +0.000 C 
ATOM     23  N   UNL     1       2.309   4.580  19.630  0.00  0.00    +0.000 NA
ATOM     24  C   UNL     1       1.143   4.065  20.352  0.00  0.00    +0.000 C 
ENDBRANCH  21  23
ENDBRANCH  20  21
ENDBRANCH   1  20
TORSDOF 5
ENDMDL
MODEL 9
REMARK VINA RESULT:      -6.5      4.360      7.158
REMARK  Name = 
REMARK  7 active torsions:
REMARK  status: ('A' for Active; 'I' for Inactive)
REMARK    1  A    between atoms: C_1  and  N_2
REMARK    2  A    between atoms: N_2  and  C_3
REMARK    3  A    between atoms: N_2  and  C_4
REMARK    4  A    between atoms: C_4  and  C_5
REMARK    5  A    between atoms: C_5  and  C_6
REMARK    6  A    between atoms: C_9  and  C_11
REMARK    7  A    between atoms: C_20  and  O_21
REMARK                            x       y       z     vdW  Elec       q    Type
REMARK                         _______ _______ _______ _____ _____    ______ ____
ROOT
ATOM      1  C   UNL     1       4.454   3.693  17.099  0.00  0.00    +0.000 A 
ATOM      2  C   UNL     1       4.544   3.844  15.735  0.00  0.00    +0.000 A 
ATOM      3  N   UNL     1       5.695   4.540  15.409  0.00  0.00    +0.000 N 
ATOM      4  C   UNL     1       6.186   4.703  14.089  0.00  0.00    +0.000 C 
ATOM      5  O   UNL     1       6.913   5.663  13.850  0.00  0.00    +0.000 OA
ATOM      6  C   UNL     1       6.274   4.982  16.599  0.00  0.00    +0.000 A 
ATOM      7  C   UNL     1       7.418   5.765  16.841  0.00  0.00    +0.000 A 
ATOM      8  C   UNL     1       7.830   5.966  18.164  0.00  0.00    +0.000 A 
ATOM      9  C   UNL     1       7.117   5.401  19.213  0.00  0.00    +0.000 A 
ATOM     10  C   UNL     1       5.978   4.639  18.981  0.00  0.00    +0.000 A 
ATOM     11  C   UNL     1       5.545   4.419  17.657  0.00  0.00    +0.000 A 
ENDROOT
BRANCH   4  12
ATOM     12  C   UNL     1       5.858   3.745  12.990  0.00  0.00    +0.000 A 
ATOM     13  C   UNL     1       6.824   2.848  12.528  0.00  0.00    +0.000 A 
ATOM     14  C   UNL     1       6.527   2.005  11.453  0.00  0.00    +0.000 A 
ATOM     15  C   UNL     1       5.266   2.043  10.855  0.00  0.00    +0.000 A 
ATOM     16  C   UNL     1       4.282   2.895  11.351  0.00  0.00    +0.000 A 
ATOM     17  C   UNL     1       4.571   3.731  12.428  0.00  0.00    +0.000 A 
ENDBRANCH   4  12
BRANCH   9  18
ATOM     18  O   UNL     1       7.506   5.568  20.510  0.00  0.00    +0.000 OA
ATOM     19  H   UNL     1       6.716   5.554  21.071  0.00  0.00    +0.000 HD
ENDBRANCH   9  18
BRANCH   1  20
ATOM     20  C   UNL     1       3.409   2.910  17.830  0.00  0.00    +0.000 C 
BRANCH  20  21
ATOM     21  C   UNL     1       2.341   3.833  18.449  0.00  0.00    +0.000 C 
BRANCH  21  23
ATOM     22  C   UNL     1       1.130   4.356  20.454  0.00  0.00    +0.000 C 
ATOM     23  N   UNL     1       2.450   4.025  19.907  0.00  0.00    +0.000 NA
ATOM     24  C   UNL     1       2.978   2.837  20.581  0.00  0.00    +0.000 C 
ENDBRANCH  21  23
ENDBRANCH  20  21
ENDBRANCH   1  20
TORSDOF 5
ENDMDL
