MODEL 1
REMARK VINA RESULT:      -6.9      0.000      0.000
REMARK  Name = 
REMARK  5 active torsions:
REMARK  status: ('A' for Active; 'I' for Inactive)
REMARK    1  A    between atoms: C_1  and  C_2
REMARK    2  A    between atoms: C_2  and  N_3
REMARK    3  A    between atoms: N_3  and  C_4
REMARK    4  A    between atoms: C_5  and  C_7
REMARK    5  A    between atoms: C_7  and  C_8
REMARK                            x       y       z     vdW  Elec       q    Type
REMARK                         _______ _______ _______ _____ _____    ______ ____
ROOT
ATOM      1  C   UNL     1       3.341   4.170  18.449  0.00  0.00    +0.000 C 
ATOM      2  C   UNL     1       2.676   3.479  17.194  0.00  0.00    +0.000 C 
ATOM      3  C   UNL     1       1.652   2.835  18.145  0.00  0.00    +0.000 C 
ATOM      4  C   UNL     1       2.725   2.920  19.234  0.00  0.00    +0.000 C 
ENDROOT
BRANCH   1   5
ATOM      5  C   UNL     1       2.765   5.641  18.855  0.00  0.00    +0.000 A 
ATOM      6  C   UNL     1       2.672   6.698  17.920  0.00  0.00    +0.000 A 
ATOM      7  C   UNL     1       2.200   7.971  18.264  0.00  0.00    +0.000 A 
ATOM      8  C   UNL     1       1.770   8.210  19.558  0.00  0.00    +0.000 A 
ATOM      9  F   UNL     1       1.297   9.421  19.885  0.00  0.00    +0.000 F 
ATOM     10  C   UNL     1       1.820   7.211  20.514  0.00  0.00    +0.000 A 
ATOM     11  C   UNL     1       2.325   5.960  20.161  0.00  0.00    +0.000 A 
ATOM     12  F   UNL     1       2.376   5.027  21.122  0.00  0.00    +0.000 F 
ENDBRANCH   1   5
BRANCH   1  15
ATOM     13  N   UNL     1       5.732   4.707  17.551  0.00  0.00    +0.000 N 
ATOM     14  C   UNL     1       5.251   5.276  16.308  0.00  0.00    +0.000 C 
ATOM     15  C   UNL     1       4.922   4.219  18.597  0.00  0.00    +0.000 C 
ATOM     16  O   UNL     1       5.470   3.806  19.632  0.00  0.00    +0.000 OA
BRANCH  13  18
ATOM     17  C   UNL     1       7.700   5.971  18.359  0.00  0.00    +0.000 C 
ATOM     18  C   UNL     1       7.183   4.678  17.741  0.00  0.00    +0.000 C 
ENDBRANCH  13  18
ENDBRANCH   1  15
TORSDOF 3
ENDMDL
MODEL 2
REMARK VINA RESULT:      -6.8      2.237      3.883
REMARK  Name = 
REMARK  5 active torsions:
REMARK  status: ('A' for Active; 'I' for Inactive)
REMARK    1  A    between atoms: C_1  and  C_2
REMARK    2  A    between atoms: C_2  and  N_3
REMARK    3  A    between atoms: N_3  and  C_4
REMARK    4  A    between atoms: C_5  and  C_7
REMARK    5  A    between atoms: C_7  and  C_8
REMARK                            x       y       z     vdW  Elec       q    Type
REMARK                         _______ _______ _______ _____ _____    ______ ____
ROOT
ATOM      1  C   UNL     1       5.652   4.738  16.379  0.00  0.00    +0.000 C 
ATOM      2  C   UNL     1       5.466   5.591  15.063  0.00  0.00    +0.000 C 
ATOM      3  C   UNL     1       5.391   4.274  14.271  0.00  0.00    +0.000 C 
ATOM      4  C   UNL     1       6.257   3.654  15.370  0.00  0.00    +0.000 C 
ENDROOT
BRANCH   1   5
ATOM      5  C   UNL     1       4.288   4.319  17.168  0.00  0.00    +0.000 A 
ATOM      6  C   UNL     1       3.963   2.971  17.447  0.00  0.00    +0.000 A 
ATOM      7  C   UNL     1       2.783   2.600  18.103  0.00  0.00    +0.000 A 
ATOM      8  C   UNL     1       1.906   3.581  18.534  0.00  0.00    +0.000 A 
ATOM      9  F   UNL     1       0.787   3.229  19.181  0.00  0.00    +0.000 F 
ATOM     10  C   UNL     1       2.177   4.918  18.306  0.00  0.00    +0.000 A 
ATOM     11  C   UNL     1       3.341   5.266  17.621  0.00  0.00    +0.000 A 
ATOM     12  F   UNL     1       3.554   6.572  17.402  0.00  0.00    +0.000 F 
ENDBRANCH   1   5
BRANCH   1  15
ATOM     13  N   UNL     1       7.022   6.526  17.697  0.00  0.00    +0.000 N 
ATOM     14  C   UNL     1       6.365   7.651  17.060  0.00  0.00    +0.000 C 
ATOM     15  C   UNL     1       6.723   5.167  17.471  0.00  0.00    +0.000 C 
ATOM     16  O   UNL     1       7.331   4.306  18.127  0.00  0.00    +0.000 OA
BRANCH  13  18
ATOM     17  C   UNL     1       8.500   8.297  18.594  0.00  0.00    +0.000 C 
ATOM     18  C   UNL     1       8.053   6.844  18.686  0.00  0.00    +0.000 C 
ENDBRANCH  13  18
ENDBRANCH   1  15
TORSDOF 3
ENDMDL
MODEL 3
REMARK VINA RESULT:      -6.7      2.278      4.238
REMARK  Name = 
REMARK  5 active torsions:
REMARK  status: ('A' for Active; 'I' for Inactive)
REMARK    1  A    between atoms: C_1  and  C_2
REMARK    2  A    between atoms: C_2  and  N_3
REMARK    3  A    between atoms: N_3  and  C_4
REMARK    4  A    between atoms: C_5  and  C_7
REMARK    5  A    between atoms: C_7  and  C_8
REMARK                            x       y       z     vdW  Elec       q    Type
REMARK                         _______ _______ _______ _____ _____    ______ ____
ROOT
ATOM      1  C   UNL     1       6.129   5.939  17.296  0.00  0.00    +0.000 C 
ATOM      2  C   UNL     1       7.440   5.256  17.854  0.00  0.00    +0.000 C 
ATOM      3  C   UNL     1       7.773   6.578  18.567  0.00  0.00    +0.000 C 
ATOM      4  C   UNL     1       6.979   7.283  17.465  0.00  0.00    +0.000 C 
ENDROOT
BRANCH   1   5
ATOM      5  C   UNL     1       4.792   5.800  18.219  0.00  0.00    +0.000 A 
ATOM      6  C   UNL     1       4.639   4.767  19.173  0.00  0.00    +0.000 A 
ATOM      7  C   UNL     1       3.485   4.627  19.955  0.00  0.00    +0.000 A 
ATOM      8  C   UNL     1       2.460   5.547  19.824  0.00  0.00    +0.000 A 
ATOM      9  F   UNL     1       1.363   5.428  20.586  0.00  0.00    +0.000 F 
ATOM     10  C   UNL     1       2.557   6.589  18.920  0.00  0.00    +0.000 A 
ATOM     11  C   UNL     1       3.699   6.693  18.127  0.00  0.00    +0.000 A 
ATOM     12  F   UNL     1       3.744   7.705  17.248  0.00  0.00    +0.000 F 
ENDBRANCH   1   5
BRANCH   1  15
ATOM     13  N   UNL     1       5.565   4.425  15.246  0.00  0.00    +0.000 N 
ATOM     14  C   UNL     1       5.724   3.188  15.983  0.00  0.00    +0.000 C 
ATOM     15  C   UNL     1       5.691   5.722  15.785  0.00  0.00    +0.000 C 
ATOM     16  O   UNL     1       5.475   6.697  15.046  0.00  0.00    +0.000 OA
BRANCH  13  18
ATOM     17  C   UNL     1       6.335   3.712  13.005  0.00  0.00    +0.000 C 
ATOM     18  C   UNL     1       5.202   4.305  13.833  0.00  0.00    +0.000 C 
ENDBRANCH  13  18
ENDBRANCH   1  15
TORSDOF 3
ENDMDL
MODEL 4
REMARK VINA RESULT:      -6.7      2.299      4.074
REMARK  Name = 
REMARK  5 active torsions:
REMARK  status: ('A' for Active; 'I' for Inactive)
REMARK    1  A    between atoms: C_1  and  C_2
REMARK    2  A    between atoms: C_2  and  N_3
REMARK    3  A    between atoms: N_3  and  C_4
REMARK    4  A    between atoms: C_5  and  C_7
REMARK    5  A    between atoms: C_7  and  C_8
REMARK                            x       y       z     vdW  Elec       q    Type
REMARK                         _______ _______ _______ _____ _____    ______ ____
ROOT
ATOM      1  C   UNL     1       6.098   6.059  17.217  0.00  0.00    +0.000 C 
ATOM      2  C   UNL     1       7.399   5.364  17.782  0.00  0.00    +0.000 C 
ATOM      3  C   UNL     1       7.765   6.697  18.459  0.00  0.00    +0.000 C 
ATOM      4  C   UNL     1       6.976   7.390  17.345  0.00  0.00    +0.000 C 
ENDROOT
BRANCH   1   5
ATOM      5  C   UNL     1       4.767   5.971  18.154  0.00  0.00    +0.000 A 
ATOM      6  C   UNL     1       3.733   6.935  18.088  0.00  0.00    +0.000 A 
ATOM      7  C   UNL     1       2.597   6.881  18.905  0.00  0.00    +0.000 A 
ATOM      8  C   UNL     1       2.447   5.830  19.793  0.00  0.00    +0.000 A 
ATOM      9  F   UNL     1       1.350   5.764  20.561  0.00  0.00    +0.000 F 
ATOM     10  C   UNL     1       3.415   4.847  19.893  0.00  0.00    +0.000 A 
ATOM     11  C   UNL     1       4.556   4.936  19.095  0.00  0.00    +0.000 A 
ATOM     12  F   UNL     1       5.479   3.974  19.238  0.00  0.00    +0.000 F 
ENDBRANCH   1   5
BRANCH   1  15
ATOM     13  N   UNL     1       5.576   4.509  15.184  0.00  0.00    +0.000 N 
ATOM     14  C   UNL     1       5.817   3.284  15.922  0.00  0.00    +0.000 C 
ATOM     15  C   UNL     1       5.643   5.812  15.716  0.00  0.00    +0.000 C 
ATOM     16  O   UNL     1       5.359   6.771  14.979  0.00  0.00    +0.000 OA
BRANCH  13  18
ATOM     17  C   UNL     1       6.256   3.625  12.974  0.00  0.00    +0.000 C 
ATOM     18  C   UNL     1       5.193   4.363  13.779  0.00  0.00    +0.000 C 
ENDBRANCH  13  18
ENDBRANCH   1  15
TORSDOF 3
ENDMDL
MODEL 5
REMARK VINA RESULT:      -6.6      1.169      1.631
REMARK  Name = 
REMARK  5 active torsions:
REMARK  status: ('A' for Active; 'I' for Inactive)
REMARK    1  A    between atoms: C_1  and  C_2
REMARK    2  A    between atoms: C_2  and  N_3
REMARK    3  A    between atoms: N_3  and  C_4
REMARK    4  A    between atoms: C_5  and  C_7
REMARK    5  A    between atoms: C_7  and  C_8
REMARK                            x       y       z     vdW  Elec       q    Type
REMARK                         _______ _______ _______ _____ _____    ______ ____
ROOT
ATOM      1  C   UNL     1       3.631   4.068  18.384  0.00  0.00    +0.000 C 
ATOM      2  C   UNL     1       2.978   3.524  17.053  0.00  0.00    +0.000 C 
ATOM      3  C   UNL     1       2.107   2.591  17.911  0.00  0.00    +0.000 C 
ATOM      4  C   UNL     1       3.230   2.627  18.951  0.00  0.00    +0.000 C 
ENDROOT
BRANCH   1   5
ATOM      5  C   UNL     1       2.901   5.352  19.075  0.00  0.00    +0.000 A 
ATOM      6  C   UNL     1       2.244   5.263  20.325  0.00  0.00    +0.000 A 
ATOM      7  C   UNL     1       1.595   6.355  20.915  0.00  0.00    +0.000 A 
ATOM      8  C   UNL     1       1.618   7.584  20.280  0.00  0.00    +0.000 A 
ATOM      9  F   UNL     1       1.017   8.636  20.854  0.00  0.00    +0.000 F 
ATOM     10  C   UNL     1       2.259   7.739  19.064  0.00  0.00    +0.000 A 
ATOM     11  C   UNL     1       2.871   6.633  18.476  0.00  0.00    +0.000 A 
ATOM     12  F   UNL     1       3.462   6.821  17.287  0.00  0.00    +0.000 F 
ENDBRANCH   1   5
BRANCH   1  15
ATOM     13  N   UNL     1       5.937   4.697  17.338  0.00  0.00    +0.000 N 
ATOM     14  C   UNL     1       5.381   5.004  16.035  0.00  0.00    +0.000 C 
ATOM     15  C   UNL     1       5.199   4.304  18.473  0.00  0.00    +0.000 C 
ATOM     16  O   UNL     1       5.803   4.123  19.543  0.00  0.00    +0.000 OA
BRANCH  13  18
ATOM     17  C   UNL     1       7.762   6.241  17.981  0.00  0.00    +0.000 C 
ATOM     18  C   UNL     1       7.385   4.850  17.485  0.00  0.00    +0.000 C 
ENDBRANCH  13  18
ENDBRANCH   1  15
TORSDOF 3
ENDMDL
MODEL 6
REMARK VINA RESULT:      -6.5      1.033      1.215
REMARK  Name = 
REMARK  5 active torsions:
REMARK  status: ('A' for Active; 'I' for Inactive)
REMARK    1  A    between atoms: C_1  and  C_2
REMARK    2  A    between atoms: C_2  and  N_3
REMARK    3  A    between atoms: N_3  and  C_4
REMARK    4  A    between atoms: C_5  and  C_7
REMARK    5  A    between atoms: C_7  and  C_8
REMARK                            x       y       z     vdW  Elec       q    Type
REMARK                         _______ _______ _______ _____ _____    ______ ____
ROOT
ATOM      1  C   UNL     1       3.149   5.299  18.604  0.00  0.00    +0.000 C 
ATOM      2  C   UNL     1       2.535   4.455  17.417  0.00  0.00    +0.000 C 
ATOM      3  C   UNL     1       1.552   3.833  18.424  0.00  0.00    +0.000 C 
ATOM      4  C   UNL     1       2.613   4.085  19.498  0.00  0.00    +0.000 C 
ENDROOT
BRANCH   1   5
ATOM      5  C   UNL     1       2.475   6.758  18.877  0.00  0.00    +0.000 A 
ATOM      6  C   UNL     1       2.392   7.750  17.872  0.00  0.00    +0.000 A 
ATOM      7  C   UNL     1       1.836   9.014  18.103  0.00  0.00    +0.000 A 
ATOM      8  C   UNL     1       1.312   9.309  19.350  0.00  0.00    +0.000 A 
ATOM      9  F   UNL     1       0.760  10.511  19.568  0.00  0.00    +0.000 F 
ATOM     10  C   UNL     1       1.349   8.375  20.369  0.00  0.00    +0.000 A 
ATOM     11  C   UNL     1       1.936   7.133  20.130  0.00  0.00    +0.000 A 
ATOM     12  F   UNL     1       1.970   6.265  21.151  0.00  0.00    +0.000 F 
ENDBRANCH   1   5
BRANCH   1  15
ATOM     13  N   UNL     1       5.516   5.801  17.629  0.00  0.00    +0.000 N 
ATOM     14  C   UNL     1       5.019   6.108  16.302  0.00  0.00    +0.000 C 
ATOM     15  C   UNL     1       4.722   5.464  18.744  0.00  0.00    +0.000 C 
ATOM     16  O   UNL     1       5.280   5.277  19.837  0.00  0.00    +0.000 OA
BRANCH  13  18
ATOM     17  C   UNL     1       7.661   4.570  17.520  0.00  0.00    +0.000 C 
ATOM     18  C   UNL     1       6.964   5.891  17.824  0.00  0.00    +0.000 C 
ENDBRANCH  13  18
ENDBRANCH   1  15
TORSDOF 3
ENDMDL
MODEL 7
REMARK VINA RESULT:      -6.4      2.195      3.710
REMARK  Name = 
REMARK  5 active torsions:
REMARK  status: ('A' for Active; 'I' for Inactive)
REMARK    1  A    between atoms: C_1  and  C_2
REMARK    2  A    between atoms: C_2  and  N_3
REMARK    3  A    between atoms: N_3  and  C_4
REMARK    4  A    between atoms: C_5  and  C_7
REMARK    5  A    between atoms: C_7  and  C_8
REMARK                            x       y       z     vdW  Elec       q    Type
REMARK                         _______ _______ _______ _____ _____    ______ ____
ROOT
ATOM      1  C   UNL     1       5.637   4.811  16.422  0.00  0.00    +0.000 C 
ATOM      2  C   UNL     1       5.500   5.580  15.049  0.00  0.00    +0.000 C 
ATOM      3  C   UNL     1       5.292   4.221  14.358  0.00  0.00    +0.000 C 
ATOM      4  C   UNL     1       6.123   3.607  15.488  0.00  0.00    +0.000 C 
ENDROOT
BRANCH   1   5
ATOM      5  C   UNL     1       4.258   4.573  17.259  0.00  0.00    +0.000 A 
ATOM      6  C   UNL     1       3.445   5.647  17.693  0.00  0.00    +0.000 A 
ATOM      7  C   UNL     1       2.272   5.454  18.432  0.00  0.00    +0.000 A 
ATOM      8  C   UNL     1       1.858   4.167  18.728  0.00  0.00    +0.000 A 
ATOM      9  F   UNL     1       0.723   3.979  19.416  0.00  0.00    +0.000 F 
ATOM     10  C   UNL     1       2.601   3.075  18.316  0.00  0.00    +0.000 A 
ATOM     11  C   UNL     1       3.784   3.288  17.611  0.00  0.00    +0.000 A 
ATOM     12  F   UNL     1       4.485   2.203  17.250  0.00  0.00    +0.000 F 
ENDBRANCH   1   5
BRANCH   1  15
ATOM     13  N   UNL     1       7.047   6.575  17.729  0.00  0.00    +0.000 N 
ATOM     14  C   UNL     1       6.329   7.709  17.181  0.00  0.00    +0.000 C 
ATOM     15  C   UNL     1       6.764   5.220  17.464  0.00  0.00    +0.000 C 
ATOM     16  O   UNL     1       7.429   4.348  18.046  0.00  0.00    +0.000 OA
BRANCH  13  18
ATOM     17  C   UNL     1       8.541   8.343  18.607  0.00  0.00    +0.000 C 
ATOM     18  C   UNL     1       8.130   6.877  18.666  0.00  0.00    +0.000 C 
ENDBRANCH  13  18
ENDBRANCH   1  15
TORSDOF 3
ENDMDL
MODEL 8
REMARK VINA RESULT:      -6.3      1.669      3.510
REMARK  Name = 
REMARK  5 active torsions:
REMARK  status: ('A' for Active; 'I' for Inactive)
REMARK    1  A    between atoms: C_1  and  C_2
REMARK    2  A    between atoms: C_2  and  N_3
REMARK    3  A    between atoms: N_3  and  C_4
REMARK    4  A    between atoms: C_5  and  C_7
REMARK    5  A    between atoms: C_7  and  C_8
REMARK                            x       y       z     vdW  Elec       q    Type
REMARK                         _______ _______ _______ _____ _____    ______ ____
ROOT
ATOM      1  C   UNL     1       3.852   5.353  18.038  0.00  0.00    +0.000 C 
ATOM      2  C   UNL     1       5.270   5.162  18.707  0.00  0.00    +0.000 C 
ATOM      3  C   UNL     1       5.872   6.012  17.575  0.00  0.00    +0.000 C 
ATOM      4  C   UNL     1       4.712   5.528  16.700  0.00  0.00    +0.000 C 
ENDROOT
BRANCH   1   5
ATOM      5  C   UNL     1       2.991   6.649  18.526  0.00  0.00    +0.000 A 
ATOM      6  C   UNL     1       2.793   7.778  17.697  0.00  0.00    +0.000 A 
ATOM      7  C   UNL     1       2.075   8.905  18.115  0.00  0.00    +0.000 A 
ATOM      8  C   UNL     1       1.499   8.916  19.373  0.00  0.00    +0.000 A 
ATOM      9  F   UNL     1       0.792   9.984  19.768  0.00  0.00    +0.000 F 
ATOM     10  C   UNL     1       1.642   7.835  20.224  0.00  0.00    +0.000 A 
ATOM     11  C   UNL     1       2.390   6.735  19.803  0.00  0.00    +0.000 A 
ATOM     12  F   UNL     1       2.522   5.718  20.667  0.00  0.00    +0.000 F 
ENDBRANCH   1   5
BRANCH   1  15
ATOM     13  N   UNL     1       2.941   3.028  18.795  0.00  0.00    +0.000 N 
ATOM     14  C   UNL     1       3.859   2.915  19.912  0.00  0.00    +0.000 C 
ATOM     15  C   UNL     1       2.848   4.128  17.919  0.00  0.00    +0.000 C 
ATOM     16  O   UNL     1       1.976   4.113  17.035  0.00  0.00    +0.000 OA
BRANCH  13  18
ATOM     17  C   UNL     1       0.625   2.229  19.145  0.00  0.00    +0.000 C 
ATOM     18  C   UNL     1       2.011   1.915  18.596  0.00  0.00    +0.000 C 
ENDBRANCH  13  18
ENDBRANCH   1  15
TORSDOF 3
ENDMDL
MODEL 9
REMARK VINA RESULT:      -6.3      1.265      3.300
REMARK  Name = 
REMARK  5 active torsions:
REMARK  status: ('A' for Active; 'I' for Inactive)
REMARK    1  A    between atoms: C_1  and  C_2
REMARK    2  A    between atoms: C_2  and  N_3
REMARK    3  A    between atoms: N_3  and  C_4
REMARK    4  A    between atoms: C_5  and  C_7
REMARK    5  A    between atoms: C_7  and  C_8
REMARK                            x       y       z     vdW  Elec       q    Type
REMARK                         _______ _______ _______ _____ _____    ______ ____
ROOT
ATOM      1  C   UNL     1       5.361   4.988  18.457  0.00  0.00    +0.000 C 
ATOM      2  C   UNL     1       6.753   5.422  19.064  0.00  0.00    +0.000 C 
ATOM      3  C   UNL     1       7.157   5.926  17.668  0.00  0.00    +0.000 C 
ATOM      4  C   UNL     1       6.196   4.879  17.097  0.00  0.00    +0.000 C 
ENDROOT
BRANCH   1   5
ATOM      5  C   UNL     1       4.175   6.106  18.497  0.00  0.00    +0.000 A 
ATOM      6  C   UNL     1       4.026   7.083  17.485  0.00  0.00    +0.000 A 
ATOM      7  C   UNL     1       3.025   8.061  17.522  0.00  0.00    +0.000 A 
ATOM      8  C   UNL     1       2.115   8.065  18.565  0.00  0.00    +0.000 A 
ATOM      9  F   UNL     1       1.143   8.987  18.592  0.00  0.00    +0.000 F 
ATOM     10  C   UNL     1       2.198   7.124  19.576  0.00  0.00    +0.000 A 
ATOM     11  C   UNL     1       3.222   6.179  19.540  0.00  0.00    +0.000 A 
ATOM     12  F   UNL     1       3.280   5.299  20.551  0.00  0.00    +0.000 F 
ENDBRANCH   1   5
BRANCH   1  15
ATOM     13  N   UNL     1       3.658   3.046  18.091  0.00  0.00    +0.000 N 
ATOM     14  C   UNL     1       3.110   3.614  16.876  0.00  0.00    +0.000 C 
ATOM     15  C   UNL     1       4.715   3.591  18.848  0.00  0.00    +0.000 C 
ATOM     16  O   UNL     1       5.119   2.967  19.843  0.00  0.00    +0.000 OA
BRANCH  13  18
ATOM     17  C   UNL     1       1.736   1.974  19.226  0.00  0.00    +0.000 C 
ATOM     18  C   UNL     1       3.081   1.776  18.538  0.00  0.00    +0.000 C 
ENDBRANCH  13  18
ENDBRANCH   1  15
TORSDOF 3
ENDMDL
