MODEL 1
REMARK VINA RESULT:      -8.3      0.000      0.000
REMARK  Name = 
REMARK  3 active torsions:
REMARK  status: ('A' for Active; 'I' for Inactive)
REMARK    1  A    between atoms: C_2  and  C_11
REMARK    2  A    between atoms: N_3  and  C_4
REMARK    3  A    between atoms: C_15  and  C_16
REMARK                            x       y       z     vdW  Elec       q    Type
REMARK                         _______ _______ _______ _____ _____    ______ ____
ROOT
ATOM      1  C   UNL     1       0.251   9.986  21.295  0.00  0.00    +0.000 A 
ATOM      2  C   UNL     1       0.868   8.757  21.446  0.00  0.00    +0.000 A 
ATOM      3  N   UNL     1       1.379   8.437  20.222  0.00  0.00    +0.000 N 
ATOM      4  C   UNL     1       2.087   7.303  19.841  0.00  0.00    +0.000 A 
ATOM      5  C   UNL     1       2.556   7.193  18.576  0.00  0.00    +0.000 A 
ATOM      6  C   UNL     1       2.259   8.317  17.667  0.00  0.00    +0.000 A 
ATOM      7  C   UNL     1       1.559   9.402  18.046  0.00  0.00    +0.000 A 
ATOM      8  C   UNL     1       1.072   9.497  19.378  0.00  0.00    +0.000 A 
ATOM      9  N   UNL     1       0.365  10.429  19.991  0.00  0.00    +0.000 NA
ENDROOT
BRANCH   5  10
ATOM     10  C   UNL     1       3.296   5.975  18.164  0.00  0.00    +0.000 A 
ATOM     11  C   UNL     1       2.610   4.836  17.741  0.00  0.00    +0.000 A 
ATOM     12  C   UNL     1       3.331   3.686  17.426  0.00  0.00    +0.000 A 
ATOM     13  C   UNL     1       4.714   3.704  17.528  0.00  0.00    +0.000 A 
ATOM     14  C   UNL     1       5.323   4.880  17.931  0.00  0.00    +0.000 A 
ATOM     15  N   UNL     1       4.649   6.013  18.244  0.00  0.00    +0.000 NA
ENDBRANCH   5  10
BRANCH   1  17
ATOM     16  O   UNL     1      -0.142  10.364  23.550  0.00  0.00    +0.000 OA
ATOM     17  C   UNL     1      -0.389  10.701  22.394  0.00  0.00    +0.000 C 
ATOM     18  N   UNL     1      -1.272  11.698  22.028  0.00  0.00    +0.000 N 
ATOM     19  H   UNL     1      -1.522  11.742  21.043  0.00  0.00    +0.000 HD
BRANCH  18  20
ATOM     20  C   UNL     1      -1.964  12.543  22.938  0.00  0.00    +0.000 A 
ATOM     21  C   UNL     1      -3.177  12.145  23.522  0.00  0.00    +0.000 A 
ATOM     22  C   UNL     1      -3.881  12.980  24.391  0.00  0.00    +0.000 A 
ATOM     23  C   UNL     1      -3.370  14.228  24.719  0.00  0.00    +0.000 A 
ATOM     24  C   UNL     1      -2.154  14.639  24.173  0.00  0.00    +0.000 A 
ATOM     25  C   UNL     1      -1.454  13.804  23.288  0.00  0.00    +0.000 A 
ATOM     26 CL   UNL     1       0.017  14.402  22.602  0.00  0.00    +0.000 Cl
ENDBRANCH  18  20
ENDBRANCH   1  17
TORSDOF 3
ENDMDL
MODEL 2
REMARK VINA RESULT:      -8.3      3.137      5.483
REMARK  Name = 
REMARK  3 active torsions:
REMARK  status: ('A' for Active; 'I' for Inactive)
REMARK    1  A    between atoms: C_2  and  C_11
REMARK    2  A    between atoms: N_3  and  C_4
REMARK    3  A    between atoms: C_15  and  C_16
REMARK                            x       y       z     vdW  Elec       q    Type
REMARK                         _______ _______ _______ _____ _____    ______ ____
ROOT
ATOM      1  C   UNL     1       3.182   6.281  19.216  0.00  0.00    +0.000 A 
ATOM      2  C   UNL     1       3.250   6.494  17.851  0.00  0.00    +0.000 A 
ATOM      3  N   UNL     1       4.313   5.763  17.407  0.00  0.00    +0.000 N 
ATOM      4  C   UNL     1       4.807   5.639  16.113  0.00  0.00    +0.000 A 
ATOM      5  C   UNL     1       5.853   4.817  15.866  0.00  0.00    +0.000 A 
ATOM      6  C   UNL     1       6.413   4.101  17.028  0.00  0.00    +0.000 A 
ATOM      7  C   UNL     1       5.933   4.243  18.278  0.00  0.00    +0.000 A 
ATOM      8  C   UNL     1       4.836   5.114  18.518  0.00  0.00    +0.000 A 
ATOM      9  N   UNL     1       4.194   5.433  19.626  0.00  0.00    +0.000 NA
ENDROOT
BRANCH   5  10
ATOM     10  C   UNL     1       6.393   4.699  14.489  0.00  0.00    +0.000 A 
ATOM     11  C   UNL     1       5.818   3.817  13.573  0.00  0.00    +0.000 A 
ATOM     12  C   UNL     1       6.389   3.681  12.310  0.00  0.00    +0.000 A 
ATOM     13  C   UNL     1       7.510   4.431  11.988  0.00  0.00    +0.000 A 
ATOM     14  C   UNL     1       8.007   5.303  12.942  0.00  0.00    +0.000 A 
ATOM     15  N   UNL     1       7.473   5.457  14.178  0.00  0.00    +0.000 NA
ENDBRANCH   5  10
BRANCH   1  17
ATOM     16  O   UNL     1       1.473   6.119  20.777  0.00  0.00    +0.000 OA
ATOM     17  C   UNL     1       2.147   6.861  20.067  0.00  0.00    +0.000 C 
ATOM     18  N   UNL     1       1.985   8.229  19.967  0.00  0.00    +0.000 N 
ATOM     19  H   UNL     1       2.478   8.690  19.206  0.00  0.00    +0.000 HD
BRANCH  18  20
ATOM     20  C   UNL     1       1.069   8.995  20.738  0.00  0.00    +0.000 A 
ATOM     21  C   UNL     1       1.066   8.930  22.141  0.00  0.00    +0.000 A 
ATOM     22  C   UNL     1       0.150   9.653  22.906  0.00  0.00    +0.000 A 
ATOM     23  C   UNL     1      -0.771  10.484  22.283  0.00  0.00    +0.000 A 
ATOM     24  C   UNL     1      -0.773  10.587  20.892  0.00  0.00    +0.000 A 
ATOM     25  C   UNL     1       0.139   9.849  20.123  0.00  0.00    +0.000 A 
ATOM     26 CL   UNL     1       0.039   9.979  18.401  0.00  0.00    +0.000 Cl
ENDBRANCH  18  20
ENDBRANCH   1  17
TORSDOF 3
ENDMDL
MODEL 3
REMARK VINA RESULT:      -8.0      2.923      9.714
REMARK  Name = 
REMARK  3 active torsions:
REMARK  status: ('A' for Active; 'I' for Inactive)
REMARK    1  A    between atoms: C_2  and  C_11
REMARK    2  A    between atoms: N_3  and  C_4
REMARK    3  A    between atoms: C_15  and  C_16
REMARK                            x       y       z     vdW  Elec       q    Type
REMARK                         _______ _______ _______ _____ _____    ______ ____
ROOT
ATOM      1  C   UNL     1       1.461   8.701  19.585  0.00  0.00    +0.000 A 
ATOM      2  C   UNL     1       0.772   9.898  19.502  0.00  0.00    +0.000 A 
ATOM      3  N   UNL     1       0.217  10.102  20.731  0.00  0.00    +0.000 N 
ATOM      4  C   UNL     1      -0.575  11.158  21.167  0.00  0.00    +0.000 A 
ATOM      5  C   UNL     1      -0.993  11.203  22.454  0.00  0.00    +0.000 A 
ATOM      6  C   UNL     1      -0.570  10.085  23.319  0.00  0.00    +0.000 A 
ATOM      7  C   UNL     1       0.185   9.061  22.879  0.00  0.00    +0.000 A 
ATOM      8  C   UNL     1       0.610   9.031  21.523  0.00  0.00    +0.000 A 
ATOM      9  N   UNL     1       1.334   8.156  20.849  0.00  0.00    +0.000 NA
ENDROOT
BRANCH   5  10
ATOM     10  C   UNL     1      -1.853  12.320  22.915  0.00  0.00    +0.000 A 
ATOM     11  C   UNL     1      -1.349  13.618  23.001  0.00  0.00    +0.000 A 
ATOM     12  C   UNL     1      -2.162  14.632  23.501  0.00  0.00    +0.000 A 
ATOM     13  C   UNL     1      -3.458  14.331  23.892  0.00  0.00    +0.000 A 
ATOM     14  C   UNL     1      -3.894  13.024  23.751  0.00  0.00    +0.000 A 
ATOM     15  N   UNL     1      -3.127  12.018  23.269  0.00  0.00    +0.000 NA
ENDBRANCH   5  10
BRANCH   1  17
ATOM     16  O   UNL     1       2.287   8.759  17.418  0.00  0.00    +0.000 OA
ATOM     17  C   UNL     1       2.234   8.144  18.480  0.00  0.00    +0.000 C 
ATOM     18  N   UNL     1       2.824   6.918  18.719  0.00  0.00    +0.000 N 
ATOM     19  H   UNL     1       2.543   6.438  19.572  0.00  0.00    +0.000 HD
BRANCH  18  20
ATOM     20  C   UNL     1       3.655   6.224  17.798  0.00  0.00    +0.000 A 
ATOM     21  C   UNL     1       4.725   6.867  17.156  0.00  0.00    +0.000 A 
ATOM     22  C   UNL     1       5.527   6.204  16.225  0.00  0.00    +0.000 A 
ATOM     23  C   UNL     1       5.291   4.868  15.935  0.00  0.00    +0.000 A 
ATOM     24  C   UNL     1       4.250   4.198  16.576  0.00  0.00    +0.000 A 
ATOM     25  C   UNL     1       3.436   4.869  17.502  0.00  0.00    +0.000 A 
ATOM     26 CL   UNL     1       2.126   3.992  18.214  0.00  0.00    +0.000 Cl
ENDBRANCH  18  20
ENDBRANCH   1  17
TORSDOF 3
ENDMDL
MODEL 4
REMARK VINA RESULT:      -7.9      1.230      1.381
REMARK  Name = 
REMARK  3 active torsions:
REMARK  status: ('A' for Active; 'I' for Inactive)
REMARK    1  A    between atoms: C_2  and  C_11
REMARK    2  A    between atoms: N_3  and  C_4
REMARK    3  A    between atoms: C_15  and  C_16
REMARK                            x       y       z     vdW  Elec       q    Type
REMARK                         _______ _______ _______ _____ _____    ______ ____
ROOT
ATOM      1  C   UNL     1       0.616   9.301  21.337  0.00  0.00    +0.000 A 
ATOM      2  C   UNL     1       0.828   7.960  21.601  0.00  0.00    +0.000 A 
ATOM      3  N   UNL     1       1.428   7.445  20.489  0.00  0.00    +0.000 N 
ATOM      4  C   UNL     1       1.843   6.140  20.247  0.00  0.00    +0.000 A 
ATOM      5  C   UNL     1       2.470   5.836  19.086  0.00  0.00    +0.000 A 
ATOM      6  C   UNL     1       2.659   6.947  18.133  0.00  0.00    +0.000 A 
ATOM      7  C   UNL     1       2.238   8.201  18.376  0.00  0.00    +0.000 A 
ATOM      8  C   UNL     1       1.579   8.500  19.599  0.00  0.00    +0.000 A 
ATOM      9  N   UNL     1       1.069   9.623  20.071  0.00  0.00    +0.000 NA
ENDROOT
BRANCH   5  10
ATOM     10  C   UNL     1       2.896   4.440  18.819  0.00  0.00    +0.000 A 
ATOM     11  C   UNL     1       2.324   3.709  17.778  0.00  0.00    +0.000 A 
ATOM     12  C   UNL     1       2.698   2.380  17.596  0.00  0.00    +0.000 A 
ATOM     13  C   UNL     1       3.637   1.816  18.447  0.00  0.00    +0.000 A 
ATOM     14  C   UNL     1       4.177   2.614  19.441  0.00  0.00    +0.000 A 
ATOM     15  N   UNL     1       3.834   3.909  19.642  0.00  0.00    +0.000 NA
ENDBRANCH   5  10
BRANCH   1  17
ATOM     16  O   UNL     1       0.227  10.046  23.499  0.00  0.00    +0.000 OA
ATOM     17  C   UNL     1       0.025  10.224  22.300  0.00  0.00    +0.000 C 
ATOM     18  N   UNL     1      -0.764  11.225  21.767  0.00  0.00    +0.000 N 
ATOM     19  H   UNL     1      -0.996  11.142  20.780  0.00  0.00    +0.000 HD
BRANCH  18  20
ATOM     20  C   UNL     1      -1.392  12.252  22.523  0.00  0.00    +0.000 A 
ATOM     21  C   UNL     1      -2.605  12.025  23.192  0.00  0.00    +0.000 A 
ATOM     22  C   UNL     1      -3.246  13.035  23.910  0.00  0.00    +0.000 A 
ATOM     23  C   UNL     1      -2.672  14.295  23.998  0.00  0.00    +0.000 A 
ATOM     24  C   UNL     1      -1.455  14.542  23.363  0.00  0.00    +0.000 A 
ATOM     25  C   UNL     1      -0.817  13.529  22.630  0.00  0.00    +0.000 A 
ATOM     26 CL   UNL     1       0.659  13.923  21.819  0.00  0.00    +0.000 Cl
ENDBRANCH  18  20
ENDBRANCH   1  17
TORSDOF 3
ENDMDL
MODEL 5
REMARK VINA RESULT:      -7.6      0.930      1.003
REMARK  Name = 
REMARK  3 active torsions:
REMARK  status: ('A' for Active; 'I' for Inactive)
REMARK    1  A    between atoms: C_2  and  C_11
REMARK    2  A    between atoms: N_3  and  C_4
REMARK    3  A    between atoms: C_15  and  C_16
REMARK                            x       y       z     vdW  Elec       q    Type
REMARK                         _______ _______ _______ _____ _____    ______ ____
ROOT
ATOM      1  C   UNL     1       0.023  10.234  21.213  0.00  0.00    +0.000 A 
ATOM      2  C   UNL     1       0.681   9.050  21.496  0.00  0.00    +0.000 A 
ATOM      3  N   UNL     1       1.259   8.650  20.327  0.00  0.00    +0.000 N 
ATOM      4  C   UNL     1       2.030   7.520  20.077  0.00  0.00    +0.000 A 
ATOM      5  C   UNL     1       2.561   7.324  18.847  0.00  0.00    +0.000 A 
ATOM      6  C   UNL     1       2.261   8.353  17.833  0.00  0.00    +0.000 A 
ATOM      7  C   UNL     1       1.502   9.434  18.086  0.00  0.00    +0.000 A 
ATOM      8  C   UNL     1       0.950   9.621  19.383  0.00  0.00    +0.000 A 
ATOM      9  N   UNL     1       0.179  10.570  19.881  0.00  0.00    +0.000 NA
ENDROOT
BRANCH   5  10
ATOM     10  C   UNL     1       3.367   6.109  18.574  0.00  0.00    +0.000 A 
ATOM     11  C   UNL     1       3.963   5.917  17.328  0.00  0.00    +0.000 A 
ATOM     12  C   UNL     1       4.657   4.734  17.081  0.00  0.00    +0.000 A 
ATOM     13  C   UNL     1       4.748   3.780  18.084  0.00  0.00    +0.000 A 
ATOM     14  C   UNL     1       4.151   4.056  19.302  0.00  0.00    +0.000 A 
ATOM     15  N   UNL     1       3.470   5.195  19.571  0.00  0.00    +0.000 NA
ENDBRANCH   5  10
BRANCH   1  17
ATOM     16  O   UNL     1      -0.433  10.839  23.406  0.00  0.00    +0.000 OA
ATOM     17  C   UNL     1      -0.696  11.011  22.218  0.00  0.00    +0.000 C 
ATOM     18  N   UNL     1      -1.664  11.869  21.734  0.00  0.00    +0.000 N 
ATOM     19  H   UNL     1      -1.905  11.771  20.750  0.00  0.00    +0.000 HD
BRANCH  18  20
ATOM     20  C   UNL     1      -2.444  12.747  22.535  0.00  0.00    +0.000 A 
ATOM     21  C   UNL     1      -3.324  12.252  23.511  0.00  0.00    +0.000 A 
ATOM     22  C   UNL     1      -4.118  13.104  24.281  0.00  0.00    +0.000 A 
ATOM     23  C   UNL     1      -4.029  14.478  24.109  0.00  0.00    +0.000 A 
ATOM     24  C   UNL     1      -3.145  14.997  23.164  0.00  0.00    +0.000 A 
ATOM     25  C   UNL     1      -2.356  14.139  22.381  0.00  0.00    +0.000 A 
ATOM     26 CL   UNL     1      -1.327  14.850  21.187  0.00  0.00    +0.000 Cl
ENDBRANCH  18  20
ENDBRANCH   1  17
TORSDOF 3
ENDMDL
MODEL 6
REMARK VINA RESULT:      -7.6      3.101      5.037
REMARK  Name = 
REMARK  3 active torsions:
REMARK  status: ('A' for Active; 'I' for Inactive)
REMARK    1  A    between atoms: C_2  and  C_11
REMARK    2  A    between atoms: N_3  and  C_4
REMARK    3  A    between atoms: C_15  and  C_16
REMARK                            x       y       z     vdW  Elec       q    Type
REMARK                         _______ _______ _______ _____ _____    ______ ____
ROOT
ATOM      1  C   UNL     1       2.684   7.185  19.020  0.00  0.00    +0.000 A 
ATOM      2  C   UNL     1       3.168   7.484  17.759  0.00  0.00    +0.000 A 
ATOM      3  N   UNL     1       3.913   6.407  17.375  0.00  0.00    +0.000 N 
ATOM      4  C   UNL     1       4.617   6.210  16.192  0.00  0.00    +0.000 A 
ATOM      5  C   UNL     1       5.261   5.040  15.977  0.00  0.00    +0.000 A 
ATOM      6  C   UNL     1       5.173   4.036  17.055  0.00  0.00    +0.000 A 
ATOM      7  C   UNL     1       4.500   4.247  18.201  0.00  0.00    +0.000 A 
ATOM      8  C   UNL     1       3.833   5.484  18.410  0.00  0.00    +0.000 A 
ATOM      9  N   UNL     1       3.125   5.940  19.427  0.00  0.00    +0.000 NA
ENDROOT
BRANCH   5  10
ATOM     10  C   UNL     1       6.027   4.836  14.723  0.00  0.00    +0.000 A 
ATOM     11  C   UNL     1       5.577   3.942  13.751  0.00  0.00    +0.000 A 
ATOM     12  C   UNL     1       6.353   3.723  12.616  0.00  0.00    +0.000 A 
ATOM     13  C   UNL     1       7.552   4.407  12.472  0.00  0.00    +0.000 A 
ATOM     14  C   UNL     1       7.918   5.296  13.468  0.00  0.00    +0.000 A 
ATOM     15  N   UNL     1       7.184   5.530  14.582  0.00  0.00    +0.000 NA
ENDBRANCH   5  10
BRANCH   1  17
ATOM     16  O   UNL     1       1.479   7.767  20.915  0.00  0.00    +0.000 OA
ATOM     17  C   UNL     1       1.801   8.073  19.770  0.00  0.00    +0.000 C 
ATOM     18  N   UNL     1       1.361   9.194  19.093  0.00  0.00    +0.000 N 
ATOM     19  H   UNL     1       1.553   9.224  18.094  0.00  0.00    +0.000 HD
BRANCH  18  20
ATOM     20  C   UNL     1       0.536  10.207  19.653  0.00  0.00    +0.000 A 
ATOM     21  C   UNL     1       0.881  10.845  20.855  0.00  0.00    +0.000 A 
ATOM     22  C   UNL     1       0.062  11.818  21.429  0.00  0.00    +0.000 A 
ATOM     23  C   UNL     1      -1.113  12.197  20.797  0.00  0.00    +0.000 A 
ATOM     24  C   UNL     1      -1.469  11.596  19.589  0.00  0.00    +0.000 A 
ATOM     25  C   UNL     1      -0.651  10.608  19.019  0.00  0.00    +0.000 A 
ATOM     26 CL   UNL     1      -1.183   9.864  17.551  0.00  0.00    +0.000 Cl
ENDBRANCH  18  20
ENDBRANCH   1  17
TORSDOF 3
ENDMDL
MODEL 7
REMARK VINA RESULT:      -7.6      1.344      1.683
REMARK  Name = 
REMARK  3 active torsions:
REMARK  status: ('A' for Active; 'I' for Inactive)
REMARK    1  A    between atoms: C_2  and  C_11
REMARK    2  A    between atoms: N_3  and  C_4
REMARK    3  A    between atoms: C_15  and  C_16
REMARK                            x       y       z     vdW  Elec       q    Type
REMARK                         _______ _______ _______ _____ _____    ______ ____
ROOT
ATOM      1  C   UNL     1      -0.100  10.465  21.315  0.00  0.00    +0.000 A 
ATOM      2  C   UNL     1       0.601   9.297  21.556  0.00  0.00    +0.000 A 
ATOM      3  N   UNL     1       1.124   8.915  20.356  0.00  0.00    +0.000 N 
ATOM      4  C   UNL     1       1.907   7.805  20.058  0.00  0.00    +0.000 A 
ATOM      5  C   UNL     1       2.374   7.626  18.800  0.00  0.00    +0.000 A 
ATOM      6  C   UNL     1       1.995   8.651  17.808  0.00  0.00    +0.000 A 
ATOM      7  C   UNL     1       1.224   9.712  18.108  0.00  0.00    +0.000 A 
ATOM      8  C   UNL     1       0.740   9.881  19.434  0.00  0.00    +0.000 A 
ATOM      9  N   UNL     1      -0.025  10.809  19.979  0.00  0.00    +0.000 NA
ENDROOT
BRANCH   5  10
ATOM     10  C   UNL     1       3.193   6.432  18.478  0.00  0.00    +0.000 A 
ATOM     11  C   UNL     1       4.048   6.433  17.375  0.00  0.00    +0.000 A 
ATOM     12  C   UNL     1       4.752   5.273  17.061  0.00  0.00    +0.000 A 
ATOM     13  C   UNL     1       4.597   4.148  17.856  0.00  0.00    +0.000 A 
ATOM     14  C   UNL     1       3.749   4.234  18.947  0.00  0.00    +0.000 A 
ATOM     15  N   UNL     1       3.052   5.347  19.278  0.00  0.00    +0.000 NA
ENDBRANCH   5  10
BRANCH   1  17
ATOM     16  O   UNL     1      -0.949  10.700  23.462  0.00  0.00    +0.000 OA
ATOM     17  C   UNL     1      -0.781  11.221  22.362  0.00  0.00    +0.000 C 
ATOM     18  N   UNL     1      -1.225  12.478  22.002  0.00  0.00    +0.000 N 
ATOM     19  H   UNL     1      -1.186  12.706  21.011  0.00  0.00    +0.000 HD
BRANCH  18  20
ATOM     20  C   UNL     1      -1.867  13.394  22.879  0.00  0.00    +0.000 A 
ATOM     21  C   UNL     1      -1.127  14.203  23.756  0.00  0.00    +0.000 A 
ATOM     22  C   UNL     1      -1.750  15.081  24.644  0.00  0.00    +0.000 A 
ATOM     23  C   UNL     1      -3.133  15.190  24.656  0.00  0.00    +0.000 A 
ATOM     24  C   UNL     1      -3.892  14.415  23.779  0.00  0.00    +0.000 A 
ATOM     25  C   UNL     1      -3.265  13.523  22.895  0.00  0.00    +0.000 A 
ATOM     26 CL   UNL     1      -4.271  12.550  21.878  0.00  0.00    +0.000 Cl
ENDBRANCH  18  20
ENDBRANCH   1  17
TORSDOF 3
ENDMDL
MODEL 8
REMARK VINA RESULT:      -7.5      1.445      1.611
REMARK  Name = 
REMARK  3 active torsions:
REMARK  status: ('A' for Active; 'I' for Inactive)
REMARK    1  A    between atoms: C_2  and  C_11
REMARK    2  A    between atoms: N_3  and  C_4
REMARK    3  A    between atoms: C_15  and  C_16
REMARK                            x       y       z     vdW  Elec       q    Type
REMARK                         _______ _______ _______ _____ _____    ______ ____
ROOT
ATOM      1  C   UNL     1      -0.093  10.542  20.176  0.00  0.00    +0.000 A 
ATOM      2  C   UNL     1       0.311   9.390  20.827  0.00  0.00    +0.000 A 
ATOM      3  N   UNL     1       1.130   8.732  19.957  0.00  0.00    +0.000 N 
ATOM      4  C   UNL     1       1.792   7.521  20.128  0.00  0.00    +0.000 A 
ATOM      5  C   UNL     1       2.608   7.054  19.153  0.00  0.00    +0.000 A 
ATOM      6  C   UNL     1       2.725   7.888  17.942  0.00  0.00    +0.000 A 
ATOM      7  C   UNL     1       2.066   9.051  17.785  0.00  0.00    +0.000 A 
ATOM      8  C   UNL     1       1.212   9.523  18.818  0.00  0.00    +0.000 A 
ATOM      9  N   UNL     1       0.460  10.604  18.911  0.00  0.00    +0.000 NA
ENDROOT
BRANCH   5  10
ATOM     10  C   UNL     1       3.299   5.753  19.327  0.00  0.00    +0.000 A 
ATOM     11  C   UNL     1       4.583   5.557  18.819  0.00  0.00    +0.000 A 
ATOM     12  C   UNL     1       5.178   4.304  18.940  0.00  0.00    +0.000 A 
ATOM     13  C   UNL     1       4.485   3.282  19.572  0.00  0.00    +0.000 A 
ATOM     14  C   UNL     1       3.226   3.562  20.073  0.00  0.00    +0.000 A 
ATOM     15  N   UNL     1       2.622   4.770  19.970  0.00  0.00    +0.000 NA
ENDBRANCH   5  10
BRANCH   1  17
ATOM     16  O   UNL     1      -1.571  12.327  20.067  0.00  0.00    +0.000 OA
ATOM     17  C   UNL     1      -0.954  11.548  20.790  0.00  0.00    +0.000 C 
ATOM     18  N   UNL     1      -0.971  11.562  22.171  0.00  0.00    +0.000 N 
ATOM     19  H   UNL     1      -0.272  10.990  22.639  0.00  0.00    +0.000 HD
BRANCH  18  20
ATOM     20  C   UNL     1      -1.774  12.427  22.963  0.00  0.00    +0.000 A 
ATOM     21  C   UNL     1      -2.984  11.986  23.522  0.00  0.00    +0.000 A 
ATOM     22  C   UNL     1      -3.796  12.836  24.275  0.00  0.00    +0.000 A 
ATOM     23  C   UNL     1      -3.401  14.145  24.509  0.00  0.00    +0.000 A 
ATOM     24  C   UNL     1      -2.191  14.602  23.986  0.00  0.00    +0.000 A 
ATOM     25  C   UNL     1      -1.382  13.751  23.218  0.00  0.00    +0.000 A 
ATOM     26 CL   UNL     1       0.075  14.402  22.550  0.00  0.00    +0.000 Cl
ENDBRANCH  18  20
ENDBRANCH   1  17
TORSDOF 3
ENDMDL
MODEL 9
REMARK VINA RESULT:      -7.4      3.360      9.763
REMARK  Name = 
REMARK  3 active torsions:
REMARK  status: ('A' for Active; 'I' for Inactive)
REMARK    1  A    between atoms: C_2  and  C_11
REMARK    2  A    between atoms: N_3  and  C_4
REMARK    3  A    between atoms: C_15  and  C_16
REMARK                            x       y       z     vdW  Elec       q    Type
REMARK                         _______ _______ _______ _____ _____    ______ ____
ROOT
ATOM      1  C   UNL     1       2.402   7.218  19.003  0.00  0.00    +0.000 A 
ATOM      2  C   UNL     1       1.979   8.458  18.560  0.00  0.00    +0.000 A 
ATOM      3  N   UNL     1       1.350   9.044  19.619  0.00  0.00    +0.000 N 
ATOM      4  C   UNL     1       0.744  10.293  19.692  0.00  0.00    +0.000 A 
ATOM      5  C   UNL     1       0.211  10.718  20.862  0.00  0.00    +0.000 A 
ATOM      6  C   UNL     1       0.310   9.787  22.003  0.00  0.00    +0.000 A 
ATOM      7  C   UNL     1       0.887   8.575  21.913  0.00  0.00    +0.000 A 
ATOM      8  C   UNL     1       1.437   8.145  20.675  0.00  0.00    +0.000 A 
ATOM      9  N   UNL     1       2.038   7.023  20.322  0.00  0.00    +0.000 NA
ENDROOT
BRANCH   5  10
ATOM     10  C   UNL     1      -0.453  12.042  20.936  0.00  0.00    +0.000 A 
ATOM     11  C   UNL     1      -0.987  12.504  22.138  0.00  0.00    +0.000 A 
ATOM     12  C   UNL     1      -1.663  13.721  22.159  0.00  0.00    +0.000 A 
ATOM     13  C   UNL     1      -1.780  14.452  20.986  0.00  0.00    +0.000 A 
ATOM     14  C   UNL     1      -1.201  13.939  19.838  0.00  0.00    +0.000 A 
ATOM     15  N   UNL     1      -0.538  12.759  19.788  0.00  0.00    +0.000 NA
ENDBRANCH   5  10
BRANCH   1  17
ATOM     16  O   UNL     1       2.653   5.209  17.870  0.00  0.00    +0.000 OA
ATOM     17  C   UNL     1       3.160   6.286  18.173  0.00  0.00    +0.000 C 
ATOM     18  N   UNL     1       4.432   6.693  17.822  0.00  0.00    +0.000 N 
ATOM     19  H   UNL     1       4.791   7.519  18.297  0.00  0.00    +0.000 HD
BRANCH  18  20
ATOM     20  C   UNL     1       5.316   5.960  16.984  0.00  0.00    +0.000 A 
ATOM     21  C   UNL     1       5.106   5.882  15.598  0.00  0.00    +0.000 A 
ATOM     22  C   UNL     1       5.949   5.138  14.770  0.00  0.00    +0.000 A 
ATOM     23  C   UNL     1       7.042   4.475  15.310  0.00  0.00    +0.000 A 
ATOM     24  C   UNL     1       7.288   4.556  16.681  0.00  0.00    +0.000 A 
ATOM     25  C   UNL     1       6.432   5.293  17.514  0.00  0.00    +0.000 A 
ATOM     26 CL   UNL     1       6.763   5.300  19.212  0.00  0.00    +0.000 Cl
ENDBRANCH  18  20
ENDBRANCH   1  17
TORSDOF 3
ENDMDL
